MODEL        1
REMARK 921   NORMALIZED FREE ENERGY PREDICTED BY IDOCK:   -6.86 KCAL/MOL
REMARK 922        TOTAL FREE ENERGY PREDICTED BY IDOCK:   -9.50 KCAL/MOL
REMARK 923 INTER-LIGAND FREE ENERGY PREDICTED BY IDOCK:   -8.87 KCAL/MOL
REMARK 924 INTRA-LIGAND FREE ENERGY PREDICTED BY IDOCK:   -0.63 KCAL/MOL
REMARK 927      BINDING AFFINITY PREDICTED BY RF-SCORE:    0.00 PKD
ROOT
HETATM    1  C   UNL     1     -12.114  12.015  63.450  1.00  0.00    -0.597 C  
HETATM    2  C   UNL     1     -10.694  12.154  64.028  1.00  0.00    -0.384 C  
HETATM    3  C   UNL     1      -9.717  11.432  63.082  1.00  0.00    -0.413 C  
HETATM    4  C   UNL     1     -10.621  11.468  65.405  1.00  0.00    -0.336 C  
HETATM    5  N   UNL     1     -10.261  13.563  64.110  1.00  0.00    -0.758 NA 
HETATM    6  H   UNL     1     -10.149  13.956  63.176  1.00  0.00     0.000 HD 
ENDROOT
BRANCH   5   7
HETATM    7  C   UNL     1     -11.130  14.420  64.924  1.00  0.00    -0.398 C  
BRANCH   7   8
HETATM    8  C   UNL     1     -10.394  15.654  65.491  1.00  0.00    -0.396 C  
HETATM    9  H   UNL     1     -10.350  17.599  65.154  1.00  0.00     0.000 HD 
HETATM   10  O   UNL     1     -10.802  16.841  64.805  1.00  0.00    -0.745 OA 
BRANCH   8  11
HETATM   11  C   UNL     1     -10.699  15.761  66.997  1.00  0.00    -0.306 C  
BRANCH  11  12
HETATM   12  O   UNL     1     -11.418  14.609  67.436  1.00  0.00    -0.341 OA 
BRANCH  12  13
HETATM   13  C   UNL     1     -11.696  14.449  68.771  1.00  0.00    -0.337 A  
HETATM   14  C   UNL     1     -11.896  15.687  69.411  1.00  0.00    -0.391 A  
HETATM   15  C   UNL     1     -12.303  15.766  70.743  1.00  0.00    -0.435 A  
HETATM   16  C   UNL     1     -12.570  14.599  71.443  1.00  0.00    -0.404 A  
HETATM   17  C   UNL     1     -12.403  13.363  70.817  1.00  0.00    -0.354 A  
HETATM   18  C   UNL     1     -11.923  13.257  69.491  1.00  0.00    -0.366 A  
HETATM   19  C   UNL     1     -11.838  11.873  68.905  1.00  0.00    -0.366 C  
HETATM   20  C   UNL     1     -11.762  10.748  69.922  1.00  0.00    -0.412 C  
HETATM   21  C   UNL     1     -12.694  10.943  71.075  1.00  0.00    -0.407 C  
HETATM   22  N   UNL     1     -12.821  12.229  71.522  1.00  0.00    -0.340 N  
HETATM   23  O   UNL     1     -13.218  10.004  71.669  1.00  0.00    -0.383 OA 
HETATM   24  H   UNL     1     -13.252  12.372  72.436  1.00  0.00     0.000 HD 
ENDBRANCH  12  13
ENDBRANCH  11  12
ENDBRANCH   8  11
ENDBRANCH   7   8
ENDBRANCH   5   7
TORSDOF 5
ENDMDL
MODEL        2
REMARK 921   NORMALIZED FREE ENERGY PREDICTED BY IDOCK:   -6.75 KCAL/MOL
REMARK 922        TOTAL FREE ENERGY PREDICTED BY IDOCK:   -9.35 KCAL/MOL
REMARK 923 INTER-LIGAND FREE ENERGY PREDICTED BY IDOCK:   -8.59 KCAL/MOL
REMARK 924 INTRA-LIGAND FREE ENERGY PREDICTED BY IDOCK:   -0.76 KCAL/MOL
REMARK 927      BINDING AFFINITY PREDICTED BY RF-SCORE:    0.00 PKD
ROOT
HETATM    1  C   UNL     1     -12.268  13.085  65.483  1.00  0.00    -0.521 C  
HETATM    2  C   UNL     1     -10.811  12.655  65.238  1.00  0.00    -0.288 C  
HETATM    3  C   UNL     1     -10.621  12.435  63.726  1.00  0.00    -0.486 C  
HETATM    4  C   UNL     1     -10.532  11.320  65.954  1.00  0.00    -0.314 C  
HETATM    5  N   UNL     1      -9.845  13.693  65.652  1.00  0.00    -0.466 NA 
HETATM    6  H   UNL     1      -9.928  14.515  65.053  1.00  0.00     0.000 HD 
ENDROOT
BRANCH   5   7
HETATM    7  C   UNL     1      -9.936  14.081  67.064  1.00  0.00    -0.257 C  
BRANCH   7   8
HETATM    8  C   UNL     1     -10.098  15.604  67.258  1.00  0.00    -0.255 C  
HETATM    9  H   UNL     1     -10.755  17.139  66.205  1.00  0.00     0.000 HD 
HETATM   10  O   UNL     1     -10.656  16.202  66.085  1.00  0.00    -0.313 OA 
BRANCH   8  11
HETATM   11  C   UNL     1     -11.001  15.852  68.481  1.00  0.00    -0.324 C  
BRANCH  11  12
HETATM   12  O   UNL     1     -11.895  14.754  68.663  1.00  0.00    -0.318 OA 
BRANCH  12  13
HETATM   13  C   UNL     1     -12.315  14.421  69.927  1.00  0.00    -0.314 A  
HETATM   14  C   UNL     1     -12.833  15.537  70.612  1.00  0.00    -0.466 A  
HETATM   15  C   UNL     1     -13.423  15.415  71.870  1.00  0.00    -0.571 A  
HETATM   16  C   UNL     1     -13.552  14.158  72.442  1.00  0.00    -0.632 A  
HETATM   17  C   UNL     1     -13.069  13.037  71.766  1.00  0.00    -0.373 A  
HETATM   18  C   UNL     1     -12.403  13.146  70.523  1.00  0.00    -0.380 A  
HETATM   19  C   UNL     1     -11.975  11.861  69.864  1.00  0.00    -0.398 C  
HETATM   20  C   UNL     1     -11.822  10.677  70.803  1.00  0.00    -0.459 C  
HETATM   21  C   UNL     1     -12.922  10.591  71.813  1.00  0.00    -0.476 C  
HETATM   22  N   UNL     1     -13.353  11.785  72.322  1.00  0.00    -0.545 N  
HETATM   23  O   UNL     1     -13.331   9.522  72.257  1.00  0.00    -0.438 OA 
HETATM   24  H   UNL     1     -13.922  11.762  73.169  1.00  0.00     0.000 HD 
ENDBRANCH  12  13
ENDBRANCH  11  12
ENDBRANCH   8  11
ENDBRANCH   7   8
ENDBRANCH   5   7
TORSDOF 5
ENDMDL
MODEL        3
REMARK 921   NORMALIZED FREE ENERGY PREDICTED BY IDOCK:   -6.61 KCAL/MOL
REMARK 922        TOTAL FREE ENERGY PREDICTED BY IDOCK:   -9.17 KCAL/MOL
REMARK 923 INTER-LIGAND FREE ENERGY PREDICTED BY IDOCK:   -8.40 KCAL/MOL
REMARK 924 INTRA-LIGAND FREE ENERGY PREDICTED BY IDOCK:   -0.77 KCAL/MOL
REMARK 927      BINDING AFFINITY PREDICTED BY RF-SCORE:    0.00 PKD
ROOT
HETATM    1  C   UNL     1     -12.745  14.676  73.246  1.00  0.00    -0.552 C  
HETATM    2  C   UNL     1     -12.614  14.852  71.723  1.00  0.00    -0.331 C  
HETATM    3  C   UNL     1     -11.614  15.992  71.454  1.00  0.00    -0.520 C  
HETATM    4  C   UNL     1     -13.974  15.259  71.125  1.00  0.00    -0.462 C  
HETATM    5  N   UNL     1     -12.083  13.642  71.065  1.00  0.00    -0.461 NA 
HETATM    6  H   UNL     1     -11.116  13.480  71.344  1.00  0.00     0.000 HD 
ENDROOT
BRANCH   5   7
HETATM    7  C   UNL     1     -12.885  12.431  71.279  1.00  0.00    -0.240 C  
BRANCH   7   8
HETATM    8  C   UNL     1     -12.210  11.160  70.721  1.00  0.00    -0.385 C  
HETATM    9  H   UNL     1     -12.529   9.211  70.762  1.00  0.00     0.000 HD 
HETATM   10  O   UNL     1     -12.944   9.993  71.106  1.00  0.00    -0.354 OA 
BRANCH   8  11
HETATM   11  C   UNL     1     -12.131  11.274  69.188  1.00  0.00    -0.279 C  
BRANCH  11  12
HETATM   12  O   UNL     1     -11.093  12.182  68.816  1.00  0.00    -0.223 OA 
BRANCH  12  13
HETATM   13  C   UNL     1     -10.778  12.347  67.490  1.00  0.00    -0.228 A  
HETATM   14  C   UNL     1     -10.588  11.111  66.844  1.00  0.00    -0.304 A  
HETATM   15  C   UNL     1     -10.372  11.030  65.468  1.00  0.00    -0.321 A  
HETATM   16  C   UNL     1     -10.395  12.188  64.706  1.00  0.00    -0.320 A  
HETATM   17  C   UNL     1     -10.608  13.420  65.326  1.00  0.00    -0.325 A  
HETATM   18  C   UNL     1     -10.757  13.534  66.728  1.00  0.00    -0.278 A  
HETATM   19  C   UNL     1     -11.037  14.909  67.274  1.00  0.00    -0.336 C  
HETATM   20  C   UNL     1     -10.612  16.056  66.375  1.00  0.00    -0.284 C  
HETATM   21  C   UNL     1     -10.937  15.818  64.935  1.00  0.00    -0.427 C  
HETATM   22  N   UNL     1     -10.762  14.535  64.494  1.00  0.00    -0.618 N  
HETATM   23  O   UNL     1     -11.220  16.727  64.160  1.00  0.00    -1.155 OA 
HETATM   24  H   UNL     1     -10.743  14.379  63.486  1.00  0.00     0.000 HD 
ENDBRANCH  12  13
ENDBRANCH  11  12
ENDBRANCH   8  11
ENDBRANCH   7   8
ENDBRANCH   5   7
TORSDOF 5
ENDMDL
MODEL        4
REMARK 921   NORMALIZED FREE ENERGY PREDICTED BY IDOCK:   -6.58 KCAL/MOL
REMARK 922        TOTAL FREE ENERGY PREDICTED BY IDOCK:   -9.13 KCAL/MOL
REMARK 923 INTER-LIGAND FREE ENERGY PREDICTED BY IDOCK:   -7.96 KCAL/MOL
REMARK 924 INTRA-LIGAND FREE ENERGY PREDICTED BY IDOCK:   -1.17 KCAL/MOL
REMARK 927      BINDING AFFINITY PREDICTED BY RF-SCORE:    0.00 PKD
ROOT
HETATM    1  C   UNL     1      -9.656  11.876  68.436  1.00  0.00    -0.196 C  
HETATM    2  C   UNL     1     -10.829  10.956  68.054  1.00  0.00    -0.245 C  
HETATM    3  C   UNL     1     -11.734  10.790  69.289  1.00  0.00    -0.374 C  
HETATM    4  C   UNL     1     -10.296   9.565  67.662  1.00  0.00    -0.299 C  
HETATM    5  N   UNL     1     -11.661  11.529  66.977  1.00  0.00    -0.550 NA 
HETATM    6  H   UNL     1     -12.145  12.364  67.309  1.00  0.00     0.000 HD 
ENDROOT
BRANCH   5   7
HETATM    7  C   UNL     1     -10.935  11.820  65.736  1.00  0.00    -0.301 C  
BRANCH   7   8
HETATM    8  C   UNL     1     -11.690  12.804  64.816  1.00  0.00    -0.352 C  
HETATM    9  H   UNL     1     -13.531  13.037  64.140  1.00  0.00     0.000 HD 
HETATM   10  O   UNL     1     -13.067  12.431  64.706  1.00  0.00    -0.806 OA 
BRANCH   8  11
HETATM   11  C   UNL     1     -11.553  14.225  65.393  1.00  0.00    -0.346 C  
BRANCH  11  12
HETATM   12  O   UNL     1     -12.026  14.256  66.740  1.00  0.00    -0.414 OA 
BRANCH  12  13
HETATM   13  C   UNL     1     -11.467  15.131  67.637  1.00  0.00    -0.309 A  
HETATM   14  C   UNL     1     -10.714  16.128  66.989  1.00  0.00    -0.254 A  
HETATM   15  C   UNL     1     -10.148  17.192  67.692  1.00  0.00    -0.305 A  
HETATM   16  C   UNL     1     -10.374  17.303  69.056  1.00  0.00    -0.330 A  
HETATM   17  C   UNL     1     -11.140  16.338  69.711  1.00  0.00    -0.337 A  
HETATM   18  C   UNL     1     -11.663  15.213  69.032  1.00  0.00    -0.358 A  
HETATM   19  C   UNL     1     -12.520  14.270  69.834  1.00  0.00    -0.315 C  
HETATM   20  C   UNL     1     -12.301  14.323  71.336  1.00  0.00    -0.431 C  
HETATM   21  C   UNL     1     -12.157  15.719  71.854  1.00  0.00    -0.465 C  
HETATM   22  N   UNL     1     -11.452  16.576  71.054  1.00  0.00    -0.542 N  
HETATM   23  O   UNL     1     -12.530  16.051  72.975  1.00  0.00    -0.429 OA 
HETATM   24  H   UNL     1     -11.131  17.452  71.467  1.00  0.00     0.000 HD 
ENDBRANCH  12  13
ENDBRANCH  11  12
ENDBRANCH   8  11
ENDBRANCH   7   8
ENDBRANCH   5   7
TORSDOF 5
ENDMDL
MODEL        5
REMARK 921   NORMALIZED FREE ENERGY PREDICTED BY IDOCK:   -6.55 KCAL/MOL
REMARK 922        TOTAL FREE ENERGY PREDICTED BY IDOCK:   -9.09 KCAL/MOL
REMARK 923 INTER-LIGAND FREE ENERGY PREDICTED BY IDOCK:   -8.38 KCAL/MOL
REMARK 924 INTRA-LIGAND FREE ENERGY PREDICTED BY IDOCK:   -0.71 KCAL/MOL
REMARK 927      BINDING AFFINITY PREDICTED BY RF-SCORE:    0.00 PKD
ROOT
HETATM    1  C   UNL     1      -8.491  18.086  66.587  1.00  0.00    -0.283 C  
HETATM    2  C   UNL     1     -10.020  17.972  66.453  1.00  0.00    -0.362 C  
HETATM    3  C   UNL     1     -10.573  19.350  66.046  1.00  0.00    -0.573 C  
HETATM    4  C   UNL     1     -10.637  17.592  67.813  1.00  0.00    -0.380 C  
HETATM    5  N   UNL     1     -10.419  17.014  65.402  1.00  0.00    -0.644 NA 
HETATM    6  H   UNL     1     -10.151  17.364  64.482  1.00  0.00     0.000 HD 
ENDROOT
BRANCH   5   7
HETATM    7  C   UNL     1      -9.911  15.651  65.597  1.00  0.00    -0.354 C  
BRANCH   7   8
HETATM    8  C   UNL     1     -10.887  14.569  65.085  1.00  0.00    -0.395 C  
HETATM    9  H   UNL     1     -10.768  12.761  64.302  1.00  0.00     0.000 HD 
HETATM   10  O   UNL     1     -10.167  13.426  64.616  1.00  0.00    -0.376 OA 
BRANCH   8  11
HETATM   11  C   UNL     1     -11.840  14.182  66.231  1.00  0.00    -0.411 C  
BRANCH  11  12
HETATM   12  O   UNL     1     -11.121  14.103  67.463  1.00  0.00    -0.277 OA 
BRANCH  12  13
HETATM   13  C   UNL     1     -11.632  13.366  68.502  1.00  0.00    -0.333 A  
HETATM   14  C   UNL     1     -11.472  11.984  68.286  1.00  0.00    -0.361 A  
HETATM   15  C   UNL     1     -11.814  11.046  69.261  1.00  0.00    -0.411 A  
HETATM   16  C   UNL     1     -12.274  11.484  70.495  1.00  0.00    -0.469 A  
HETATM   17  C   UNL     1     -12.413  12.851  70.736  1.00  0.00    -0.286 A  
HETATM   18  C   UNL     1     -12.141  13.816  69.738  1.00  0.00    -0.400 A  
HETATM   19  C   UNL     1     -12.275  15.263  70.135  1.00  0.00    -0.402 C  
HETATM   20  C   UNL     1     -13.166  15.520  71.337  1.00  0.00    -0.587 C  
HETATM   21  C   UNL     1     -12.957  14.529  72.438  1.00  0.00    -0.386 C  
HETATM   22  N   UNL     1     -12.743  13.238  72.040  1.00  0.00    -0.164 N  
HETATM   23  O   UNL     1     -13.092  14.818  73.624  1.00  0.00    -0.527 OA 
HETATM   24  H   UNL     1     -12.831  12.505  72.743  1.00  0.00     0.000 HD 
ENDBRANCH  12  13
ENDBRANCH  11  12
ENDBRANCH   8  11
ENDBRANCH   7   8
ENDBRANCH   5   7
TORSDOF 5
ENDMDL
MODEL        6
REMARK 921   NORMALIZED FREE ENERGY PREDICTED BY IDOCK:   -6.44 KCAL/MOL
REMARK 922        TOTAL FREE ENERGY PREDICTED BY IDOCK:   -8.96 KCAL/MOL
REMARK 923 INTER-LIGAND FREE ENERGY PREDICTED BY IDOCK:   -8.44 KCAL/MOL
REMARK 924 INTRA-LIGAND FREE ENERGY PREDICTED BY IDOCK:   -0.52 KCAL/MOL
REMARK 927      BINDING AFFINITY PREDICTED BY RF-SCORE:    0.00 PKD
ROOT
HETATM    1  C   UNL     1     -10.511  19.222  65.889  1.00  0.00    -0.534 C  
HETATM    2  C   UNL     1      -9.826  18.808  67.204  1.00  0.00    -0.316 C  
HETATM    3  C   UNL     1     -10.344  19.726  68.327  1.00  0.00    -0.536 C  
HETATM    4  C   UNL     1      -8.304  19.010  67.086  1.00  0.00    -0.296 C  
HETATM    5  N   UNL     1     -10.152  17.420  67.590  1.00  0.00    -0.314 NA 
HETATM    6  H   UNL     1     -11.140  17.341  67.831  1.00  0.00     0.000 HD 
ENDROOT
BRANCH   5   7
HETATM    7  C   UNL     1      -9.787  16.409  66.591  1.00  0.00    -0.261 C  
BRANCH   7   8
HETATM    8  C   UNL     1     -10.186  14.979  67.013  1.00  0.00    -0.257 C  
HETATM    9  H   UNL     1      -9.398  13.170  66.931  1.00  0.00     0.000 HD 
HETATM   10  O   UNL     1      -9.153  14.049  66.671  1.00  0.00    -0.250 OA 
BRANCH   8  11
HETATM   11  C   UNL     1     -10.451  14.967  68.530  1.00  0.00    -0.232 C  
BRANCH  11  12
HETATM   12  O   UNL     1     -11.848  14.815  68.783  1.00  0.00    -0.308 OA 
BRANCH  12  13
HETATM   13  C   UNL     1     -12.276  14.433  70.030  1.00  0.00    -0.351 A  
HETATM   14  C   UNL     1     -12.750  15.530  70.774  1.00  0.00    -0.511 A  
HETATM   15  C   UNL     1     -13.340  15.365  72.027  1.00  0.00    -0.545 A  
HETATM   16  C   UNL     1     -13.514  14.085  72.534  1.00  0.00    -0.661 A  
HETATM   17  C   UNL     1     -13.074  12.984  71.798  1.00  0.00    -0.373 A  
HETATM   18  C   UNL     1     -12.409  13.132  70.559  1.00  0.00    -0.380 A  
HETATM   19  C   UNL     1     -12.031  11.869  69.833  1.00  0.00    -0.398 C  
HETATM   20  C   UNL     1     -11.919  10.633  70.708  1.00  0.00    -0.477 C  
HETATM   21  C   UNL     1     -13.017  10.535  71.718  1.00  0.00    -0.476 C  
HETATM   22  N   UNL     1     -13.402  11.716  72.291  1.00  0.00    -0.546 N  
HETATM   23  O   UNL     1     -13.463   9.459  72.109  1.00  0.00    -0.416 OA 
HETATM   24  H   UNL     1     -13.969  11.669  73.138  1.00  0.00     0.000 HD 
ENDBRANCH  12  13
ENDBRANCH  11  12
ENDBRANCH   8  11
ENDBRANCH   7   8
ENDBRANCH   5   7
TORSDOF 5
ENDMDL
MODEL        7
REMARK 921   NORMALIZED FREE ENERGY PREDICTED BY IDOCK:   -6.42 KCAL/MOL
REMARK 922        TOTAL FREE ENERGY PREDICTED BY IDOCK:   -8.93 KCAL/MOL
REMARK 923 INTER-LIGAND FREE ENERGY PREDICTED BY IDOCK:   -8.27 KCAL/MOL
REMARK 924 INTRA-LIGAND FREE ENERGY PREDICTED BY IDOCK:   -0.66 KCAL/MOL
REMARK 927      BINDING AFFINITY PREDICTED BY RF-SCORE:    0.00 PKD
ROOT
HETATM    1  C   UNL     1     -14.400  15.019  71.508  1.00  0.00    -0.651 C  
HETATM    2  C   UNL     1     -13.168  14.359  72.152  1.00  0.00    -0.384 C  
HETATM    3  C   UNL     1     -13.506  12.884  72.440  1.00  0.00    -0.573 C  
HETATM    4  C   UNL     1     -12.848  15.046  73.493  1.00  0.00    -0.636 C  
HETATM    5  N   UNL     1     -11.995  14.370  71.255  1.00  0.00    -0.417 NA 
HETATM    6  H   UNL     1     -12.160  13.769  70.448  1.00  0.00     0.000 HD 
ENDROOT
BRANCH   5   7
HETATM    7  C   UNL     1     -11.575  15.706  70.819  1.00  0.00    -0.382 C  
BRANCH   7   8
HETATM    8  C   UNL     1     -11.480  15.833  69.284  1.00  0.00    -0.365 C  
HETATM    9  H   UNL     1     -10.537  16.975  67.977  1.00  0.00     0.000 HD 
HETATM   10  O   UNL     1     -10.595  16.898  68.922  1.00  0.00    -0.326 OA 
BRANCH   8  11
HETATM   11  C   UNL     1     -10.986  14.493  68.707  1.00  0.00    -0.250 C  
BRANCH  11  12
HETATM   12  O   UNL     1     -12.072  13.787  68.105  1.00  0.00    -0.364 OA 
BRANCH  12  13
HETATM   13  C   UNL     1     -11.934  13.278  66.838  1.00  0.00    -0.375 A  
HETATM   14  C   UNL     1     -12.392  14.184  65.863  1.00  0.00    -0.486 A  
HETATM   15  C   UNL     1     -12.246  13.929  64.499  1.00  0.00    -0.451 A  
HETATM   16  C   UNL     1     -11.586  12.779  64.089  1.00  0.00    -0.456 A  
HETATM   17  C   UNL     1     -11.101  11.883  65.043  1.00  0.00    -0.305 A  
HETATM   18  C   UNL     1     -11.302  12.086  66.428  1.00  0.00    -0.411 A  
HETATM   19  C   UNL     1     -10.684  11.078  67.361  1.00  0.00    -0.303 C  
HETATM   20  C   UNL     1     -10.389   9.724  66.741  1.00  0.00    -0.289 C  
HETATM   21  C   UNL     1      -9.804   9.828  65.368  1.00  0.00    -0.295 C  
HETATM   22  N   UNL     1     -10.322  10.817  64.578  1.00  0.00    -0.355 N  
HETATM   23  O   UNL     1      -9.004   9.009  64.925  1.00  0.00    -0.194 OA 
HETATM   24  H   UNL     1     -10.127  10.775  63.577  1.00  0.00     0.000 HD 
ENDBRANCH  12  13
ENDBRANCH  11  12
ENDBRANCH   8  11
ENDBRANCH   7   8
ENDBRANCH   5   7
TORSDOF 5
ENDMDL
MODEL        8
REMARK 921   NORMALIZED FREE ENERGY PREDICTED BY IDOCK:   -6.42 KCAL/MOL
REMARK 922        TOTAL FREE ENERGY PREDICTED BY IDOCK:   -8.92 KCAL/MOL
REMARK 923 INTER-LIGAND FREE ENERGY PREDICTED BY IDOCK:   -8.43 KCAL/MOL
REMARK 924 INTRA-LIGAND FREE ENERGY PREDICTED BY IDOCK:   -0.49 KCAL/MOL
REMARK 927      BINDING AFFINITY PREDICTED BY RF-SCORE:    0.00 PKD
ROOT
HETATM    1  C   UNL     1      -8.644  16.698  66.313  1.00  0.00    -0.359 C  
HETATM    2  C   UNL     1     -10.139  17.002  66.514  1.00  0.00    -0.314 C  
HETATM    3  C   UNL     1     -10.397  18.459  66.089  1.00  0.00    -0.431 C  
HETATM    4  C   UNL     1     -10.503  16.868  68.005  1.00  0.00    -0.347 C  
HETATM    5  N   UNL     1     -11.001  16.144  65.676  1.00  0.00    -0.203 NA 
HETATM    6  H   UNL     1     -10.870  16.365  64.689  1.00  0.00     0.000 HD 
ENDROOT
BRANCH   5   7
HETATM    7  C   UNL     1     -10.831  14.704  65.903  1.00  0.00    -0.312 C  
BRANCH   7   8
HETATM    8  C   UNL     1     -12.131  14.013  66.368  1.00  0.00    -0.455 C  
HETATM    9  H   UNL     1     -13.724  13.202  65.528  1.00  0.00     0.000 HD 
HETATM   10  O   UNL     1     -12.924  13.627  65.242  1.00  0.00    -0.719 OA 
BRANCH   8  11
HETATM   11  C   UNL     1     -11.760  12.786  67.221  1.00  0.00    -0.378 C  
BRANCH  11  12
HETATM   12  O   UNL     1     -11.077  13.198  68.406  1.00  0.00    -0.242 OA 
BRANCH  12  13
HETATM   13  C   UNL     1     -11.733  13.174  69.611  1.00  0.00    -0.303 A  
HETATM   14  C   UNL     1     -12.210  14.450  69.968  1.00  0.00    -0.408 A  
HETATM   15  C   UNL     1     -13.005  14.645  71.097  1.00  0.00    -0.415 A  
HETATM   16  C   UNL     1     -13.381  13.550  71.862  1.00  0.00    -0.529 A  
HETATM   17  C   UNL     1     -12.939  12.275  71.509  1.00  0.00    -0.289 A  
HETATM   18  C   UNL     1     -12.074  12.062  70.410  1.00  0.00    -0.407 A  
HETATM   19  C   UNL     1     -11.710  10.636  70.094  1.00  0.00    -0.417 C  
HETATM   20  C   UNL     1     -11.860   9.663  71.251  1.00  0.00    -0.460 C  
HETATM   21  C   UNL     1     -13.109   9.888  72.041  1.00  0.00    -0.448 C  
HETATM   22  N   UNL     1     -13.463  11.196  72.229  1.00  0.00    -0.527 N  
HETATM   23  O   UNL     1     -13.714   8.975  72.597  1.00  0.00    -0.470 OA 
HETATM   24  H   UNL     1     -14.159  11.399  72.947  1.00  0.00     0.000 HD 
ENDBRANCH  12  13
ENDBRANCH  11  12
ENDBRANCH   8  11
ENDBRANCH   7   8
ENDBRANCH   5   7
TORSDOF 5
ENDMDL
MODEL        9
REMARK 921   NORMALIZED FREE ENERGY PREDICTED BY IDOCK:   -6.39 KCAL/MOL
REMARK 922        TOTAL FREE ENERGY PREDICTED BY IDOCK:   -8.88 KCAL/MOL
REMARK 923 INTER-LIGAND FREE ENERGY PREDICTED BY IDOCK:   -8.04 KCAL/MOL
REMARK 924 INTRA-LIGAND FREE ENERGY PREDICTED BY IDOCK:   -0.84 KCAL/MOL
REMARK 927      BINDING AFFINITY PREDICTED BY RF-SCORE:    0.00 PKD
ROOT
HETATM    1  C   UNL     1      -9.989  10.433  64.217  1.00  0.00    -0.368 C  
HETATM    2  C   UNL     1      -9.613  10.680  65.689  1.00  0.00    -0.218 C  
HETATM    3  C   UNL     1      -8.078  10.646  65.807  1.00  0.00    -0.158 C  
HETATM    4  C   UNL     1     -10.185   9.555  66.570  1.00  0.00    -0.307 C  
HETATM    5  N   UNL     1     -10.057  12.006  66.163  1.00  0.00    -0.220 NA 
HETATM    6  H   UNL     1      -9.542  12.746  65.685  1.00  0.00     0.000 HD 
ENDROOT
BRANCH   5   7
HETATM    7  C   UNL     1     -11.501  12.239  66.054  1.00  0.00    -0.381 C  
BRANCH   7   8
HETATM    8  C   UNL     1     -11.865  13.739  66.011  1.00  0.00    -0.390 C  
HETATM    9  H   UNL     1     -13.288  14.865  65.233  1.00  0.00     0.000 HD 
HETATM   10  O   UNL     1     -13.065  13.943  65.259  1.00  0.00    -0.777 OA 
BRANCH   8  11
HETATM   11  C   UNL     1     -12.032  14.249  67.454  1.00  0.00    -0.391 C  
BRANCH  11  12
HETATM   12  O   UNL     1     -11.445  13.326  68.373  1.00  0.00    -0.271 OA 
BRANCH  12  13
HETATM   13  C   UNL     1     -11.982  13.180  69.627  1.00  0.00    -0.306 A  
HETATM   14  C   UNL     1     -12.499  14.395  70.115  1.00  0.00    -0.395 A  
HETATM   15  C   UNL     1     -13.196  14.463  71.321  1.00  0.00    -0.416 A  
HETATM   16  C   UNL     1     -13.433  13.298  72.037  1.00  0.00    -0.596 A  
HETATM   17  C   UNL     1     -12.951  12.081  71.555  1.00  0.00    -0.304 A  
HETATM   18  C   UNL     1     -12.181  11.998  70.372  1.00  0.00    -0.379 A  
HETATM   19  C   UNL     1     -11.764  10.623  69.923  1.00  0.00    -0.395 C  
HETATM   20  C   UNL     1     -11.747   9.569  71.017  1.00  0.00    -0.419 C  
HETATM   21  C   UNL     1     -12.928   9.658  71.929  1.00  0.00    -0.435 C  
HETATM   22  N   UNL     1     -13.340  10.925  72.241  1.00  0.00    -0.563 N  
HETATM   23  O   UNL     1     -13.424   8.673  72.470  1.00  0.00    -0.351 OA 
HETATM   24  H   UNL     1     -13.977  11.034  73.030  1.00  0.00     0.000 HD 
ENDBRANCH  12  13
ENDBRANCH  11  12
ENDBRANCH   8  11
ENDBRANCH   7   8
ENDBRANCH   5   7
TORSDOF 5
ENDMDL
MODEL       10
REMARK 921   NORMALIZED FREE ENERGY PREDICTED BY IDOCK:   -6.38 KCAL/MOL
REMARK 922        TOTAL FREE ENERGY PREDICTED BY IDOCK:   -8.87 KCAL/MOL
REMARK 923 INTER-LIGAND FREE ENERGY PREDICTED BY IDOCK:   -7.76 KCAL/MOL
REMARK 924 INTRA-LIGAND FREE ENERGY PREDICTED BY IDOCK:   -1.11 KCAL/MOL
REMARK 927      BINDING AFFINITY PREDICTED BY RF-SCORE:    0.00 PKD
ROOT
HETATM    1  C   UNL     1      -9.032  10.307  65.124  1.00  0.00    -0.220 C  
HETATM    2  C   UNL     1      -9.560  11.583  65.805  1.00  0.00    -0.235 C  
HETATM    3  C   UNL     1      -8.454  12.131  66.726  1.00  0.00    -0.138 C  
HETATM    4  C   UNL     1     -10.783  11.242  66.677  1.00  0.00    -0.321 C  
HETATM    5  N   UNL     1      -9.881  12.644  64.829  1.00  0.00    -0.505 NA 
HETATM    6  H   UNL     1      -9.031  12.981  64.378  1.00  0.00     0.000 HD 
ENDROOT
BRANCH   5   7
HETATM    7  C   UNL     1     -10.877  12.263  63.822  1.00  0.00    -0.442 C  
BRANCH   7   8
HETATM    8  C   UNL     1     -12.131  13.163  63.849  1.00  0.00    -0.470 C  
HETATM    9  H   UNL     1     -13.993  13.039  64.497  1.00  0.00     0.000 HD 
HETATM   10  O   UNL     1     -13.221  12.485  64.481  1.00  0.00    -0.832 OA 
BRANCH   8  11
HETATM   11  C   UNL     1     -11.790  14.464  64.598  1.00  0.00    -0.451 C  
BRANCH  11  12
HETATM   12  O   UNL     1     -12.003  14.295  66.000  1.00  0.00    -0.385 OA 
BRANCH  12  13
HETATM   13  C   UNL     1     -11.386  15.140  66.888  1.00  0.00    -0.264 A  
HETATM   14  C   UNL     1     -10.635  16.130  66.226  1.00  0.00    -0.276 A  
HETATM   15  C   UNL     1     -10.014  17.167  66.923  1.00  0.00    -0.288 A  
HETATM   16  C   UNL     1     -10.182  17.259  68.297  1.00  0.00    -0.348 A  
HETATM   17  C   UNL     1     -10.946  16.302  68.967  1.00  0.00    -0.325 A  
HETATM   18  C   UNL     1     -11.524  15.203  68.291  1.00  0.00    -0.350 A  
HETATM   19  C   UNL     1     -12.372  14.267  69.111  1.00  0.00    -0.165 C  
HETATM   20  C   UNL     1     -12.092  14.288  70.604  1.00  0.00    -0.417 C  
HETATM   21  C   UNL     1     -11.892  15.670  71.138  1.00  0.00    -0.408 C  
HETATM   22  N   UNL     1     -11.198  16.524  70.325  1.00  0.00    -0.469 N  
HETATM   23  O   UNL     1     -12.211  15.992  72.279  1.00  0.00    -0.447 OA 
HETATM   24  H   UNL     1     -10.839  17.385  70.739  1.00  0.00     0.000 HD 
ENDBRANCH  12  13
ENDBRANCH  11  12
ENDBRANCH   8  11
ENDBRANCH   7   8
ENDBRANCH   5   7
TORSDOF 5
ENDMDL
MODEL       11
REMARK 921   NORMALIZED FREE ENERGY PREDICTED BY IDOCK:   -6.37 KCAL/MOL
REMARK 922        TOTAL FREE ENERGY PREDICTED BY IDOCK:   -8.86 KCAL/MOL
REMARK 923 INTER-LIGAND FREE ENERGY PREDICTED BY IDOCK:   -8.24 KCAL/MOL
REMARK 924 INTRA-LIGAND FREE ENERGY PREDICTED BY IDOCK:   -0.62 KCAL/MOL
REMARK 927      BINDING AFFINITY PREDICTED BY RF-SCORE:    0.00 PKD
ROOT
HETATM    1  C   UNL     1      -8.253  18.483  66.997  1.00  0.00    -0.252 C  
HETATM    2  C   UNL     1      -9.747  18.801  66.806  1.00  0.00    -0.329 C  
HETATM    3  C   UNL     1      -9.887  20.309  66.527  1.00  0.00    -0.531 C  
HETATM    4  C   UNL     1     -10.519  18.480  68.100  1.00  0.00    -0.361 C  
HETATM    5  N   UNL     1     -10.326  18.088  65.650  1.00  0.00    -0.615 NA 
HETATM    6  H   UNL     1      -9.922  18.435  64.780  1.00  0.00     0.000 HD 
ENDROOT
BRANCH   5   7
HETATM    7  C   UNL     1     -10.213  16.626  65.717  1.00  0.00    -0.307 C  
BRANCH   7   8
HETATM    8  C   UNL     1     -11.387  15.902  65.023  1.00  0.00    -0.193 C  
HETATM    9  H   UNL     1     -12.372  16.040  63.317  1.00  0.00     0.000 HD 
HETATM   10  O   UNL     1     -11.650  16.486  63.744  1.00  0.00    -1.109 OA 
BRANCH   8  11
HETATM   11  C   UNL     1     -11.032  14.411  64.880  1.00  0.00    -0.406 C  
BRANCH  11  12
HETATM   12  O   UNL     1     -10.281  13.973  66.014  1.00  0.00    -0.285 OA 
BRANCH  12  13
HETATM   13  C   UNL     1     -10.904  13.262  67.009  1.00  0.00    -0.269 A  
HETATM   14  C   UNL     1     -10.926  11.883  66.724  1.00  0.00    -0.337 A  
HETATM   15  C   UNL     1     -11.406  10.953  67.646  1.00  0.00    -0.345 A  
HETATM   16  C   UNL     1     -11.826  11.386  68.895  1.00  0.00    -0.413 A  
HETATM   17  C   UNL     1     -11.786  12.747  69.204  1.00  0.00    -0.322 A  
HETATM   18  C   UNL     1     -11.370  13.715  68.261  1.00  0.00    -0.322 A  
HETATM   19  C   UNL     1     -11.317  15.145  68.729  1.00  0.00    -0.313 C  
HETATM   20  C   UNL     1     -12.188  15.459  69.933  1.00  0.00    -0.363 C  
HETATM   21  C   UNL     1     -12.132  14.397  70.984  1.00  0.00    -0.349 C  
HETATM   22  N   UNL     1     -12.085  13.110  70.522  1.00  0.00    -0.489 N  
HETATM   23  O   UNL     1     -12.248  14.643  72.181  1.00  0.00    -0.330 OA 
HETATM   24  H   UNL     1     -12.282  12.361  71.187  1.00  0.00     0.000 HD 
ENDBRANCH  12  13
ENDBRANCH  11  12
ENDBRANCH   8  11
ENDBRANCH   7   8
ENDBRANCH   5   7
TORSDOF 5
ENDMDL
MODEL       12
REMARK 921   NORMALIZED FREE ENERGY PREDICTED BY IDOCK:   -6.36 KCAL/MOL
REMARK 922        TOTAL FREE ENERGY PREDICTED BY IDOCK:   -8.85 KCAL/MOL
REMARK 923 INTER-LIGAND FREE ENERGY PREDICTED BY IDOCK:   -8.14 KCAL/MOL
REMARK 924 INTRA-LIGAND FREE ENERGY PREDICTED BY IDOCK:   -0.71 KCAL/MOL
REMARK 927      BINDING AFFINITY PREDICTED BY RF-SCORE:    0.00 PKD
ROOT
HETATM    1  C   UNL     1     -12.168  13.869  66.205  1.00  0.00    -0.498 C  
HETATM    2  C   UNL     1     -11.230  14.009  64.993  1.00  0.00    -0.352 C  
HETATM    3  C   UNL     1     -10.856  15.495  64.843  1.00  0.00    -0.447 C  
HETATM    4  C   UNL     1     -11.963  13.569  63.712  1.00  0.00    -0.475 C  
HETATM    5  N   UNL     1      -9.971  13.258  65.171  1.00  0.00    -0.518 NA 
HETATM    6  H   UNL     1      -9.414  13.670  65.920  1.00  0.00     0.000 HD 
ENDROOT
BRANCH   5   7
HETATM    7  C   UNL     1     -10.148  11.820  65.401  1.00  0.00    -0.254 C  
BRANCH   7   8
HETATM    8  C   UNL     1      -9.483  11.335  66.707  1.00  0.00    -0.179 C  
HETATM    9  H   UNL     1      -8.199  12.040  68.030  1.00  0.00     0.000 HD 
HETATM   10  O   UNL     1      -8.607  12.339  67.227  1.00  0.00    -0.167 OA 
BRANCH   8  11
HETATM   11  C   UNL     1     -10.587  10.993  67.725  1.00  0.00    -0.211 C  
BRANCH  11  12
HETATM   12  O   UNL     1     -10.606  11.962  68.774  1.00  0.00    -0.216 OA 
BRANCH  12  13
HETATM   13  C   UNL     1     -11.556  11.878  69.760  1.00  0.00    -0.286 A  
HETATM   14  C   UNL     1     -11.790  10.544  70.144  1.00  0.00    -0.404 A  
HETATM   15  C   UNL     1     -12.632  10.224  71.209  1.00  0.00    -0.522 A  
HETATM   16  C   UNL     1     -13.216  11.245  71.945  1.00  0.00    -0.491 A  
HETATM   17  C   UNL     1     -12.975  12.575  71.595  1.00  0.00    -0.302 A  
HETATM   18  C   UNL     1     -12.182  12.920  70.476  1.00  0.00    -0.395 A  
HETATM   19  C   UNL     1     -11.949  14.388  70.233  1.00  0.00    -0.388 C  
HETATM   20  C   UNL     1     -12.978  15.314  70.856  1.00  0.00    -0.522 C  
HETATM   21  C   UNL     1     -13.361  14.907  72.244  1.00  0.00    -0.390 C  
HETATM   22  N   UNL     1     -13.472  13.560  72.455  1.00  0.00    -0.573 N  
HETATM   23  O   UNL     1     -13.682  15.719  73.107  1.00  0.00    -0.549 OA 
HETATM   24  H   UNL     1     -13.952  13.252  73.301  1.00  0.00     0.000 HD 
ENDBRANCH  12  13
ENDBRANCH  11  12
ENDBRANCH   8  11
ENDBRANCH   7   8
ENDBRANCH   5   7
TORSDOF 5
ENDMDL
MODEL       13
REMARK 921   NORMALIZED FREE ENERGY PREDICTED BY IDOCK:   -6.33 KCAL/MOL
REMARK 922        TOTAL FREE ENERGY PREDICTED BY IDOCK:   -8.81 KCAL/MOL
REMARK 923 INTER-LIGAND FREE ENERGY PREDICTED BY IDOCK:   -7.79 KCAL/MOL
REMARK 924 INTRA-LIGAND FREE ENERGY PREDICTED BY IDOCK:   -1.02 KCAL/MOL
REMARK 927      BINDING AFFINITY PREDICTED BY RF-SCORE:    0.00 PKD
ROOT
HETATM    1  C   UNL     1      -8.804  11.506  66.092  1.00  0.00    -0.167 C  
HETATM    2  C   UNL     1     -10.028  10.878  65.404  1.00  0.00    -0.263 C  
HETATM    3  C   UNL     1     -10.552   9.739  66.298  1.00  0.00    -0.070 C  
HETATM    4  C   UNL     1      -9.612  10.270  64.051  1.00  0.00    -0.365 C  
HETATM    5  N   UNL     1     -11.132  11.844  65.237  1.00  0.00    -0.306 NA 
HETATM    6  H   UNL     1     -11.512  12.110  66.145  1.00  0.00     0.000 HD 
ENDROOT
BRANCH   5   7
HETATM    7  C   UNL     1     -10.782  13.040  64.461  1.00  0.00    -0.385 C  
BRANCH   7   8
HETATM    8  C   UNL     1     -11.493  14.313  64.970  1.00  0.00    -0.364 C  
HETATM    9  H   UNL     1     -12.897  15.545  64.329  1.00  0.00     0.000 HD 
HETATM   10  O   UNL     1     -12.460  14.762  64.016  1.00  0.00    -0.803 OA 
BRANCH   8  11
HETATM   11  C   UNL     1     -12.162  13.999  66.320  1.00  0.00    -0.462 C  
BRANCH  11  12
HETATM   12  O   UNL     1     -11.171  13.862  67.340  1.00  0.00    -0.293 OA 
BRANCH  12  13
HETATM   13  C   UNL     1     -11.538  13.945  68.660  1.00  0.00    -0.328 A  
HETATM   14  C   UNL     1     -11.702  15.282  69.070  1.00  0.00    -0.368 A  
HETATM   15  C   UNL     1     -12.183  15.605  70.339  1.00  0.00    -0.429 A  
HETATM   16  C   UNL     1     -12.559  14.588  71.204  1.00  0.00    -0.406 A  
HETATM   17  C   UNL     1     -12.428  13.257  70.804  1.00  0.00    -0.324 A  
HETATM   18  C   UNL     1     -11.876  12.905  69.551  1.00  0.00    -0.383 A  
HETATM   19  C   UNL     1     -11.837  11.439  69.210  1.00  0.00    -0.417 C  
HETATM   20  C   UNL     1     -11.888  10.500  70.404  1.00  0.00    -0.431 C  
HETATM   21  C   UNL     1     -12.875  10.932  71.441  1.00  0.00    -0.449 C  
HETATM   22  N   UNL     1     -12.953  12.281  71.658  1.00  0.00    -0.367 N  
HETATM   23  O   UNL     1     -13.487  10.134  72.145  1.00  0.00    -0.411 OA 
HETATM   24  H   UNL     1     -13.428  12.597  72.503  1.00  0.00     0.000 HD 
ENDBRANCH  12  13
ENDBRANCH  11  12
ENDBRANCH   8  11
ENDBRANCH   7   8
ENDBRANCH   5   7
TORSDOF 5
ENDMDL
MODEL       14
REMARK 921   NORMALIZED FREE ENERGY PREDICTED BY IDOCK:   -6.30 KCAL/MOL
REMARK 922        TOTAL FREE ENERGY PREDICTED BY IDOCK:   -8.78 KCAL/MOL
REMARK 923 INTER-LIGAND FREE ENERGY PREDICTED BY IDOCK:   -8.07 KCAL/MOL
REMARK 924 INTRA-LIGAND FREE ENERGY PREDICTED BY IDOCK:   -0.71 KCAL/MOL
REMARK 927      BINDING AFFINITY PREDICTED BY RF-SCORE:    0.00 PKD
ROOT
HETATM    1  C   UNL     1     -13.236   9.670  72.115  1.00  0.00    -0.535 C  
HETATM    2  C   UNL     1     -12.383   8.506  71.579  1.00  0.00    -0.314 C  
HETATM    3  C   UNL     1     -13.296   7.278  71.409  1.00  0.00    -0.399 C  
HETATM    4  C   UNL     1     -11.286   8.149  72.599  1.00  0.00    -0.447 C  
HETATM    5  N   UNL     1     -11.802   8.804  70.254  1.00  0.00    -0.466 NA 
HETATM    6  H   UNL     1     -12.538   8.871  69.550  1.00  0.00     0.000 HD 
ENDROOT
BRANCH   5   7
HETATM    7  C   UNL     1     -10.952  10.000  70.217  1.00  0.00    -0.316 C  
BRANCH   7   8
HETATM    8  C   UNL     1     -10.321  10.244  68.830  1.00  0.00    -0.195 C  
HETATM    9  H   UNL     1      -9.740   9.156  67.288  1.00  0.00     0.000 HD 
HETATM   10  O   UNL     1     -10.128   9.005  68.142  1.00  0.00    -0.175 OA 
BRANCH   8  11
HETATM   11  C   UNL     1     -11.244  11.177  68.025  1.00  0.00    -0.296 C  
BRANCH  11  12
HETATM   12  O   UNL     1     -12.162  11.835  68.899  1.00  0.00    -0.330 OA 
BRANCH  12  13
HETATM   13  C   UNL     1     -11.998  13.169  69.179  1.00  0.00    -0.281 A  
HETATM   14  C   UNL     1     -11.481  13.871  68.073  1.00  0.00    -0.339 A  
HETATM   15  C   UNL     1     -11.338  15.258  68.088  1.00  0.00    -0.346 A  
HETATM   16  C   UNL     1     -11.763  15.974  69.198  1.00  0.00    -0.310 A  
HETATM   17  C   UNL     1     -12.302  15.298  70.293  1.00  0.00    -0.366 A  
HETATM   18  C   UNL     1     -12.390  13.886  70.328  1.00  0.00    -0.413 A  
HETATM   19  C   UNL     1     -13.041  13.274  71.540  1.00  0.00    -0.414 C  
HETATM   20  C   UNL     1     -13.045  14.152  72.780  1.00  0.00    -0.573 C  
HETATM   21  C   UNL     1     -13.373  15.580  72.479  1.00  0.00    -0.497 C  
HETATM   22  N   UNL     1     -12.843  16.078  71.321  1.00  0.00    -0.544 N  
HETATM   23  O   UNL     1     -13.969  16.303  73.273  1.00  0.00    -0.511 OA 
HETATM   24  H   UNL     1     -12.841  17.090  71.198  1.00  0.00     0.000 HD 
ENDBRANCH  12  13
ENDBRANCH  11  12
ENDBRANCH   8  11
ENDBRANCH   7   8
ENDBRANCH   5   7
TORSDOF 5
ENDMDL
MODEL       15
REMARK 921   NORMALIZED FREE ENERGY PREDICTED BY IDOCK:   -6.27 KCAL/MOL
REMARK 922        TOTAL FREE ENERGY PREDICTED BY IDOCK:   -8.73 KCAL/MOL
REMARK 923 INTER-LIGAND FREE ENERGY PREDICTED BY IDOCK:   -8.03 KCAL/MOL
REMARK 924 INTRA-LIGAND FREE ENERGY PREDICTED BY IDOCK:   -0.69 KCAL/MOL
REMARK 927      BINDING AFFINITY PREDICTED BY RF-SCORE:    0.00 PKD
ROOT
HETATM    1  C   UNL     1     -13.257   9.661  72.082  1.00  0.00    -0.535 C  
HETATM    2  C   UNL     1     -12.358   8.542  71.526  1.00  0.00    -0.314 C  
HETATM    3  C   UNL     1     -13.237   7.307  71.256  1.00  0.00    -0.352 C  
HETATM    4  C   UNL     1     -11.298   8.155  72.575  1.00  0.00    -0.469 C  
HETATM    5  N   UNL     1     -11.728   8.917  70.245  1.00  0.00    -0.465 NA 
HETATM    6  H   UNL     1     -12.434   9.006  69.514  1.00  0.00     0.000 HD 
ENDROOT
BRANCH   5   7
HETATM    7  C   UNL     1     -10.901  10.128  70.305  1.00  0.00    -0.310 C  
BRANCH   7   8
HETATM    8  C   UNL     1      -9.563   9.978  69.550  1.00  0.00    -0.230 C  
HETATM    9  H   UNL     1      -7.843   9.046  69.817  1.00  0.00     0.000 HD 
HETATM   10  O   UNL     1      -8.666   9.138  70.282  1.00  0.00    -0.160 OA 
BRANCH   8  11
HETATM   11  C   UNL     1      -9.845   9.391  68.155  1.00  0.00    -0.160 C  
BRANCH  11  12
HETATM   12  O   UNL     1     -10.870  10.142  67.503  1.00  0.00    -0.281 OA 
BRANCH  12  13
HETATM   13  C   UNL     1     -10.614  10.735  66.292  1.00  0.00    -0.192 A  
HETATM   14  C   UNL     1      -9.893   9.878  65.438  1.00  0.00    -0.384 A  
HETATM   15  C   UNL     1      -9.619  10.224  64.115  1.00  0.00    -0.376 A  
HETATM   16  C   UNL     1     -10.111  11.418  63.608  1.00  0.00    -0.421 A  
HETATM   17  C   UNL     1     -10.850  12.267  64.432  1.00  0.00    -0.329 A  
HETATM   18  C   UNL     1     -11.079  11.970  65.796  1.00  0.00    -0.371 A  
HETATM   19  C   UNL     1     -11.937  12.936  66.569  1.00  0.00    -0.447 C  
HETATM   20  C   UNL     1     -12.015  14.336  65.986  1.00  0.00    -0.412 C  
HETATM   21  C   UNL     1     -12.161  14.338  64.497  1.00  0.00    -0.480 C  
HETATM   22  N   UNL     1     -11.440  13.385  63.831  1.00  0.00    -0.582 N  
HETATM   23  O   UNL     1     -12.780  15.209  63.893  1.00  0.00    -0.759 OA 
HETATM   24  H   UNL     1     -11.324  13.497  62.824  1.00  0.00     0.000 HD 
ENDBRANCH  12  13
ENDBRANCH  11  12
ENDBRANCH   8  11
ENDBRANCH   7   8
ENDBRANCH   5   7
TORSDOF 5
ENDMDL
MODEL       16
REMARK 921   NORMALIZED FREE ENERGY PREDICTED BY IDOCK:   -6.24 KCAL/MOL
REMARK 922        TOTAL FREE ENERGY PREDICTED BY IDOCK:   -8.69 KCAL/MOL
REMARK 923 INTER-LIGAND FREE ENERGY PREDICTED BY IDOCK:   -7.61 KCAL/MOL
REMARK 924 INTRA-LIGAND FREE ENERGY PREDICTED BY IDOCK:   -1.09 KCAL/MOL
REMARK 927      BINDING AFFINITY PREDICTED BY RF-SCORE:    0.00 PKD
ROOT
HETATM    1  C   UNL     1     -10.928  16.660  68.423  1.00  0.00    -0.345 C  
HETATM    2  C   UNL     1     -11.167  15.159  68.665  1.00  0.00    -0.286 C  
HETATM    3  C   UNL     1     -11.804  14.990  70.057  1.00  0.00    -0.360 C  
HETATM    4  C   UNL     1      -9.822  14.408  68.662  1.00  0.00    -0.231 C  
HETATM    5  N   UNL     1     -12.104  14.577  67.683  1.00  0.00    -0.588 NA 
HETATM    6  H   UNL     1     -13.039  14.964  67.812  1.00  0.00     0.000 HD 
ENDROOT
BRANCH   5   7
HETATM    7  C   UNL     1     -11.683  14.715  66.285  1.00  0.00    -0.320 C  
BRANCH   7   8
HETATM    8  C   UNL     1     -12.555  13.892  65.312  1.00  0.00    -0.478 C  
HETATM    9  H   UNL     1     -13.189  14.045  63.448  1.00  0.00     0.000 HD 
HETATM   10  O   UNL     1     -12.653  14.551  64.046  1.00  0.00    -0.797 OA 
BRANCH   8  11
HETATM   11  C   UNL     1     -11.933  12.493  65.153  1.00  0.00    -0.434 C  
BRANCH  11  12
HETATM   12  O   UNL     1     -10.980  12.257  66.191  1.00  0.00    -0.271 OA 
BRANCH  12  13
HETATM   13  C   UNL     1     -10.854  11.000  66.725  1.00  0.00    -0.251 A  
HETATM   14  C   UNL     1     -10.167  10.132  65.854  1.00  0.00    -0.281 A  
HETATM   15  C   UNL     1      -9.821   8.836  66.234  1.00  0.00    -0.342 A  
HETATM   16  C   UNL     1     -10.114   8.402  67.519  1.00  0.00    -0.279 A  
HETATM   17  C   UNL     1     -10.771   9.257  68.405  1.00  0.00    -0.145 A  
HETATM   18  C   UNL     1     -11.194  10.550  68.018  1.00  0.00    -0.361 A  
HETATM   19  C   UNL     1     -11.844  11.400  69.078  1.00  0.00    -0.415 C  
HETATM   20  C   UNL     1     -12.440  10.630  70.243  1.00  0.00    -0.381 C  
HETATM   21  C   UNL     1     -11.564   9.512  70.710  1.00  0.00    -0.308 C  
HETATM   22  N   UNL     1     -10.913   8.820  69.727  1.00  0.00    -0.373 N  
HETATM   23  O   UNL     1     -11.522   9.150  71.883  1.00  0.00    -0.360 OA 
HETATM   24  H   UNL     1     -10.501   7.920  69.974  1.00  0.00     0.000 HD 
ENDBRANCH  12  13
ENDBRANCH  11  12
ENDBRANCH   8  11
ENDBRANCH   7   8
ENDBRANCH   5   7
TORSDOF 5
ENDMDL
MODEL       17
REMARK 921   NORMALIZED FREE ENERGY PREDICTED BY IDOCK:   -6.23 KCAL/MOL
REMARK 922        TOTAL FREE ENERGY PREDICTED BY IDOCK:   -8.68 KCAL/MOL
REMARK 923 INTER-LIGAND FREE ENERGY PREDICTED BY IDOCK:   -7.96 KCAL/MOL
REMARK 924 INTRA-LIGAND FREE ENERGY PREDICTED BY IDOCK:   -0.72 KCAL/MOL
REMARK 927      BINDING AFFINITY PREDICTED BY RF-SCORE:    0.00 PKD
ROOT
HETATM    1  C   UNL     1     -10.290  11.093  63.678  1.00  0.00    -0.449 C  
HETATM    2  C   UNL     1     -11.202  12.092  64.412  1.00  0.00    -0.341 C  
HETATM    3  C   UNL     1     -12.468  12.305  63.562  1.00  0.00    -0.642 C  
HETATM    4  C   UNL     1     -10.486  13.449  64.550  1.00  0.00    -0.431 C  
HETATM    5  N   UNL     1     -11.640  11.585  65.728  1.00  0.00    -0.208 NA 
HETATM    6  H   UNL     1     -12.257  10.781  65.611  1.00  0.00     0.000 HD 
ENDROOT
BRANCH   5   7
HETATM    7  C   UNL     1     -10.546  11.259  66.650  1.00  0.00    -0.262 C  
BRANCH   7   8
HETATM    8  C   UNL     1     -10.985  10.315  67.790  1.00  0.00    -0.300 C  
HETATM    9  H   UNL     1     -10.203   8.822  68.819  1.00  0.00     0.000 HD 
HETATM   10  O   UNL     1      -9.932   9.403  68.118  1.00  0.00    -0.162 OA 
BRANCH   8  11
HETATM   11  C   UNL     1     -11.372  11.165  69.014  1.00  0.00    -0.276 C  
BRANCH  11  12
HETATM   12  O   UNL     1     -12.137  12.299  68.603  1.00  0.00    -0.272 OA 
BRANCH  12  13
HETATM   13  C   UNL     1     -11.844  13.538  69.114  1.00  0.00    -0.340 A  
HETATM   14  C   UNL     1     -11.115  14.319  68.197  1.00  0.00    -0.275 A  
HETATM   15  C   UNL     1     -10.805  15.654  68.455  1.00  0.00    -0.290 A  
HETATM   16  C   UNL     1     -11.268  16.247  69.620  1.00  0.00    -0.311 A  
HETATM   17  C   UNL     1     -12.015  15.497  70.529  1.00  0.00    -0.371 A  
HETATM   18  C   UNL     1     -12.280  14.123  70.322  1.00  0.00    -0.416 A  
HETATM   19  C   UNL     1     -13.143  13.433  71.345  1.00  0.00    -0.373 C  
HETATM   20  C   UNL     1     -13.188  14.106  72.706  1.00  0.00    -0.604 C  
HETATM   21  C   UNL     1     -13.298  15.595  72.615  1.00  0.00    -0.536 C  
HETATM   22  N   UNL     1     -12.575  16.181  71.613  1.00  0.00    -0.540 N  
HETATM   23  O   UNL     1     -13.892  16.267  73.454  1.00  0.00    -0.562 OA 
HETATM   24  H   UNL     1     -12.433  17.190  71.660  1.00  0.00     0.000 HD 
ENDBRANCH  12  13
ENDBRANCH  11  12
ENDBRANCH   8  11
ENDBRANCH   7   8
ENDBRANCH   5   7
TORSDOF 5
ENDMDL
MODEL       18
REMARK 921   NORMALIZED FREE ENERGY PREDICTED BY IDOCK:   -6.21 KCAL/MOL
REMARK 922        TOTAL FREE ENERGY PREDICTED BY IDOCK:   -8.65 KCAL/MOL
REMARK 923 INTER-LIGAND FREE ENERGY PREDICTED BY IDOCK:   -7.69 KCAL/MOL
REMARK 924 INTRA-LIGAND FREE ENERGY PREDICTED BY IDOCK:   -0.96 KCAL/MOL
REMARK 927      BINDING AFFINITY PREDICTED BY RF-SCORE:    0.00 PKD
ROOT
HETATM    1  C   UNL     1      -8.988  11.696  66.395  1.00  0.00    -0.198 C  
HETATM    2  C   UNL     1      -9.745  10.637  65.574  1.00  0.00    -0.237 C  
HETATM    3  C   UNL     1     -10.274   9.563  66.543  1.00  0.00    -0.307 C  
HETATM    4  C   UNL     1      -8.781   9.955  64.585  1.00  0.00    -0.215 C  
HETATM    5  N   UNL     1     -10.914  11.205  64.872  1.00  0.00    -0.185 NA 
HETATM    6  H   UNL     1     -11.623  11.500  65.544  1.00  0.00     0.000 HD 
ENDROOT
BRANCH   5   7
HETATM    7  C   UNL     1     -10.597  12.302  63.951  1.00  0.00    -0.427 C  
BRANCH   7   8
HETATM    8  C   UNL     1     -11.850  13.069  63.478  1.00  0.00    -0.516 C  
HETATM    9  H   UNL     1     -13.768  12.686  63.201  1.00  0.00     0.000 HD 
HETATM   10  O   UNL     1     -12.997  12.214  63.492  1.00  0.00    -0.794 OA 
BRANCH   8  11
HETATM   11  C   UNL     1     -12.064  14.284  64.400  1.00  0.00    -0.468 C  
BRANCH  11  12
HETATM   12  O   UNL     1     -11.725  13.945  65.746  1.00  0.00    -0.336 OA 
BRANCH  12  13
HETATM   13  C   UNL     1     -11.150  14.888  66.560  1.00  0.00    -0.341 A  
HETATM   14  C   UNL     1     -10.430  15.845  65.819  1.00  0.00    -0.386 A  
HETATM   15  C   UNL     1      -9.858  16.963  66.426  1.00  0.00    -0.319 A  
HETATM   16  C   UNL     1     -10.043  17.169  67.785  1.00  0.00    -0.306 A  
HETATM   17  C   UNL     1     -10.777  16.245  68.531  1.00  0.00    -0.307 A  
HETATM   18  C   UNL     1     -11.305  15.069  67.951  1.00  0.00    -0.344 A  
HETATM   19  C   UNL     1     -12.125  14.176  68.845  1.00  0.00    -0.339 C  
HETATM   20  C   UNL     1     -11.862  14.339  70.331  1.00  0.00    -0.375 C  
HETATM   21  C   UNL     1     -11.720  15.770  70.743  1.00  0.00    -0.399 C  
HETATM   22  N   UNL     1     -11.052  16.576  69.863  1.00  0.00    -0.414 N  
HETATM   23  O   UNL     1     -12.064  16.178  71.849  1.00  0.00    -0.476 OA 
HETATM   24  H   UNL     1     -10.730  17.483  70.201  1.00  0.00     0.000 HD 
ENDBRANCH  12  13
ENDBRANCH  11  12
ENDBRANCH   8  11
ENDBRANCH   7   8
ENDBRANCH   5   7
TORSDOF 5
ENDMDL
MODEL       19
REMARK 921   NORMALIZED FREE ENERGY PREDICTED BY IDOCK:   -6.19 KCAL/MOL
REMARK 922        TOTAL FREE ENERGY PREDICTED BY IDOCK:   -8.63 KCAL/MOL
REMARK 923 INTER-LIGAND FREE ENERGY PREDICTED BY IDOCK:   -8.02 KCAL/MOL
REMARK 924 INTRA-LIGAND FREE ENERGY PREDICTED BY IDOCK:   -0.61 KCAL/MOL
REMARK 927      BINDING AFFINITY PREDICTED BY RF-SCORE:    0.00 PKD
ROOT
HETATM    1  C   UNL     1     -13.571   6.969  71.551  1.00  0.00    -0.355 C  
HETATM    2  C   UNL     1     -12.122   7.395  71.252  1.00  0.00    -0.328 C  
HETATM    3  C   UNL     1     -11.579   6.498  70.125  1.00  0.00    -0.466 C  
HETATM    4  C   UNL     1     -11.246   7.178  72.500  1.00  0.00    -0.327 C  
HETATM    5  N   UNL     1     -12.037   8.791  70.778  1.00  0.00    -0.474 NA 
HETATM    6  H   UNL     1     -12.479   8.883  69.863  1.00  0.00     0.000 HD 
ENDROOT
BRANCH   5   7
HETATM    7  C   UNL     1     -12.583   9.785  71.709  1.00  0.00    -0.416 C  
BRANCH   7   8
HETATM    8  C   UNL     1     -13.019  11.089  71.007  1.00  0.00    -0.276 C  
HETATM    9  H   UNL     1     -13.549  12.916  71.538  1.00  0.00     0.000 HD 
HETATM   10  O   UNL     1     -13.282  12.113  71.971  1.00  0.00    -0.499 OA 
BRANCH   8  11
HETATM   11  C   UNL     1     -11.904  11.524  70.038  1.00  0.00    -0.355 C  
BRANCH  11  12
HETATM   12  O   UNL     1     -12.254  11.176  68.698  1.00  0.00    -0.582 OA 
BRANCH  12  13
HETATM   13  C   UNL     1     -11.387  11.461  67.673  1.00  0.00    -0.290 A  
HETATM   14  C   UNL     1     -10.762  10.298  67.184  1.00  0.00    -0.303 A  
HETATM   15  C   UNL     1      -9.927  10.330  66.067  1.00  0.00    -0.308 A  
HETATM   16  C   UNL     1      -9.746  11.526  65.386  1.00  0.00    -0.262 A  
HETATM   17  C   UNL     1     -10.379  12.683  65.841  1.00  0.00    -0.276 A  
HETATM   18  C   UNL     1     -11.172  12.689  67.012  1.00  0.00    -0.348 A  
HETATM   19  C   UNL     1     -11.849  13.985  67.371  1.00  0.00    -0.445 C  
HETATM   20  C   UNL     1     -11.210  15.229  66.779  1.00  0.00    -0.241 C  
HETATM   21  C   UNL     1     -10.800  15.048  65.352  1.00  0.00    -0.364 C  
HETATM   22  N   UNL     1     -10.276  13.824  65.038  1.00  0.00    -0.515 N  
HETATM   23  O   UNL     1     -10.809  15.968  64.538  1.00  0.00    -0.588 OA 
HETATM   24  H   UNL     1      -9.774  13.737  64.154  1.00  0.00     0.000 HD 
ENDBRANCH  12  13
ENDBRANCH  11  12
ENDBRANCH   8  11
ENDBRANCH   7   8
ENDBRANCH   5   7
TORSDOF 5
ENDMDL
MODEL       20
REMARK 921   NORMALIZED FREE ENERGY PREDICTED BY IDOCK:   -6.17 KCAL/MOL
REMARK 922        TOTAL FREE ENERGY PREDICTED BY IDOCK:   -8.61 KCAL/MOL
REMARK 923 INTER-LIGAND FREE ENERGY PREDICTED BY IDOCK:   -7.61 KCAL/MOL
REMARK 924 INTRA-LIGAND FREE ENERGY PREDICTED BY IDOCK:   -1.00 KCAL/MOL
REMARK 927      BINDING AFFINITY PREDICTED BY RF-SCORE:    0.00 PKD
ROOT
HETATM    1  C   UNL     1     -10.553   9.323  67.388  1.00  0.00    -0.324 C  
HETATM    2  C   UNL     1     -10.860  10.757  67.857  1.00  0.00    -0.264 C  
HETATM    3  C   UNL     1     -11.278  11.587  66.630  1.00  0.00    -0.336 C  
HETATM    4  C   UNL     1      -9.592  11.394  68.456  1.00  0.00    -0.190 C  
HETATM    5  N   UNL     1     -11.982  10.802  68.817  1.00  0.00    -0.718 NA 
HETATM    6  H   UNL     1     -12.853  10.537  68.357  1.00  0.00     0.000 HD 
ENDROOT
BRANCH   5   7
HETATM    7  C   UNL     1     -11.780   9.998  70.028  1.00  0.00    -0.175 C  
BRANCH   7   8
HETATM    8  C   UNL     1     -12.991  10.040  70.984  1.00  0.00    -0.360 C  
HETATM    9  H   UNL     1     -13.701   8.958  72.475  1.00  0.00     0.000 HD 
HETATM   10  O   UNL     1     -12.955   8.931  71.887  1.00  0.00    -0.333 OA 
BRANCH   8  11
HETATM   11  C   UNL     1     -12.967  11.373  71.754  1.00  0.00    -0.414 C  
BRANCH  11  12
HETATM   12  O   UNL     1     -13.350  12.446  70.892  1.00  0.00     0.182 OA 
BRANCH  12  13
HETATM   13  C   UNL     1     -13.056  13.739  71.244  1.00  0.00    -0.297 A  
HETATM   14  C   UNL     1     -13.428  14.011  72.575  1.00  0.00    -0.661 A  
HETATM   15  C   UNL     1     -13.122  15.227  73.187  1.00  0.00    -0.627 A  
HETATM   16  C   UNL     1     -12.389  16.175  72.489  1.00  0.00    -0.564 A  
HETATM   17  C   UNL     1     -11.989  15.912  71.178  1.00  0.00    -0.427 A  
HETATM   18  C   UNL     1     -12.349  14.716  70.513  1.00  0.00    -0.400 A  
HETATM   19  C   UNL     1     -11.812  14.522  69.120  1.00  0.00    -0.354 C  
HETATM   20  C   UNL     1     -11.411  15.799  68.402  1.00  0.00    -0.372 C  
HETATM   21  C   UNL     1     -10.679  16.758  69.287  1.00  0.00    -0.324 C  
HETATM   22  N   UNL     1     -11.133  16.840  70.574  1.00  0.00    -0.340 N  
HETATM   23  O   UNL     1      -9.811  17.518  68.865  1.00  0.00    -0.308 OA 
HETATM   24  H   UNL     1     -10.826  17.635  71.135  1.00  0.00     0.000 HD 
ENDBRANCH  12  13
ENDBRANCH  11  12
ENDBRANCH   8  11
ENDBRANCH   7   8
ENDBRANCH   5   7
TORSDOF 5
ENDMDL
MODEL       21
REMARK 921   NORMALIZED FREE ENERGY PREDICTED BY IDOCK:   -6.15 KCAL/MOL
REMARK 922        TOTAL FREE ENERGY PREDICTED BY IDOCK:   -8.58 KCAL/MOL
REMARK 923 INTER-LIGAND FREE ENERGY PREDICTED BY IDOCK:   -7.91 KCAL/MOL
REMARK 924 INTRA-LIGAND FREE ENERGY PREDICTED BY IDOCK:   -0.67 KCAL/MOL
REMARK 927      BINDING AFFINITY PREDICTED BY RF-SCORE:    0.00 PKD
ROOT
HETATM    1  C   UNL     1     -10.813   6.667  69.379  1.00  0.00    -0.340 C  
HETATM    2  C   UNL     1     -10.407   8.055  68.852  1.00  0.00    -0.209 C  
HETATM    3  C   UNL     1     -10.658   8.087  67.333  1.00  0.00    -0.337 C  
HETATM    4  C   UNL     1      -8.903   8.286  69.093  1.00  0.00    -0.143 C  
HETATM    5  N   UNL     1     -11.215   9.137  69.451  1.00  0.00    -0.441 NA 
HETATM    6  H   UNL     1     -12.185   9.068  69.143  1.00  0.00     0.000 HD 
ENDROOT
BRANCH   5   7
HETATM    7  C   UNL     1     -11.148   9.208  70.915  1.00  0.00    -0.291 C  
BRANCH   7   8
HETATM    8  C   UNL     1     -12.535   9.092  71.584  1.00  0.00    -0.351 C  
HETATM    9  H   UNL     1     -13.301   8.253  73.199  1.00  0.00     0.000 HD 
HETATM   10  O   UNL     1     -12.447   8.324  72.788  1.00  0.00    -0.265 OA 
BRANCH   8  11
HETATM   11  C   UNL     1     -13.062  10.508  71.876  1.00  0.00    -0.462 C  
BRANCH  11  12
HETATM   12  O   UNL     1     -12.312  11.474  71.139  1.00  0.00    -0.346 OA 
BRANCH  12  13
HETATM   13  C   UNL     1     -12.739  12.778  71.096  1.00  0.00    -0.263 A  
HETATM   14  C   UNL     1     -13.541  13.099  72.208  1.00  0.00    -0.677 A  
HETATM   15  C   UNL     1     -13.993  14.399  72.434  1.00  0.00    -0.585 A  
HETATM   16  C   UNL     1     -13.603  15.415  71.574  1.00  0.00    -0.604 A  
HETATM   17  C   UNL     1     -12.787  15.120  70.481  1.00  0.00    -0.348 A  
HETATM   18  C   UNL     1     -12.376  13.798  70.191  1.00  0.00    -0.390 A  
HETATM   19  C   UNL     1     -11.451  13.613  69.017  1.00  0.00    -0.346 C  
HETATM   20  C   UNL     1     -11.488  14.730  67.989  1.00  0.00    -0.351 C  
HETATM   21  C   UNL     1     -11.536  16.090  68.609  1.00  0.00    -0.377 C  
HETATM   22  N   UNL     1     -12.311  16.201  69.731  1.00  0.00    -0.417 N  
HETATM   23  O   UNL     1     -11.023  17.075  68.085  1.00  0.00    -0.367 OA 
HETATM   24  H   UNL     1     -12.559  17.140  70.044  1.00  0.00     0.000 HD 
ENDBRANCH  12  13
ENDBRANCH  11  12
ENDBRANCH   8  11
ENDBRANCH   7   8
ENDBRANCH   5   7
TORSDOF 5
ENDMDL
MODEL       22
REMARK 921   NORMALIZED FREE ENERGY PREDICTED BY IDOCK:   -6.14 KCAL/MOL
REMARK 922        TOTAL FREE ENERGY PREDICTED BY IDOCK:   -8.57 KCAL/MOL
REMARK 923 INTER-LIGAND FREE ENERGY PREDICTED BY IDOCK:   -7.66 KCAL/MOL
REMARK 924 INTRA-LIGAND FREE ENERGY PREDICTED BY IDOCK:   -0.91 KCAL/MOL
REMARK 927      BINDING AFFINITY PREDICTED BY RF-SCORE:    0.00 PKD
ROOT
HETATM    1  C   UNL     1      -9.038  11.615  66.173  1.00  0.00    -0.209 C  
HETATM    2  C   UNL     1      -9.721  10.566  65.278  1.00  0.00    -0.270 C  
HETATM    3  C   UNL     1     -10.160   9.387  66.166  1.00  0.00    -0.324 C  
HETATM    4  C   UNL     1      -8.718  10.033  64.238  1.00  0.00    -0.222 C  
HETATM    5  N   UNL     1     -10.935  11.095  64.624  1.00  0.00    -0.234 NA 
HETATM    6  H   UNL     1     -11.658  11.285  65.318  1.00  0.00     0.000 HD 
ENDROOT
BRANCH   5   7
HETATM    7  C   UNL     1     -10.709  12.277  63.786  1.00  0.00    -0.449 C  
BRANCH   7   8
HETATM    8  C   UNL     1     -12.015  13.023  63.437  1.00  0.00    -0.520 C  
HETATM    9  H   UNL     1     -13.944  12.610  63.350  1.00  0.00     0.000 HD 
HETATM   10  O   UNL     1     -13.141  12.150  63.565  1.00  0.00    -0.785 OA 
BRANCH   8  11
HETATM   11  C   UNL     1     -12.156  14.237  64.375  1.00  0.00    -0.468 C  
BRANCH  11  12
HETATM   12  O   UNL     1     -11.070  14.271  65.302  1.00  0.00    -0.307 OA 
BRANCH  12  13
HETATM   13  C   UNL     1     -11.285  14.709  66.585  1.00  0.00    -0.349 A  
HETATM   14  C   UNL     1     -11.768  13.676  67.411  1.00  0.00    -0.416 A  
HETATM   15  C   UNL     1     -11.949  13.859  68.782  1.00  0.00    -0.393 A  
HETATM   16  C   UNL     1     -11.598  15.071  69.359  1.00  0.00    -0.337 A  
HETATM   17  C   UNL     1     -11.093  16.097  68.560  1.00  0.00    -0.357 A  
HETATM   18  C   UNL     1     -10.968  15.958  67.158  1.00  0.00    -0.214 A  
HETATM   19  C   UNL     1     -10.359  17.114  66.410  1.00  0.00    -0.307 C  
HETATM   20  C   UNL     1     -10.438  18.453  67.121  1.00  0.00    -0.434 C  
HETATM   21  C   UNL     1     -10.136  18.354  68.583  1.00  0.00    -0.377 C  
HETATM   22  N   UNL     1     -10.624  17.242  69.213  1.00  0.00    -0.367 N  
HETATM   23  O   UNL     1      -9.599  19.261  69.211  1.00  0.00    -0.317 OA 
HETATM   24  H   UNL     1     -10.648  17.248  70.233  1.00  0.00     0.000 HD 
ENDBRANCH  12  13
ENDBRANCH  11  12
ENDBRANCH   8  11
ENDBRANCH   7   8
ENDBRANCH   5   7
TORSDOF 5
ENDMDL
MODEL       23
REMARK 921   NORMALIZED FREE ENERGY PREDICTED BY IDOCK:   -6.11 KCAL/MOL
REMARK 922        TOTAL FREE ENERGY PREDICTED BY IDOCK:   -8.52 KCAL/MOL
REMARK 923 INTER-LIGAND FREE ENERGY PREDICTED BY IDOCK:   -8.22 KCAL/MOL
REMARK 924 INTRA-LIGAND FREE ENERGY PREDICTED BY IDOCK:   -0.30 KCAL/MOL
REMARK 927      BINDING AFFINITY PREDICTED BY RF-SCORE:    0.00 PKD
ROOT
HETATM    1  C   UNL     1     -12.932   9.540  72.120  1.00  0.00    -0.497 C  
HETATM    2  C   UNL     1     -12.138   8.328  71.602  1.00  0.00    -0.306 C  
HETATM    3  C   UNL     1     -13.070   7.102  71.607  1.00  0.00    -0.410 C  
HETATM    4  C   UNL     1     -10.958   8.034  72.548  1.00  0.00    -0.430 C  
HETATM    5  N   UNL     1     -11.673   8.517  70.213  1.00  0.00    -0.471 NA 
HETATM    6  H   UNL     1     -12.466   8.540  69.573  1.00  0.00     0.000 HD 
ENDROOT
BRANCH   5   7
HETATM    7  C   UNL     1     -10.821   9.694  70.012  1.00  0.00    -0.264 C  
BRANCH   7   8
HETATM    8  C   UNL     1     -11.027  10.354  68.631  1.00  0.00    -0.243 C  
HETATM    9  H   UNL     1     -12.488  11.256  67.657  1.00  0.00     0.000 HD 
HETATM   10  O   UNL     1     -12.362  10.850  68.507  1.00  0.00    -0.490 OA 
BRANCH   8  11
HETATM   11  C   UNL     1     -10.003  11.493  68.471  1.00  0.00    -0.204 C  
BRANCH  11  12
HETATM   12  O   UNL     1      -9.251  11.313  67.270  1.00  0.00    -0.163 OA 
BRANCH  12  13
HETATM   13  C   UNL     1      -9.723  11.826  66.088  1.00  0.00    -0.229 A  
HETATM   14  C   UNL     1     -10.155  10.808  65.216  1.00  0.00    -0.353 A  
HETATM   15  C   UNL     1     -10.778  11.099  64.003  1.00  0.00    -0.409 A  
HETATM   16  C   UNL     1     -11.029  12.421  63.666  1.00  0.00    -0.525 A  
HETATM   17  C   UNL     1     -10.632  13.442  64.530  1.00  0.00    -0.425 A  
HETATM   18  C   UNL     1      -9.935  13.174  65.731  1.00  0.00    -0.260 A  
HETATM   19  C   UNL     1      -9.609  14.354  66.608  1.00  0.00    -0.295 C  
HETATM   20  C   UNL     1      -9.579  15.695  65.896  1.00  0.00    -0.385 C  
HETATM   21  C   UNL     1     -10.702  15.861  64.921  1.00  0.00    -0.341 C  
HETATM   22  N   UNL     1     -11.036  14.743  64.208  1.00  0.00    -0.606 N  
HETATM   23  O   UNL     1     -11.212  16.951  64.678  1.00  0.00    -0.915 OA 
HETATM   24  H   UNL     1     -11.622  14.865  63.382  1.00  0.00     0.000 HD 
ENDBRANCH  12  13
ENDBRANCH  11  12
ENDBRANCH   8  11
ENDBRANCH   7   8
ENDBRANCH   5   7
TORSDOF 5
ENDMDL
MODEL       24
REMARK 921   NORMALIZED FREE ENERGY PREDICTED BY IDOCK:   -6.10 KCAL/MOL
REMARK 922        TOTAL FREE ENERGY PREDICTED BY IDOCK:   -8.51 KCAL/MOL
REMARK 923 INTER-LIGAND FREE ENERGY PREDICTED BY IDOCK:   -8.22 KCAL/MOL
REMARK 924 INTRA-LIGAND FREE ENERGY PREDICTED BY IDOCK:   -0.29 KCAL/MOL
REMARK 927      BINDING AFFINITY PREDICTED BY RF-SCORE:    0.00 PKD
ROOT
HETATM    1  C   UNL     1     -10.330   6.767  73.942  1.00  0.00    -0.397 C  
HETATM    2  C   UNL     1     -11.059   6.147  72.736  1.00  0.00    -0.259 C  
HETATM    3  C   UNL     1     -11.429   4.695  73.091  1.00  0.00    -0.317 C  
HETATM    4  C   UNL     1     -10.118   6.116  71.517  1.00  0.00    -0.227 C  
HETATM    5  N   UNL     1     -12.317   6.853  72.420  1.00  0.00    -0.512 NA 
HETATM    6  H   UNL     1     -12.996   6.721  73.170  1.00  0.00     0.000 HD 
ENDROOT
BRANCH   5   7
HETATM    7  C   UNL     1     -12.155   8.281  72.124  1.00  0.00    -0.367 C  
BRANCH   7   8
HETATM    8  C   UNL     1     -13.478   8.961  71.708  1.00  0.00    -0.397 C  
HETATM    9  H   UNL     1     -15.045   9.758  72.607  1.00  0.00     0.000 HD 
HETATM   10  O   UNL     1     -14.231   9.340  72.864  1.00  0.00    -0.465 OA 
BRANCH   8  11
HETATM   11  C   UNL     1     -13.150  10.190  70.842  1.00  0.00    -0.335 C  
BRANCH  11  12
HETATM   12  O   UNL     1     -12.617  11.237  71.654  1.00  0.00    -0.331 OA 
BRANCH  12  13
HETATM   13  C   UNL     1     -12.906  12.545  71.355  1.00  0.00    -0.260 A  
HETATM   14  C   UNL     1     -13.623  13.168  72.395  1.00  0.00    -0.667 A  
HETATM   15  C   UNL     1     -13.926  14.529  72.361  1.00  0.00    -0.580 A  
HETATM   16  C   UNL     1     -13.469  15.303  71.304  1.00  0.00    -0.591 A  
HETATM   17  C   UNL     1     -12.734  14.707  70.278  1.00  0.00    -0.273 A  
HETATM   18  C   UNL     1     -12.476  13.316  70.255  1.00  0.00    -0.255 A  
HETATM   19  C   UNL     1     -11.626  12.799  69.126  1.00  0.00    -0.373 C  
HETATM   20  C   UNL     1     -11.588  13.684  67.892  1.00  0.00    -0.376 C  
HETATM   21  C   UNL     1     -11.467  15.138  68.224  1.00  0.00    -0.336 C  
HETATM   22  N   UNL     1     -12.178  15.557  69.315  1.00  0.00    -0.590 N  
HETATM   23  O   UNL     1     -10.876  15.935  67.501  1.00  0.00    -0.315 OA 
HETATM   24  H   UNL     1     -12.314  16.561  69.435  1.00  0.00     0.000 HD 
ENDBRANCH  12  13
ENDBRANCH  11  12
ENDBRANCH   8  11
ENDBRANCH   7   8
ENDBRANCH   5   7
TORSDOF 5
ENDMDL
MODEL       25
REMARK 921   NORMALIZED FREE ENERGY PREDICTED BY IDOCK:   -6.02 KCAL/MOL
REMARK 922        TOTAL FREE ENERGY PREDICTED BY IDOCK:   -8.41 KCAL/MOL
REMARK 923 INTER-LIGAND FREE ENERGY PREDICTED BY IDOCK:   -7.69 KCAL/MOL
REMARK 924 INTRA-LIGAND FREE ENERGY PREDICTED BY IDOCK:   -0.72 KCAL/MOL
REMARK 927      BINDING AFFINITY PREDICTED BY RF-SCORE:    0.00 PKD
ROOT
HETATM    1  C   UNL     1     -10.901  12.644  63.881  1.00  0.00    -0.468 C  
HETATM    2  C   UNL     1     -11.209  13.054  65.333  1.00  0.00    -0.289 C  
HETATM    3  C   UNL     1     -12.569  13.774  65.351  1.00  0.00    -0.534 C  
HETATM    4  C   UNL     1     -10.138  14.041  65.835  1.00  0.00    -0.336 C  
HETATM    5  N   UNL     1     -11.320  11.887  66.231  1.00  0.00    -0.345 NA 
HETATM    6  H   UNL     1     -12.140  11.329  65.989  1.00  0.00     0.000 HD 
ENDROOT
BRANCH   5   7
HETATM    7  C   UNL     1     -10.124  11.039  66.279  1.00  0.00    -0.235 C  
BRANCH   7   8
HETATM    8  C   UNL     1     -10.364   9.704  67.016  1.00  0.00    -0.248 C  
HETATM    9  H   UNL     1      -9.866   7.808  66.783  1.00  0.00     0.000 HD 
HETATM   10  O   UNL     1      -9.718   8.629  66.329  1.00  0.00    -0.244 OA 
BRANCH   8  11
HETATM   11  C   UNL     1      -9.831   9.832  68.455  1.00  0.00    -0.156 C  
BRANCH  11  12
HETATM   12  O   UNL     1     -10.343  11.017  69.066  1.00  0.00    -0.208 OA 
BRANCH  12  13
HETATM   13  C   UNL     1     -11.372  10.928  69.969  1.00  0.00    -0.307 A  
HETATM   14  C   UNL     1     -11.598   9.596  70.367  1.00  0.00    -0.299 A  
HETATM   15  C   UNL     1     -12.519   9.276  71.365  1.00  0.00    -0.418 A  
HETATM   16  C   UNL     1     -13.194  10.295  72.021  1.00  0.00    -0.516 A  
HETATM   17  C   UNL     1     -12.962  11.623  71.658  1.00  0.00    -0.378 A  
HETATM   18  C   UNL     1     -12.087  11.966  70.601  1.00  0.00    -0.389 A  
HETATM   19  C   UNL     1     -11.877  13.434  70.339  1.00  0.00    -0.283 C  
HETATM   20  C   UNL     1     -12.982  14.342  70.848  1.00  0.00    -0.413 C  
HETATM   21  C   UNL     1     -13.472  13.957  72.208  1.00  0.00    -0.526 C  
HETATM   22  N   UNL     1     -13.561  12.613  72.446  1.00  0.00    -0.593 N  
HETATM   23  O   UNL     1     -13.889  14.779  73.019  1.00  0.00    -0.508 OA 
HETATM   24  H   UNL     1     -14.102  12.310  73.255  1.00  0.00     0.000 HD 
ENDBRANCH  12  13
ENDBRANCH  11  12
ENDBRANCH   8  11
ENDBRANCH   7   8
ENDBRANCH   5   7
TORSDOF 5
ENDMDL
MODEL       26
REMARK 921   NORMALIZED FREE ENERGY PREDICTED BY IDOCK:   -5.98 KCAL/MOL
REMARK 922        TOTAL FREE ENERGY PREDICTED BY IDOCK:   -8.35 KCAL/MOL
REMARK 923 INTER-LIGAND FREE ENERGY PREDICTED BY IDOCK:   -7.55 KCAL/MOL
REMARK 924 INTRA-LIGAND FREE ENERGY PREDICTED BY IDOCK:   -0.80 KCAL/MOL
REMARK 927      BINDING AFFINITY PREDICTED BY RF-SCORE:    0.00 PKD
ROOT
HETATM    1  C   UNL     1      -9.472  10.158  63.755  1.00  0.00    -0.330 C  
HETATM    2  C   UNL     1      -9.345  10.539  65.241  1.00  0.00    -0.213 C  
HETATM    3  C   UNL     1      -7.860  10.450  65.637  1.00  0.00    -0.154 C  
HETATM    4  C   UNL     1     -10.132   9.536  66.106  1.00  0.00    -0.326 C  
HETATM    5  N   UNL     1      -9.783  11.925  65.502  1.00  0.00    -0.262 NA 
HETATM    6  H   UNL     1      -9.148  12.588  65.058  1.00  0.00     0.000 HD 
ENDROOT
BRANCH   5   7
HETATM    7  C   UNL     1     -11.169  12.209  65.113  1.00  0.00    -0.329 C  
BRANCH   7   8
HETATM    8  C   UNL     1     -11.534  13.703  65.240  1.00  0.00    -0.308 C  
HETATM    9  H   UNL     1     -12.702  14.996  64.311  1.00  0.00     0.000 HD 
HETATM   10  O   UNL     1     -12.478  14.077  64.233  1.00  0.00    -0.645 OA 
BRANCH   8  11
HETATM   11  C   UNL     1     -12.108  13.954  66.647  1.00  0.00    -0.448 C  
BRANCH  11  12
HETATM   12  O   UNL     1     -11.255  13.378  67.636  1.00  0.00    -0.257 OA 
BRANCH  12  13
HETATM   13  C   UNL     1     -11.801  12.828  68.769  1.00  0.00    -0.307 A  
HETATM   14  C   UNL     1     -11.693  11.424  68.768  1.00  0.00    -0.404 A  
HETATM   15  C   UNL     1     -12.077  10.659  69.869  1.00  0.00    -0.372 A  
HETATM   16  C   UNL     1     -12.529  11.296  71.016  1.00  0.00    -0.503 A  
HETATM   17  C   UNL     1     -12.618  12.688  71.044  1.00  0.00    -0.262 A  
HETATM   18  C   UNL     1     -12.302  13.479  69.915  1.00  0.00    -0.287 A  
HETATM   19  C   UNL     1     -12.384  14.973  70.085  1.00  0.00    -0.380 C  
HETATM   20  C   UNL     1     -13.274  15.443  71.222  1.00  0.00    -0.585 C  
HETATM   21  C   UNL     1     -13.111  14.625  72.463  1.00  0.00    -0.414 C  
HETATM   22  N   UNL     1     -12.944  13.281  72.269  1.00  0.00    -0.305 N  
HETATM   23  O   UNL     1     -13.244  15.097  73.589  1.00  0.00    -0.463 OA 
HETATM   24  H   UNL     1     -13.065  12.668  73.075  1.00  0.00     0.000 HD 
ENDBRANCH  12  13
ENDBRANCH  11  12
ENDBRANCH   8  11
ENDBRANCH   7   8
ENDBRANCH   5   7
TORSDOF 5
ENDMDL
MODEL       27
REMARK 921   NORMALIZED FREE ENERGY PREDICTED BY IDOCK:   -5.94 KCAL/MOL
REMARK 922        TOTAL FREE ENERGY PREDICTED BY IDOCK:   -8.31 KCAL/MOL
REMARK 923 INTER-LIGAND FREE ENERGY PREDICTED BY IDOCK:   -7.65 KCAL/MOL
REMARK 924 INTRA-LIGAND FREE ENERGY PREDICTED BY IDOCK:   -0.66 KCAL/MOL
REMARK 927      BINDING AFFINITY PREDICTED BY RF-SCORE:    0.00 PKD
ROOT
HETATM    1  C   UNL     1     -11.379   8.082  72.663  1.00  0.00    -0.469 C  
HETATM    2  C   UNL     1     -12.400   8.323  71.536  1.00  0.00    -0.306 C  
HETATM    3  C   UNL     1     -13.225   9.573  71.891  1.00  0.00    -0.524 C  
HETATM    4  C   UNL     1     -13.364   7.125  71.440  1.00  0.00    -0.380 C  
HETATM    5  N   UNL     1     -11.746   8.585  70.238  1.00  0.00    -0.471 NA 
HETATM    6  H   UNL     1     -11.247   9.474  70.265  1.00  0.00     0.000 HD 
ENDROOT
BRANCH   5   7
HETATM    7  C   UNL     1     -10.856   7.514  69.776  1.00  0.00    -0.225 C  
BRANCH   7   8
HETATM    8  C   UNL     1      -9.999   7.929  68.561  1.00  0.00    -0.187 C  
HETATM    9  H   UNL     1     -10.099   7.776  66.595  1.00  0.00     0.000 HD 
HETATM   10  O   UNL     1     -10.627   7.520  67.342  1.00  0.00    -0.270 OA 
BRANCH   8  11
HETATM   11  C   UNL     1      -9.806   9.456  68.591  1.00  0.00    -0.163 C  
BRANCH  11  12
HETATM   12  O   UNL     1     -10.424  10.052  67.450  1.00  0.00    -0.225 OA 
BRANCH  12  13
HETATM   13  C   UNL     1     -11.100  11.239  67.585  1.00  0.00    -0.277 A  
HETATM   14  C   UNL     1     -11.158  11.653  68.930  1.00  0.00    -0.287 A  
HETATM   15  C   UNL     1     -11.696  12.887  69.294  1.00  0.00    -0.378 A  
HETATM   16  C   UNL     1     -12.138  13.755  68.306  1.00  0.00    -0.314 A  
HETATM   17  C   UNL     1     -12.064  13.373  66.966  1.00  0.00    -0.339 A  
HETATM   18  C   UNL     1     -11.589  12.098  66.579  1.00  0.00    -0.425 A  
HETATM   19  C   UNL     1     -11.503  11.823  65.101  1.00  0.00    -0.248 C  
HETATM   20  C   UNL     1     -12.399  12.689  64.233  1.00  0.00    -0.517 C  
HETATM   21  C   UNL     1     -12.409  14.123  64.658  1.00  0.00    -0.410 C  
HETATM   22  N   UNL     1     -12.390  14.340  66.009  1.00  0.00    -0.423 N  
HETATM   23  O   UNL     1     -12.553  15.048  63.864  1.00  0.00    -0.813 OA 
HETATM   24  H   UNL     1     -12.631  15.273  66.342  1.00  0.00     0.000 HD 
ENDBRANCH  12  13
ENDBRANCH  11  12
ENDBRANCH   8  11
ENDBRANCH   7   8
ENDBRANCH   5   7
TORSDOF 5
ENDMDL
MODEL       28
REMARK 921   NORMALIZED FREE ENERGY PREDICTED BY IDOCK:   -5.93 KCAL/MOL
REMARK 922        TOTAL FREE ENERGY PREDICTED BY IDOCK:   -8.29 KCAL/MOL
REMARK 923 INTER-LIGAND FREE ENERGY PREDICTED BY IDOCK:   -7.63 KCAL/MOL
REMARK 924 INTRA-LIGAND FREE ENERGY PREDICTED BY IDOCK:   -0.66 KCAL/MOL
REMARK 927      BINDING AFFINITY PREDICTED BY RF-SCORE:    0.00 PKD
ROOT
HETATM    1  C   UNL     1      -8.647  16.489  66.369  1.00  0.00    -0.347 C  
HETATM    2  C   UNL     1     -10.126  16.913  66.377  1.00  0.00    -0.322 C  
HETATM    3  C   UNL     1     -10.187  18.448  66.483  1.00  0.00    -0.423 C  
HETATM    4  C   UNL     1     -10.833  16.321  67.610  1.00  0.00    -0.293 C  
HETATM    5  N   UNL     1     -10.823  16.535  65.130  1.00  0.00    -0.574 NA 
HETATM    6  H   UNL     1     -10.453  17.066  64.342  1.00  0.00     0.000 HD 
ENDROOT
BRANCH   5   7
HETATM    7  C   UNL     1     -10.800  15.098  64.833  1.00  0.00    -0.418 C  
BRANCH   7   8
HETATM    8  C   UNL     1     -12.209  14.513  64.594  1.00  0.00    -0.460 C  
HETATM    9  H   UNL     1     -13.163  13.574  63.143  1.00  0.00     0.000 HD 
HETATM   10  O   UNL     1     -12.297  13.933  63.290  1.00  0.00    -0.749 OA 
BRANCH   8  11
HETATM   11  C   UNL     1     -12.497  13.461  65.681  1.00  0.00    -0.464 C  
BRANCH  11  12
HETATM   12  O   UNL     1     -11.318  12.704  65.958  1.00  0.00    -0.296 OA 
BRANCH  12  13
HETATM   13  C   UNL     1     -11.215  12.014  67.139  1.00  0.00    -0.316 A  
HETATM   14  C   UNL     1     -11.775  12.734  68.212  1.00  0.00    -0.388 A  
HETATM   15  C   UNL     1     -11.886  12.180  69.487  1.00  0.00    -0.386 A  
HETATM   16  C   UNL     1     -11.485  10.869  69.698  1.00  0.00    -0.377 A  
HETATM   17  C   UNL     1     -10.952  10.131  68.640  1.00  0.00    -0.230 A  
HETATM   18  C   UNL     1     -10.763  10.695  67.357  1.00  0.00    -0.326 A  
HETATM   19  C   UNL     1     -10.232   9.783  66.283  1.00  0.00    -0.282 C  
HETATM   20  C   UNL     1      -9.478   8.566  66.788  1.00  0.00    -0.253 C  
HETATM   21  C   UNL     1     -10.140   7.919  67.963  1.00  0.00    -0.192 C  
HETATM   22  N   UNL     1     -10.697   8.775  68.874  1.00  0.00    -0.390 N  
HETATM   23  O   UNL     1     -10.084   6.711  68.173  1.00  0.00    -0.145 OA 
HETATM   24  H   UNL     1     -10.944   8.398  69.789  1.00  0.00     0.000 HD 
ENDBRANCH  12  13
ENDBRANCH  11  12
ENDBRANCH   8  11
ENDBRANCH   7   8
ENDBRANCH   5   7
TORSDOF 5
ENDMDL
MODEL       29
REMARK 921   NORMALIZED FREE ENERGY PREDICTED BY IDOCK:   -5.91 KCAL/MOL
REMARK 922        TOTAL FREE ENERGY PREDICTED BY IDOCK:   -8.26 KCAL/MOL
REMARK 923 INTER-LIGAND FREE ENERGY PREDICTED BY IDOCK:   -7.38 KCAL/MOL
REMARK 924 INTRA-LIGAND FREE ENERGY PREDICTED BY IDOCK:   -0.88 KCAL/MOL
REMARK 927      BINDING AFFINITY PREDICTED BY RF-SCORE:    0.00 PKD
ROOT
HETATM    1  C   UNL     1      -9.003   9.242  65.401  1.00  0.00    -0.253 C  
HETATM    2  C   UNL     1      -9.242  10.622  66.039  1.00  0.00    -0.182 C  
HETATM    3  C   UNL     1      -7.910  11.115  66.633  1.00  0.00    -0.155 C  
HETATM    4  C   UNL     1     -10.260  10.497  67.188  1.00  0.00    -0.270 C  
HETATM    5  N   UNL     1      -9.677  11.627  65.049  1.00  0.00    -0.298 NA 
HETATM    6  H   UNL     1      -8.924  11.826  64.389  1.00  0.00     0.000 HD 
ENDROOT
BRANCH   5   7
HETATM    7  C   UNL     1     -10.907  11.279  64.328  1.00  0.00    -0.328 C  
BRANCH   7   8
HETATM    8  C   UNL     1     -11.837  12.492  64.111  1.00  0.00    -0.411 C  
HETATM    9  H   UNL     1     -13.584  12.847  63.260  1.00  0.00     0.000 HD 
HETATM   10  O   UNL     1     -13.011  12.101  63.393  1.00  0.00    -0.776 OA 
BRANCH   8  11
HETATM   11  C   UNL     1     -12.209  13.082  65.485  1.00  0.00    -0.469 C  
BRANCH  11  12
HETATM   12  O   UNL     1     -11.193  13.985  65.922  1.00  0.00    -0.303 OA 
BRANCH  12  13
HETATM   13  C   UNL     1     -11.352  14.666  67.103  1.00  0.00    -0.356 A  
HETATM   14  C   UNL     1     -11.815  13.822  68.130  1.00  0.00    -0.411 A  
HETATM   15  C   UNL     1     -11.941  14.270  69.446  1.00  0.00    -0.381 A  
HETATM   16  C   UNL     1     -11.552  15.563  69.765  1.00  0.00    -0.345 A  
HETATM   17  C   UNL     1     -11.065  16.405  68.764  1.00  0.00    -0.337 A  
HETATM   18  C   UNL     1     -10.996  15.996  67.412  1.00  0.00    -0.237 A  
HETATM   19  C   UNL     1     -10.401  16.973  66.433  1.00  0.00    -0.304 C  
HETATM   20  C   UNL     1     -10.435  18.426  66.875  1.00  0.00    -0.419 C  
HETATM   21  C   UNL     1     -10.078  18.604  68.316  1.00  0.00    -0.389 C  
HETATM   22  N   UNL     1     -10.556  17.645  69.167  1.00  0.00    -0.387 N  
HETATM   23  O   UNL     1      -9.505  19.605  68.738  1.00  0.00    -0.368 OA 
HETATM   24  H   UNL     1     -10.540  17.848  70.166  1.00  0.00     0.000 HD 
ENDBRANCH  12  13
ENDBRANCH  11  12
ENDBRANCH   8  11
ENDBRANCH   7   8
ENDBRANCH   5   7
TORSDOF 5
ENDMDL
MODEL       30
REMARK 921   NORMALIZED FREE ENERGY PREDICTED BY IDOCK:   -5.89 KCAL/MOL
REMARK 922        TOTAL FREE ENERGY PREDICTED BY IDOCK:   -8.24 KCAL/MOL
REMARK 923 INTER-LIGAND FREE ENERGY PREDICTED BY IDOCK:   -7.87 KCAL/MOL
REMARK 924 INTRA-LIGAND FREE ENERGY PREDICTED BY IDOCK:   -0.38 KCAL/MOL
REMARK 927      BINDING AFFINITY PREDICTED BY RF-SCORE:    0.00 PKD
ROOT
HETATM    1  C   UNL     1     -13.056   9.736  71.330  1.00  0.00    -0.489 C  
HETATM    2  C   UNL     1     -12.247   8.427  71.314  1.00  0.00    -0.277 C  
HETATM    3  C   UNL     1     -13.228   7.251  71.475  1.00  0.00    -0.434 C  
HETATM    4  C   UNL     1     -11.271   8.401  72.505  1.00  0.00    -0.406 C  
HETATM    5  N   UNL     1     -11.533   8.227  70.037  1.00  0.00    -0.457 NA 
HETATM    6  H   UNL     1     -12.198   8.076  69.278  1.00  0.00     0.000 HD 
ENDROOT
BRANCH   5   7
HETATM    7  C   UNL     1     -10.598   9.303  69.687  1.00  0.00    -0.229 C  
BRANCH   7   8
HETATM    8  C   UNL     1     -10.301   9.371  68.174  1.00  0.00    -0.211 C  
HETATM    9  H   UNL     1     -10.585   8.231  66.587  1.00  0.00     0.000 HD 
HETATM   10  O   UNL     1     -10.768   8.189  67.518  1.00  0.00    -0.242 OA 
BRANCH   8  11
HETATM   11  C   UNL     1     -10.983  10.623  67.593  1.00  0.00    -0.310 C  
BRANCH  11  12
HETATM   12  O   UNL     1     -10.057  11.362  66.795  1.00  0.00    -0.207 OA 
BRANCH  12  13
HETATM   13  C   UNL     1     -10.510  12.084  65.720  1.00  0.00    -0.254 A  
HETATM   14  C   UNL     1     -11.233  11.277  64.821  1.00  0.00    -0.128 A  
HETATM   15  C   UNL     1     -11.885  11.818  63.713  1.00  0.00    -0.484 A  
HETATM   16  C   UNL     1     -11.868  13.191  63.516  1.00  0.00    -0.539 A  
HETATM   17  C   UNL     1     -11.178  14.009  64.411  1.00  0.00    -0.306 A  
HETATM   18  C   UNL     1     -10.450  13.476  65.500  1.00  0.00    -0.304 A  
HETATM   19  C   UNL     1      -9.793  14.462  66.429  1.00  0.00    -0.309 C  
HETATM   20  C   UNL     1      -9.533  15.834  65.831  1.00  0.00    -0.377 C  
HETATM   21  C   UNL     1     -10.675  16.334  65.005  1.00  0.00    -0.298 C  
HETATM   22  N   UNL     1     -11.312  15.392  64.244  1.00  0.00    -0.718 N  
HETATM   23  O   UNL     1     -10.952  17.526  64.910  1.00  0.00    -0.887 OA 
HETATM   24  H   UNL     1     -11.929  15.721  63.502  1.00  0.00     0.000 HD 
ENDBRANCH  12  13
ENDBRANCH  11  12
ENDBRANCH   8  11
ENDBRANCH   7   8
ENDBRANCH   5   7
TORSDOF 5
ENDMDL
MODEL       31
REMARK 921   NORMALIZED FREE ENERGY PREDICTED BY IDOCK:   -5.88 KCAL/MOL
REMARK 922        TOTAL FREE ENERGY PREDICTED BY IDOCK:   -8.23 KCAL/MOL
REMARK 923 INTER-LIGAND FREE ENERGY PREDICTED BY IDOCK:   -7.59 KCAL/MOL
REMARK 924 INTRA-LIGAND FREE ENERGY PREDICTED BY IDOCK:   -0.64 KCAL/MOL
REMARK 927      BINDING AFFINITY PREDICTED BY RF-SCORE:    0.00 PKD
ROOT
HETATM    1  C   UNL     1     -10.644   8.596  72.155  1.00  0.00    -0.411 C  
HETATM    2  C   UNL     1     -11.801   8.722  71.148  1.00  0.00    -0.295 C  
HETATM    3  C   UNL     1     -12.546  10.040  71.432  1.00  0.00    -0.518 C  
HETATM    4  C   UNL     1     -12.793   7.561  71.344  1.00  0.00    -0.381 C  
HETATM    5  N   UNL     1     -11.322   8.784  69.753  1.00  0.00    -0.444 NA 
HETATM    6  H   UNL     1     -10.805   9.648  69.592  1.00  0.00     0.000 HD 
ENDROOT
BRANCH   5   7
HETATM    7  C   UNL     1     -10.524   7.627  69.332  1.00  0.00    -0.220 C  
BRANCH   7   8
HETATM    8  C   UNL     1      -9.271   8.026  68.523  1.00  0.00    -0.135 C  
HETATM    9  H   UNL     1      -7.510   7.241  68.093  1.00  0.00     0.000 HD 
HETATM   10  O   UNL     1      -8.281   6.995  68.591  1.00  0.00    -0.119 OA 
BRANCH   8  11
HETATM   11  C   UNL     1      -9.687   8.287  67.064  1.00  0.00    -0.211 C  
BRANCH  11  12
HETATM   12  O   UNL     1     -10.324   9.561  66.955  1.00  0.00    -0.240 OA 
BRANCH  12  13
HETATM   13  C   UNL     1     -10.129  10.324  65.831  1.00  0.00    -0.251 A  
HETATM   14  C   UNL     1      -9.370   9.639  64.863  1.00  0.00    -0.306 A  
HETATM   15  C   UNL     1      -9.144  10.175  63.596  1.00  0.00    -0.289 A  
HETATM   16  C   UNL     1      -9.722  11.390  63.257  1.00  0.00    -0.413 A  
HETATM   17  C   UNL     1     -10.500  12.071  64.195  1.00  0.00    -0.353 A  
HETATM   18  C   UNL     1     -10.683  11.581  65.509  1.00  0.00    -0.328 A  
HETATM   19  C   UNL     1     -11.588  12.376  66.412  1.00  0.00    -0.442 C  
HETATM   20  C   UNL     1     -11.769  13.832  66.021  1.00  0.00    -0.383 C  
HETATM   21  C   UNL     1     -11.942  14.021  64.548  1.00  0.00    -0.448 C  
HETATM   22  N   UNL     1     -11.173  13.216  63.754  1.00  0.00    -0.568 N  
HETATM   23  O   UNL     1     -12.628  14.921  64.072  1.00  0.00    -0.832 OA 
HETATM   24  H   UNL     1     -11.083  13.468  62.769  1.00  0.00     0.000 HD 
ENDBRANCH  12  13
ENDBRANCH  11  12
ENDBRANCH   8  11
ENDBRANCH   7   8
ENDBRANCH   5   7
TORSDOF 5
ENDMDL
MODEL       32
REMARK 921   NORMALIZED FREE ENERGY PREDICTED BY IDOCK:   -5.87 KCAL/MOL
REMARK 922        TOTAL FREE ENERGY PREDICTED BY IDOCK:   -8.22 KCAL/MOL
REMARK 923 INTER-LIGAND FREE ENERGY PREDICTED BY IDOCK:   -7.73 KCAL/MOL
REMARK 924 INTRA-LIGAND FREE ENERGY PREDICTED BY IDOCK:   -0.49 KCAL/MOL
REMARK 927      BINDING AFFINITY PREDICTED BY RF-SCORE:    0.00 PKD
ROOT
HETATM    1  C   UNL     1     -10.915   7.497  72.376  1.00  0.00    -0.333 C  
HETATM    2  C   UNL     1     -10.835   7.645  70.846  1.00  0.00    -0.241 C  
HETATM    3  C   UNL     1     -11.074   6.261  70.215  1.00  0.00    -0.430 C  
HETATM    4  C   UNL     1      -9.427   8.118  70.440  1.00  0.00    -0.163 C  
HETATM    5  N   UNL     1     -11.874   8.551  70.317  1.00  0.00    -0.458 NA 
HETATM    6  H   UNL     1     -12.800   8.141  70.443  1.00  0.00     0.000 HD 
ENDROOT
BRANCH   5   7
HETATM    7  C   UNL     1     -11.838   9.908  70.872  1.00  0.00    -0.356 C  
BRANCH   7   8
HETATM    8  C   UNL     1     -12.180  10.992  69.827  1.00  0.00    -0.318 C  
HETATM    9  H   UNL     1     -12.315  12.962  69.770  1.00  0.00     0.000 HD 
HETATM   10  O   UNL     1     -12.104  12.295  70.413  1.00  0.00    -0.355 OA 
BRANCH   8  11
HETATM   11  C   UNL     1     -11.200  10.867  68.646  1.00  0.00    -0.267 C  
BRANCH  11  12
HETATM   12  O   UNL     1     -11.901  10.998  67.409  1.00  0.00    -0.523 OA 
BRANCH  12  13
HETATM   13  C   UNL     1     -11.279  11.582  66.334  1.00  0.00    -0.243 A  
HETATM   14  C   UNL     1     -10.830  10.620  65.409  1.00  0.00     0.005 A  
HETATM   15  C   UNL     1     -10.271  10.986  64.185  1.00  0.00    -0.419 A  
HETATM   16  C   UNL     1     -10.200  12.328  63.843  1.00  0.00    -0.421 A  
HETATM   17  C   UNL     1     -10.665  13.295  64.736  1.00  0.00    -0.378 A  
HETATM   18  C   UNL     1     -11.169  12.951  66.012  1.00  0.00    -0.325 A  
HETATM   19  C   UNL     1     -11.692  14.077  66.865  1.00  0.00    -0.435 C  
HETATM   20  C   UNL     1     -11.154  15.452  66.513  1.00  0.00    -0.227 C  
HETATM   21  C   UNL     1     -11.087  15.691  65.038  1.00  0.00    -0.389 C  
HETATM   22  N   UNL     1     -10.700  14.618  64.282  1.00  0.00    -0.456 N  
HETATM   23  O   UNL     1     -11.242  16.802  64.539  1.00  0.00    -0.997 OA 
HETATM   24  H   UNL     1     -10.416  14.795  63.318  1.00  0.00     0.000 HD 
ENDBRANCH  12  13
ENDBRANCH  11  12
ENDBRANCH   8  11
ENDBRANCH   7   8
ENDBRANCH   5   7
TORSDOF 5
ENDMDL
MODEL       33
REMARK 921   NORMALIZED FREE ENERGY PREDICTED BY IDOCK:   -5.87 KCAL/MOL
REMARK 922        TOTAL FREE ENERGY PREDICTED BY IDOCK:   -8.22 KCAL/MOL
REMARK 923 INTER-LIGAND FREE ENERGY PREDICTED BY IDOCK:   -7.25 KCAL/MOL
REMARK 924 INTRA-LIGAND FREE ENERGY PREDICTED BY IDOCK:   -0.96 KCAL/MOL
REMARK 927      BINDING AFFINITY PREDICTED BY RF-SCORE:    0.00 PKD
ROOT
HETATM    1  C   UNL     1      -9.956  10.149  65.233  1.00  0.00    -0.381 C  
HETATM    2  C   UNL     1      -9.927  11.502  65.966  1.00  0.00    -0.224 C  
HETATM    3  C   UNL     1      -8.609  11.594  66.757  1.00  0.00    -0.180 C  
HETATM    4  C   UNL     1     -11.092  11.579  66.970  1.00  0.00    -0.365 C  
HETATM    5  N   UNL     1      -9.954  12.645  65.031  1.00  0.00    -0.453 NA 
HETATM    6  H   UNL     1      -9.092  12.679  64.486  1.00  0.00     0.000 HD 
ENDROOT
BRANCH   5   7
HETATM    7  C   UNL     1     -11.120  12.675  64.141  1.00  0.00    -0.382 C  
BRANCH   7   8
HETATM    8  C   UNL     1     -11.956  13.964  64.293  1.00  0.00    -0.444 C  
HETATM    9  H   UNL     1     -13.644  14.506  65.162  1.00  0.00     0.000 HD 
HETATM   10  O   UNL     1     -13.131  13.712  65.069  1.00  0.00    -0.742 OA 
BRANCH   8  11
HETATM   11  C   UNL     1     -11.083  15.044  64.958  1.00  0.00    -0.413 C  
BRANCH  11  12
HETATM   12  O   UNL     1     -11.462  15.210  66.325  1.00  0.00    -0.280 OA 
BRANCH  12  13
HETATM   13  C   UNL     1     -10.578  15.769  67.213  1.00  0.00    -0.313 A  
HETATM   14  C   UNL     1     -10.035  14.804  68.082  1.00  0.00    -0.221 A  
HETATM   15  C   UNL     1      -9.029  15.122  68.994  1.00  0.00    -0.219 A  
HETATM   16  C   UNL     1      -8.509  16.408  69.013  1.00  0.00    -0.225 A  
HETATM   17  C   UNL     1      -9.017  17.372  68.140  1.00  0.00    -0.260 A  
HETATM   18  C   UNL     1     -10.086  17.091  67.258  1.00  0.00    -0.295 A  
HETATM   19  C   UNL     1     -10.509  18.195  66.326  1.00  0.00    -0.374 C  
HETATM   20  C   UNL     1     -10.133  19.595  66.776  1.00  0.00    -0.537 C  
HETATM   21  C   UNL     1      -8.749  19.673  67.339  1.00  0.00    -0.310 C  
HETATM   22  N   UNL     1      -8.361  18.607  68.104  1.00  0.00    -0.298 N  
HETATM   23  O   UNL     1      -8.047  20.675  67.234  1.00  0.00    -0.337 OA 
HETATM   24  H   UNL     1      -7.534  18.722  68.691  1.00  0.00     0.000 HD 
ENDBRANCH  12  13
ENDBRANCH  11  12
ENDBRANCH   8  11
ENDBRANCH   7   8
ENDBRANCH   5   7
TORSDOF 5
ENDMDL
MODEL       34
REMARK 921   NORMALIZED FREE ENERGY PREDICTED BY IDOCK:   -5.83 KCAL/MOL
REMARK 922        TOTAL FREE ENERGY PREDICTED BY IDOCK:   -8.16 KCAL/MOL
REMARK 923 INTER-LIGAND FREE ENERGY PREDICTED BY IDOCK:   -7.83 KCAL/MOL
REMARK 924 INTRA-LIGAND FREE ENERGY PREDICTED BY IDOCK:   -0.33 KCAL/MOL
REMARK 927      BINDING AFFINITY PREDICTED BY RF-SCORE:    0.00 PKD
ROOT
HETATM    1  C   UNL     1     -10.356  12.696  64.170  1.00  0.00    -0.412 C  
HETATM    2  C   UNL     1     -11.866  12.873  64.411  1.00  0.00    -0.383 C  
HETATM    3  C   UNL     1     -12.621  11.958  63.430  1.00  0.00    -0.555 C  
HETATM    4  C   UNL     1     -12.275  14.329  64.119  1.00  0.00    -0.410 C  
HETATM    5  N   UNL     1     -12.263  12.472  65.776  1.00  0.00    -0.626 NA 
HETATM    6  H   UNL     1     -12.144  11.467  65.900  1.00  0.00     0.000 HD 
ENDROOT
BRANCH   5   7
HETATM    7  C   UNL     1     -11.578  13.203  66.849  1.00  0.00    -0.368 C  
BRANCH   7   8
HETATM    8  C   UNL     1     -10.656  12.299  67.695  1.00  0.00    -0.215 C  
HETATM    9  H   UNL     1      -9.277  12.532  69.089  1.00  0.00     0.000 HD 
HETATM   10  O   UNL     1      -9.844  13.089  68.568  1.00  0.00    -0.218 OA 
BRANCH   8  11
HETATM   11  C   UNL     1     -11.529  11.318  68.500  1.00  0.00    -0.306 C  
BRANCH  11  12
HETATM   12  O   UNL     1     -10.754  10.702  69.529  1.00  0.00    -0.231 OA 
BRANCH  12  13
HETATM   13  C   UNL     1     -11.386  10.118  70.599  1.00  0.00    -0.352 A  
HETATM   14  C   UNL     1     -12.767  10.392  70.597  1.00  0.00    -0.417 A  
HETATM   15  C   UNL     1     -13.631   9.808  71.525  1.00  0.00    -0.351 A  
HETATM   16  C   UNL     1     -13.129   8.896  72.441  1.00  0.00    -0.476 A  
HETATM   17  C   UNL     1     -11.766   8.593  72.440  1.00  0.00    -0.323 A  
HETATM   18  C   UNL     1     -10.862   9.225  71.557  1.00  0.00    -0.442 A  
HETATM   19  C   UNL     1      -9.426   8.775  71.612  1.00  0.00    -0.358 C  
HETATM   20  C   UNL     1      -9.010   8.114  72.915  1.00  0.00    -0.328 C  
HETATM   21  C   UNL     1     -10.042   7.167  73.441  1.00  0.00    -0.303 C  
HETATM   22  N   UNL     1     -11.342   7.563  73.288  1.00  0.00    -0.591 N  
HETATM   23  O   UNL     1      -9.751   6.160  74.081  1.00  0.00    -0.169 OA 
HETATM   24  H   UNL     1     -12.053   7.074  73.832  1.00  0.00     0.000 HD 
ENDBRANCH  12  13
ENDBRANCH  11  12
ENDBRANCH   8  11
ENDBRANCH   7   8
ENDBRANCH   5   7
TORSDOF 5
ENDMDL
MODEL       35
REMARK 921   NORMALIZED FREE ENERGY PREDICTED BY IDOCK:   -5.82 KCAL/MOL
REMARK 922        TOTAL FREE ENERGY PREDICTED BY IDOCK:   -8.15 KCAL/MOL
REMARK 923 INTER-LIGAND FREE ENERGY PREDICTED BY IDOCK:   -7.29 KCAL/MOL
REMARK 924 INTRA-LIGAND FREE ENERGY PREDICTED BY IDOCK:   -0.87 KCAL/MOL
REMARK 927      BINDING AFFINITY PREDICTED BY RF-SCORE:    0.00 PKD
ROOT
HETATM    1  C   UNL     1     -11.163   8.325  72.256  1.00  0.00    -0.443 C  
HETATM    2  C   UNL     1     -11.829   7.302  71.319  1.00  0.00    -0.307 C  
HETATM    3  C   UNL     1     -13.351   7.366  71.540  1.00  0.00    -0.435 C  
HETATM    4  C   UNL     1     -11.354   5.881  71.675  1.00  0.00    -0.272 C  
HETATM    5  N   UNL     1     -11.581   7.605  69.895  1.00  0.00    -0.468 NA 
HETATM    6  H   UNL     1     -12.049   8.472  69.630  1.00  0.00     0.000 HD 
ENDROOT
BRANCH   5   7
HETATM    7  C   UNL     1     -10.163   7.655  69.521  1.00  0.00    -0.209 C  
BRANCH   7   8
HETATM    8  C   UNL     1      -9.847   8.788  68.522  1.00  0.00    -0.168 C  
HETATM    9  H   UNL     1     -10.428   9.334  66.715  1.00  0.00     0.000 HD 
HETATM   10  O   UNL     1     -10.623   8.637  67.329  1.00  0.00    -0.291 OA 
BRANCH   8  11
HETATM   11  C   UNL     1     -10.143  10.140  69.198  1.00  0.00    -0.213 C  
BRANCH  11  12
HETATM   12  O   UNL     1     -11.550  10.379  69.224  1.00  0.00    -0.234 OA 
BRANCH  12  13
HETATM   13  C   UNL     1     -12.031  11.558  69.737  1.00  0.00    -0.346 A  
HETATM   14  C   UNL     1     -12.594  11.377  71.014  1.00  0.00    -0.487 A  
HETATM   15  C   UNL     1     -13.042  12.455  71.777  1.00  0.00    -0.446 A  
HETATM   16  C   UNL     1     -12.884  13.745  71.291  1.00  0.00    -0.434 A  
HETATM   17  C   UNL     1     -12.303  13.945  70.038  1.00  0.00    -0.316 A  
HETATM   18  C   UNL     1     -11.907  12.864  69.217  1.00  0.00    -0.363 A  
HETATM   19  C   UNL     1     -11.242  13.207  67.911  1.00  0.00    -0.300 C  
HETATM   20  C   UNL     1     -11.539  14.600  67.385  1.00  0.00    -0.408 C  
HETATM   21  C   UNL     1     -11.513  15.644  68.456  1.00  0.00    -0.375 C  
HETATM   22  N   UNL     1     -12.039  15.267  69.661  1.00  0.00    -0.440 N  
HETATM   23  O   UNL     1     -11.162  16.801  68.245  1.00  0.00    -0.333 OA 
HETATM   24  H   UNL     1     -12.256  16.003  70.334  1.00  0.00     0.000 HD 
ENDBRANCH  12  13
ENDBRANCH  11  12
ENDBRANCH   8  11
ENDBRANCH   7   8
ENDBRANCH   5   7
TORSDOF 5
ENDMDL
MODEL       36
REMARK 921   NORMALIZED FREE ENERGY PREDICTED BY IDOCK:   -5.80 KCAL/MOL
REMARK 922        TOTAL FREE ENERGY PREDICTED BY IDOCK:   -8.12 KCAL/MOL
REMARK 923 INTER-LIGAND FREE ENERGY PREDICTED BY IDOCK:   -7.26 KCAL/MOL
REMARK 924 INTRA-LIGAND FREE ENERGY PREDICTED BY IDOCK:   -0.86 KCAL/MOL
REMARK 927      BINDING AFFINITY PREDICTED BY RF-SCORE:    0.00 PKD
ROOT
HETATM    1  C   UNL     1     -10.726  12.829  66.796  1.00  0.00    -0.278 C  
HETATM    2  C   UNL     1     -11.627  14.076  66.771  1.00  0.00    -0.386 C  
HETATM    3  C   UNL     1     -12.758  13.833  65.754  1.00  0.00    -0.494 C  
HETATM    4  C   UNL     1     -10.816  15.298  66.301  1.00  0.00    -0.312 C  
HETATM    5  N   UNL     1     -12.264  14.331  68.079  1.00  0.00    -0.584 NA 
HETATM    6  H   UNL     1     -12.931  13.591  68.299  1.00  0.00     0.000 HD 
ENDROOT
BRANCH   5   7
HETATM    7  C   UNL     1     -11.322  14.516  69.188  1.00  0.00    -0.277 C  
BRANCH   7   8
HETATM    8  C   UNL     1     -12.028  14.723  70.545  1.00  0.00    -0.312 C  
HETATM    9  H   UNL     1     -13.465  15.865  71.275  1.00  0.00     0.000 HD 
HETATM   10  O   UNL     1     -13.031  15.738  70.439  1.00  0.00    -0.409 OA 
BRANCH   8  11
HETATM   11  C   UNL     1     -12.649  13.385  70.988  1.00  0.00    -0.343 C  
BRANCH  11  12
HETATM   12  O   UNL     1     -12.073  12.307  70.250  1.00  0.00    -0.341 OA 
BRANCH  12  13
HETATM   13  C   UNL     1     -12.177  11.025  70.727  1.00  0.00    -0.380 A  
HETATM   14  C   UNL     1     -13.154  10.924  71.736  1.00  0.00    -0.564 A  
HETATM   15  C   UNL     1     -13.513   9.694  72.287  1.00  0.00    -0.488 A  
HETATM   16  C   UNL     1     -12.933   8.533  71.797  1.00  0.00    -0.380 A  
HETATM   17  C   UNL     1     -11.982   8.611  70.779  1.00  0.00    -0.121 A  
HETATM   18  C   UNL     1     -11.550   9.852  70.255  1.00  0.00    -0.319 A  
HETATM   19  C   UNL     1     -10.560   9.806  69.122  1.00  0.00    -0.237 C  
HETATM   20  C   UNL     1      -9.754   8.523  69.024  1.00  0.00    -0.170 C  
HETATM   21  C   UNL     1     -10.581   7.298  69.255  1.00  0.00    -0.221 C  
HETATM   22  N   UNL     1     -11.537   7.404  70.228  1.00  0.00    -0.478 N  
HETATM   23  O   UNL     1     -10.345   6.226  68.705  1.00  0.00    -0.168 OA 
HETATM   24  H   UNL     1     -11.955   6.542  70.577  1.00  0.00     0.000 HD 
ENDBRANCH  12  13
ENDBRANCH  11  12
ENDBRANCH   8  11
ENDBRANCH   7   8
ENDBRANCH   5   7
TORSDOF 5
ENDMDL
MODEL       37
REMARK 921   NORMALIZED FREE ENERGY PREDICTED BY IDOCK:   -5.78 KCAL/MOL
REMARK 922        TOTAL FREE ENERGY PREDICTED BY IDOCK:   -8.10 KCAL/MOL
REMARK 923 INTER-LIGAND FREE ENERGY PREDICTED BY IDOCK:   -7.45 KCAL/MOL
REMARK 924 INTRA-LIGAND FREE ENERGY PREDICTED BY IDOCK:   -0.65 KCAL/MOL
REMARK 927      BINDING AFFINITY PREDICTED BY RF-SCORE:    0.00 PKD
ROOT
HETATM    1  C   UNL     1     -12.799  14.372  73.200  1.00  0.00    -0.492 C  
HETATM    2  C   UNL     1     -12.593  14.711  71.712  1.00  0.00    -0.340 C  
HETATM    3  C   UNL     1     -11.552  15.841  71.616  1.00  0.00    -0.537 C  
HETATM    4  C   UNL     1     -13.913  15.223  71.105  1.00  0.00    -0.462 C  
HETATM    5  N   UNL     1     -12.065  13.564  70.946  1.00  0.00    -0.482 NA 
HETATM    6  H   UNL     1     -11.115  13.343  71.248  1.00  0.00     0.000 HD 
ENDROOT
BRANCH   5   7
HETATM    7  C   UNL     1     -12.906  12.363  70.990  1.00  0.00    -0.155 C  
BRANCH   7   8
HETATM    8  C   UNL     1     -12.154  11.088  70.553  1.00  0.00    -0.377 C  
HETATM    9  H   UNL     1     -12.443   9.136  70.625  1.00  0.00     0.000 HD 
HETATM   10  O   UNL     1     -12.906   9.920  70.894  1.00  0.00    -0.325 OA 
BRANCH   8  11
HETATM   11  C   UNL     1     -11.909  11.155  69.034  1.00  0.00    -0.348 C  
BRANCH  11  12
HETATM   12  O   UNL     1     -10.966  12.185  68.733  1.00  0.00    -0.215 OA 
BRANCH  12  13
HETATM   13  C   UNL     1     -11.009  12.811  67.513  1.00  0.00    -0.249 A  
HETATM   14  C   UNL     1     -11.353  14.171  67.640  1.00  0.00    -0.342 A  
HETATM   15  C   UNL     1     -11.346  15.033  66.544  1.00  0.00    -0.280 A  
HETATM   16  C   UNL     1     -10.942  14.556  65.305  1.00  0.00    -0.366 A  
HETATM   17  C   UNL     1     -10.573  13.218  65.166  1.00  0.00    -0.330 A  
HETATM   18  C   UNL     1     -10.640  12.309  66.248  1.00  0.00    -0.282 A  
HETATM   19  C   UNL     1     -10.163  10.905  65.989  1.00  0.00    -0.311 C  
HETATM   20  C   UNL     1     -10.169  10.482  64.530  1.00  0.00    -0.355 C  
HETATM   21  C   UNL     1      -9.666  11.552  63.613  1.00  0.00    -0.309 C  
HETATM   22  N   UNL     1     -10.040  12.829  63.932  1.00  0.00    -0.560 N  
HETATM   23  O   UNL     1      -9.065  11.303  62.572  1.00  0.00    -0.339 OA 
HETATM   24  H   UNL     1      -9.922  13.548  63.219  1.00  0.00     0.000 HD 
ENDBRANCH  12  13
ENDBRANCH  11  12
ENDBRANCH   8  11
ENDBRANCH   7   8
ENDBRANCH   5   7
TORSDOF 5
ENDMDL
MODEL       38
REMARK 921   NORMALIZED FREE ENERGY PREDICTED BY IDOCK:   -5.78 KCAL/MOL
REMARK 922        TOTAL FREE ENERGY PREDICTED BY IDOCK:   -8.09 KCAL/MOL
REMARK 923 INTER-LIGAND FREE ENERGY PREDICTED BY IDOCK:   -7.70 KCAL/MOL
REMARK 924 INTRA-LIGAND FREE ENERGY PREDICTED BY IDOCK:   -0.39 KCAL/MOL
REMARK 927      BINDING AFFINITY PREDICTED BY RF-SCORE:    0.00 PKD
ROOT
HETATM    1  C   UNL     1     -13.052   9.088  72.270  1.00  0.00    -0.508 C  
HETATM    2  C   UNL     1     -11.939   8.263  71.600  1.00  0.00    -0.303 C  
HETATM    3  C   UNL     1     -12.472   6.839  71.359  1.00  0.00    -0.379 C  
HETATM    4  C   UNL     1     -10.723   8.165  72.541  1.00  0.00    -0.419 C  
HETATM    5  N   UNL     1     -11.552   8.812  70.285  1.00  0.00    -0.462 NA 
HETATM    6  H   UNL     1     -12.318   8.714  69.620  1.00  0.00     0.000 HD 
ENDROOT
BRANCH   5   7
HETATM    7  C   UNL     1     -11.081  10.201  70.320  1.00  0.00    -0.317 C  
BRANCH   7   8
HETATM    8  C   UNL     1     -12.045  11.178  69.614  1.00  0.00    -0.336 C  
HETATM    9  H   UNL     1     -12.760  12.992  69.928  1.00  0.00     0.000 HD 
HETATM   10  O   UNL     1     -12.167  12.391  70.363  1.00  0.00    -0.346 OA 
BRANCH   8  11
HETATM   11  C   UNL     1     -11.511  11.462  68.198  1.00  0.00    -0.305 C  
BRANCH  11  12
HETATM   12  O   UNL     1     -12.228  12.549  67.610  1.00  0.00    -0.401 OA 
BRANCH  12  13
HETATM   13  C   UNL     1     -11.552  13.497  66.886  1.00  0.00    -0.363 A  
HETATM   14  C   UNL     1     -11.331  13.078  65.560  1.00  0.00    -0.330 A  
HETATM   15  C   UNL     1     -10.763  13.925  64.608  1.00  0.00    -0.422 A  
HETATM   16  C   UNL     1     -10.453  15.231  64.958  1.00  0.00    -0.411 A  
HETATM   17  C   UNL     1     -10.689  15.672  66.261  1.00  0.00    -0.295 A  
HETATM   18  C   UNL     1     -11.198  14.811  67.260  1.00  0.00    -0.351 A  
HETATM   19  C   UNL     1     -11.462  15.416  68.613  1.00  0.00    -0.357 C  
HETATM   20  C   UNL     1     -10.688  16.689  68.910  1.00  0.00    -0.337 C  
HETATM   21  C   UNL     1     -10.638  17.624  67.744  1.00  0.00    -0.378 C  
HETATM   22  N   UNL     1     -10.492  17.034  66.518  1.00  0.00    -0.286 N  
HETATM   23  O   UNL     1     -10.600  18.844  67.875  1.00  0.00    -0.395 OA 
HETATM   24  H   UNL     1     -10.219  17.629  65.736  1.00  0.00     0.000 HD 
ENDBRANCH  12  13
ENDBRANCH  11  12
ENDBRANCH   8  11
ENDBRANCH   7   8
ENDBRANCH   5   7
TORSDOF 5
ENDMDL
MODEL       39
REMARK 921   NORMALIZED FREE ENERGY PREDICTED BY IDOCK:   -5.73 KCAL/MOL
REMARK 922        TOTAL FREE ENERGY PREDICTED BY IDOCK:   -8.04 KCAL/MOL
REMARK 923 INTER-LIGAND FREE ENERGY PREDICTED BY IDOCK:   -7.36 KCAL/MOL
REMARK 924 INTRA-LIGAND FREE ENERGY PREDICTED BY IDOCK:   -0.68 KCAL/MOL
REMARK 927      BINDING AFFINITY PREDICTED BY RF-SCORE:    0.00 PKD
ROOT
HETATM    1  C   UNL     1     -12.518  13.776  65.998  1.00  0.00    -0.491 C  
HETATM    2  C   UNL     1     -11.421  14.004  64.943  1.00  0.00    -0.358 C  
HETATM    3  C   UNL     1     -11.436  15.491  64.544  1.00  0.00    -0.311 C  
HETATM    4  C   UNL     1     -11.725  13.169  63.685  1.00  0.00    -0.505 C  
HETATM    5  N   UNL     1     -10.072  13.706  65.466  1.00  0.00    -0.399 NA 
HETATM    6  H   UNL     1      -9.815  14.379  66.189  1.00  0.00     0.000 HD 
ENDROOT
BRANCH   5   7
HETATM    7  C   UNL     1      -9.900  12.336  65.961  1.00  0.00    -0.248 C  
BRANCH   7   8
HETATM    8  C   UNL     1      -8.780  12.217  67.018  1.00  0.00    -0.190 C  
HETATM    9  H   UNL     1      -7.494  13.419  67.911  1.00  0.00     0.000 HD 
HETATM   10  O   UNL     1      -8.182  13.493  67.261  1.00  0.00    -0.177 OA 
BRANCH   8  11
HETATM   11  C   UNL     1      -9.382  11.640  68.312  1.00  0.00    -0.191 C  
BRANCH  11  12
HETATM   12  O   UNL     1     -10.801  11.806  68.312  1.00  0.00    -0.199 OA 
BRANCH  12  13
HETATM   13  C   UNL     1     -11.454  12.075  69.488  1.00  0.00    -0.282 A  
HETATM   14  C   UNL     1     -11.692  13.454  69.645  1.00  0.00    -0.375 A  
HETATM   15  C   UNL     1     -12.442  13.952  70.711  1.00  0.00    -0.445 A  
HETATM   16  C   UNL     1     -13.015  13.066  71.612  1.00  0.00    -0.417 A  
HETATM   17  C   UNL     1     -12.812  11.694  71.457  1.00  0.00    -0.364 A  
HETATM   18  C   UNL     1     -11.996  11.172  70.426  1.00  0.00    -0.469 A  
HETATM   19  C   UNL     1     -11.898   9.673  70.327  1.00  0.00    -0.157 C  
HETATM   20  C   UNL     1     -12.227   8.921  71.606  1.00  0.00    -0.409 C  
HETATM   21  C   UNL     1     -13.418   9.480  72.318  1.00  0.00    -0.440 C  
HETATM   22  N   UNL     1     -13.527  10.844  72.307  1.00  0.00    -0.528 N  
HETATM   23  O   UNL     1     -14.181   8.782  72.979  1.00  0.00    -0.404 OA 
HETATM   24  H   UNL     1     -14.177  11.271  72.967  1.00  0.00     0.000 HD 
ENDBRANCH  12  13
ENDBRANCH  11  12
ENDBRANCH   8  11
ENDBRANCH   7   8
ENDBRANCH   5   7
TORSDOF 5
ENDMDL
MODEL       40
REMARK 921   NORMALIZED FREE ENERGY PREDICTED BY IDOCK:   -5.72 KCAL/MOL
REMARK 922        TOTAL FREE ENERGY PREDICTED BY IDOCK:   -8.02 KCAL/MOL
REMARK 923 INTER-LIGAND FREE ENERGY PREDICTED BY IDOCK:   -7.70 KCAL/MOL
REMARK 924 INTRA-LIGAND FREE ENERGY PREDICTED BY IDOCK:   -0.32 KCAL/MOL
REMARK 927      BINDING AFFINITY PREDICTED BY RF-SCORE:    0.00 PKD
ROOT
HETATM    1  C   UNL     1      -8.459  18.024  68.163  1.00  0.00    -0.273 C  
HETATM    2  C   UNL     1      -9.428  18.536  67.083  1.00  0.00    -0.289 C  
HETATM    3  C   UNL     1      -9.012  19.969  66.701  1.00  0.00    -0.446 C  
HETATM    4  C   UNL     1     -10.860  18.590  67.649  1.00  0.00    -0.319 C  
HETATM    5  N   UNL     1      -9.373  17.723  65.852  1.00  0.00    -0.514 NA 
HETATM    6  H   UNL     1      -8.468  17.833  65.394  1.00  0.00     0.000 HD 
ENDROOT
BRANCH   5   7
HETATM    7  C   UNL     1      -9.676  16.301  66.048  1.00  0.00    -0.339 C  
BRANCH   7   8
HETATM    8  C   UNL     1     -10.991  15.869  65.364  1.00  0.00    -0.285 C  
HETATM    9  H   UNL     1     -12.020  16.364  63.754  1.00  0.00     0.000 HD 
HETATM   10  O   UNL     1     -11.211  16.631  64.174  1.00  0.00    -1.103 OA 
BRANCH   8  11
HETATM   11  C   UNL     1     -10.910  14.365  65.043  1.00  0.00    -0.407 C  
BRANCH  11  12
HETATM   12  O   UNL     1      -9.984  13.724  65.921  1.00  0.00    -0.297 OA 
BRANCH  12  13
HETATM   13  C   UNL     1     -10.443  12.842  66.867  1.00  0.00    -0.240 A  
HETATM   14  C   UNL     1     -11.205  13.492  67.856  1.00  0.00    -0.302 A  
HETATM   15  C   UNL     1     -11.869  12.780  68.855  1.00  0.00    -0.351 A  
HETATM   16  C   UNL     1     -11.821  11.394  68.849  1.00  0.00    -0.413 A  
HETATM   17  C   UNL     1     -11.092  10.731  67.861  1.00  0.00    -0.308 A  
HETATM   18  C   UNL     1     -10.353  11.434  66.881  1.00  0.00    -0.262 A  
HETATM   19  C   UNL     1      -9.651  10.609  65.835  1.00  0.00    -0.253 C  
HETATM   20  C   UNL     1      -9.371   9.171  66.232  1.00  0.00    -0.274 C  
HETATM   21  C   UNL     1     -10.519   8.530  66.946  1.00  0.00    -0.275 C  
HETATM   22  N   UNL     1     -11.196   9.336  67.820  1.00  0.00    -0.412 N  
HETATM   23  O   UNL     1     -10.768   7.331  66.857  1.00  0.00    -0.338 OA 
HETATM   24  H   UNL     1     -11.821   8.888  68.490  1.00  0.00     0.000 HD 
ENDBRANCH  12  13
ENDBRANCH  11  12
ENDBRANCH   8  11
ENDBRANCH   7   8
ENDBRANCH   5   7
TORSDOF 5
ENDMDL
MODEL       41
REMARK 921   NORMALIZED FREE ENERGY PREDICTED BY IDOCK:   -5.69 KCAL/MOL
REMARK 922        TOTAL FREE ENERGY PREDICTED BY IDOCK:   -7.98 KCAL/MOL
REMARK 923 INTER-LIGAND FREE ENERGY PREDICTED BY IDOCK:   -6.84 KCAL/MOL
REMARK 924 INTRA-LIGAND FREE ENERGY PREDICTED BY IDOCK:   -1.14 KCAL/MOL
REMARK 927      BINDING AFFINITY PREDICTED BY RF-SCORE:    0.00 PKD
ROOT
HETATM    1  C   UNL     1     -10.323   8.504  71.920  1.00  0.00    -0.378 C  
HETATM    2  C   UNL     1     -11.192   7.556  71.074  1.00  0.00    -0.263 C  
HETATM    3  C   UNL     1     -12.642   7.647  71.584  1.00  0.00    -0.365 C  
HETATM    4  C   UNL     1     -10.712   6.104  71.256  1.00  0.00    -0.310 C  
HETATM    5  N   UNL     1     -11.207   7.937  69.647  1.00  0.00    -0.448 NA 
HETATM    6  H   UNL     1     -11.684   8.830  69.522  1.00  0.00     0.000 HD 
ENDROOT
BRANCH   5   7
HETATM    7  C   UNL     1      -9.885   7.972  69.012  1.00  0.00    -0.178 C  
BRANCH   7   8
HETATM    8  C   UNL     1      -9.513   9.372  68.479  1.00  0.00    -0.145 C  
HETATM    9  H   UNL     1      -7.905  10.277  67.775  1.00  0.00     0.000 HD 
HETATM   10  O   UNL     1      -8.133   9.415  68.103  1.00  0.00    -0.108 OA 
BRANCH   8  11
HETATM   11  C   UNL     1     -10.417   9.699  67.277  1.00  0.00    -0.258 C  
BRANCH  11  12
HETATM   12  O   UNL     1     -11.636  10.293  67.725  1.00  0.00    -0.331 OA 
BRANCH  12  13
HETATM   13  C   UNL     1     -11.618  11.553  68.271  1.00  0.00    -0.308 A  
HETATM   14  C   UNL     1     -11.125  12.506  67.359  1.00  0.00    -0.317 A  
HETATM   15  C   UNL     1     -11.123  13.869  67.654  1.00  0.00    -0.295 A  
HETATM   16  C   UNL     1     -11.666  14.307  68.853  1.00  0.00    -0.363 A  
HETATM   17  C   UNL     1     -12.183  13.379  69.758  1.00  0.00    -0.245 A  
HETATM   18  C   UNL     1     -12.131  11.987  69.511  1.00  0.00    -0.273 A  
HETATM   19  C   UNL     1     -12.771  11.088  70.535  1.00  0.00    -0.331 C  
HETATM   20  C   UNL     1     -12.919  11.695  71.920  1.00  0.00    -0.442 C  
HETATM   21  C   UNL     1     -13.374  13.119  71.885  1.00  0.00    -0.455 C  
HETATM   22  N   UNL     1     -12.845  13.885  70.882  1.00  0.00    -0.321 N  
HETATM   23  O   UNL     1     -14.074  13.612  72.765  1.00  0.00    -0.711 OA 
HETATM   24  H   UNL     1     -12.939  14.898  70.960  1.00  0.00     0.000 HD 
ENDBRANCH  12  13
ENDBRANCH  11  12
ENDBRANCH   8  11
ENDBRANCH   7   8
ENDBRANCH   5   7
TORSDOF 5
ENDMDL
MODEL       42
REMARK 921   NORMALIZED FREE ENERGY PREDICTED BY IDOCK:   -5.66 KCAL/MOL
REMARK 922        TOTAL FREE ENERGY PREDICTED BY IDOCK:   -7.95 KCAL/MOL
REMARK 923 INTER-LIGAND FREE ENERGY PREDICTED BY IDOCK:   -7.09 KCAL/MOL
REMARK 924 INTRA-LIGAND FREE ENERGY PREDICTED BY IDOCK:   -0.86 KCAL/MOL
REMARK 927      BINDING AFFINITY PREDICTED BY RF-SCORE:    0.00 PKD
ROOT
HETATM    1  C   UNL     1      -9.540  10.353  68.433  1.00  0.00    -0.153 C  
HETATM    2  C   UNL     1      -9.081   9.389  69.541  1.00  0.00    -0.165 C  
HETATM    3  C   UNL     1      -7.719   9.874  70.069  1.00  0.00    -0.188 C  
HETATM    4  C   UNL     1      -8.892   7.976  68.958  1.00  0.00    -0.145 C  
HETATM    5  N   UNL     1     -10.012   9.371  70.687  1.00  0.00    -0.268 NA 
HETATM    6  H   UNL     1      -9.999  10.270  71.169  1.00  0.00     0.000 HD 
ENDROOT
BRANCH   5   7
HETATM    7  C   UNL     1     -11.389   8.995  70.347  1.00  0.00    -0.210 C  
BRANCH   7   8
HETATM    8  C   UNL     1     -12.324   8.970  71.575  1.00  0.00    -0.331 C  
HETATM    9  H   UNL     1     -12.185   8.539  73.497  1.00  0.00     0.000 HD 
HETATM   10  O   UNL     1     -11.609   8.553  72.742  1.00  0.00    -0.312 OA 
BRANCH   8  11
HETATM   11  C   UNL     1     -12.918  10.377  71.772  1.00  0.00    -0.475 C  
BRANCH  11  12
HETATM   12  O   UNL     1     -12.262  11.313  70.915  1.00  0.00    -0.365 OA 
BRANCH  12  13
HETATM   13  C   UNL     1     -12.650  12.629  70.920  1.00  0.00    -0.249 A  
HETATM   14  C   UNL     1     -13.419  12.938  72.059  1.00  0.00    -0.568 A  
HETATM   15  C   UNL     1     -13.827  14.243  72.335  1.00  0.00    -0.619 A  
HETATM   16  C   UNL     1     -13.425  15.273  71.497  1.00  0.00    -0.577 A  
HETATM   17  C   UNL     1     -12.641  14.989  70.378  1.00  0.00    -0.350 A  
HETATM   18  C   UNL     1     -12.276  13.665  70.040  1.00  0.00    -0.395 A  
HETATM   19  C   UNL     1     -11.382  13.490  68.841  1.00  0.00    -0.332 C  
HETATM   20  C   UNL     1     -11.407  14.638  67.847  1.00  0.00    -0.332 C  
HETATM   21  C   UNL     1     -11.401  15.979  68.510  1.00  0.00    -0.382 C  
HETATM   22  N   UNL     1     -12.149  16.078  69.651  1.00  0.00    -0.308 N  
HETATM   23  O   UNL     1     -10.871  16.965  68.005  1.00  0.00    -0.363 OA 
HETATM   24  H   UNL     1     -12.362  17.014  69.997  1.00  0.00     0.000 HD 
ENDBRANCH  12  13
ENDBRANCH  11  12
ENDBRANCH   8  11
ENDBRANCH   7   8
ENDBRANCH   5   7
TORSDOF 5
ENDMDL
MODEL       43
REMARK 921   NORMALIZED FREE ENERGY PREDICTED BY IDOCK:   -5.65 KCAL/MOL
REMARK 922        TOTAL FREE ENERGY PREDICTED BY IDOCK:   -7.93 KCAL/MOL
REMARK 923 INTER-LIGAND FREE ENERGY PREDICTED BY IDOCK:   -7.28 KCAL/MOL
REMARK 924 INTRA-LIGAND FREE ENERGY PREDICTED BY IDOCK:   -0.65 KCAL/MOL
REMARK 927      BINDING AFFINITY PREDICTED BY RF-SCORE:    0.00 PKD
ROOT
HETATM    1  C   UNL     1     -10.452   5.222  69.880  1.00  0.00    -0.351 C  
HETATM    2  C   UNL     1     -10.333   6.428  68.931  1.00  0.00    -0.201 C  
HETATM    3  C   UNL     1     -10.898   6.019  67.558  1.00  0.00    -0.393 C  
HETATM    4  C   UNL     1      -8.850   6.802  68.744  1.00  0.00    -0.131 C  
HETATM    5  N   UNL     1     -11.120   7.587  69.399  1.00  0.00    -0.443 NA 
HETATM    6  H   UNL     1     -12.117   7.380  69.355  1.00  0.00     0.000 HD 
ENDROOT
BRANCH   5   7
HETATM    7  C   UNL     1     -10.757   8.068  70.736  1.00  0.00    -0.223 C  
BRANCH   7   8
HETATM    8  C   UNL     1     -11.939   8.030  71.729  1.00  0.00    -0.301 C  
HETATM    9  H   UNL     1     -12.200   7.740  73.664  1.00  0.00     0.000 HD 
HETATM   10  O   UNL     1     -11.472   7.763  73.054  1.00  0.00    -0.372 OA 
BRANCH   8  11
HETATM   11  C   UNL     1     -12.677   9.379  71.670  1.00  0.00    -0.374 C  
BRANCH  11  12
HETATM   12  O   UNL     1     -12.036  10.251  70.738  1.00  0.00    -0.303 OA 
BRANCH  12  13
HETATM   13  C   UNL     1     -12.424  11.565  70.657  1.00  0.00    -0.314 A  
HETATM   14  C   UNL     1     -13.074  11.987  71.833  1.00  0.00    -0.475 A  
HETATM   15  C   UNL     1     -13.454  13.315  72.023  1.00  0.00    -0.596 A  
HETATM   16  C   UNL     1     -13.142  14.258  71.055  1.00  0.00    -0.394 A  
HETATM   17  C   UNL     1     -12.475  13.863  69.894  1.00  0.00    -0.229 A  
HETATM   18  C   UNL     1     -12.143  12.510  69.649  1.00  0.00    -0.272 A  
HETATM   19  C   UNL     1     -11.376  12.214  68.388  1.00  0.00    -0.336 C  
HETATM   20  C   UNL     1     -11.503  13.264  67.297  1.00  0.00    -0.378 C  
HETATM   21  C   UNL     1     -11.433  14.661  67.824  1.00  0.00    -0.340 C  
HETATM   22  N   UNL     1     -12.061  14.874  69.021  1.00  0.00    -0.533 N  
HETATM   23  O   UNL     1     -10.958  15.590  67.177  1.00  0.00    -0.321 OA 
HETATM   24  H   UNL     1     -12.240  15.840  69.296  1.00  0.00     0.000 HD 
ENDBRANCH  12  13
ENDBRANCH  11  12
ENDBRANCH   8  11
ENDBRANCH   7   8
ENDBRANCH   5   7
TORSDOF 5
ENDMDL
MODEL       44
REMARK 921   NORMALIZED FREE ENERGY PREDICTED BY IDOCK:   -5.65 KCAL/MOL
REMARK 922        TOTAL FREE ENERGY PREDICTED BY IDOCK:   -7.93 KCAL/MOL
REMARK 923 INTER-LIGAND FREE ENERGY PREDICTED BY IDOCK:   -7.14 KCAL/MOL
REMARK 924 INTRA-LIGAND FREE ENERGY PREDICTED BY IDOCK:   -0.79 KCAL/MOL
REMARK 927      BINDING AFFINITY PREDICTED BY RF-SCORE:    0.00 PKD
ROOT
HETATM    1  C   UNL     1     -10.475  13.671  64.463  1.00  0.00    -0.411 C  
HETATM    2  C   UNL     1     -11.671  12.760  64.792  1.00  0.00    -0.352 C  
HETATM    3  C   UNL     1     -12.243  12.219  63.469  1.00  0.00    -0.669 C  
HETATM    4  C   UNL     1     -12.773  13.577  65.491  1.00  0.00    -0.493 C  
HETATM    5  N   UNL     1     -11.276  11.592  65.606  1.00  0.00    -0.261 NA 
HETATM    6  H   UNL     1     -10.676  10.969  65.066  1.00  0.00     0.000 HD 
ENDROOT
BRANCH   5   7
HETATM    7  C   UNL     1     -10.641  11.929  66.885  1.00  0.00    -0.230 C  
BRANCH   7   8
HETATM    8  C   UNL     1     -10.996  10.934  68.011  1.00  0.00    -0.265 C  
HETATM    9  H   UNL     1     -10.027   9.791  69.297  1.00  0.00     0.000 HD 
HETATM   10  O   UNL     1      -9.808  10.403  68.604  1.00  0.00    -0.163 OA 
BRANCH   8  11
HETATM   11  C   UNL     1     -11.853  11.663  69.062  1.00  0.00    -0.328 C  
BRANCH  11  12
HETATM   12  O   UNL     1     -12.233  12.952  68.579  1.00  0.00    -0.203 OA 
BRANCH  12  13
HETATM   13  C   UNL     1     -12.090  14.051  69.389  1.00  0.00    -0.340 A  
HETATM   14  C   UNL     1     -12.437  13.761  70.723  1.00  0.00    -0.441 A  
HETATM   15  C   UNL     1     -12.261  14.694  71.745  1.00  0.00    -0.409 A  
HETATM   16  C   UNL     1     -11.682  15.921  71.454  1.00  0.00    -0.530 A  
HETATM   17  C   UNL     1     -11.308  16.216  70.142  1.00  0.00    -0.340 A  
HETATM   18  C   UNL     1     -11.542  15.314  69.078  1.00  0.00    -0.360 A  
HETATM   19  C   UNL     1     -11.044  15.720  67.717  1.00  0.00    -0.313 C  
HETATM   20  C   UNL     1     -10.838  17.213  67.528  1.00  0.00    -0.203 C  
HETATM   21  C   UNL     1     -10.196  17.866  68.710  1.00  0.00    -0.360 C  
HETATM   22  N   UNL     1     -10.602  17.406  69.933  1.00  0.00    -0.127 N  
HETATM   23  O   UNL     1      -9.450  18.835  68.607  1.00  0.00    -0.344 OA 
HETATM   24  H   UNL     1     -10.374  17.971  70.751  1.00  0.00     0.000 HD 
ENDBRANCH  12  13
ENDBRANCH  11  12
ENDBRANCH   8  11
ENDBRANCH   7   8
ENDBRANCH   5   7
TORSDOF 5
ENDMDL
MODEL       45
REMARK 921   NORMALIZED FREE ENERGY PREDICTED BY IDOCK:   -5.65 KCAL/MOL
REMARK 922        TOTAL FREE ENERGY PREDICTED BY IDOCK:   -7.93 KCAL/MOL
REMARK 923 INTER-LIGAND FREE ENERGY PREDICTED BY IDOCK:   -7.21 KCAL/MOL
REMARK 924 INTRA-LIGAND FREE ENERGY PREDICTED BY IDOCK:   -0.72 KCAL/MOL
REMARK 927      BINDING AFFINITY PREDICTED BY RF-SCORE:    0.00 PKD
ROOT
HETATM    1  C   UNL     1     -11.979  15.608  72.186  1.00  0.00    -0.552 C  
HETATM    2  C   UNL     1     -12.983  14.830  71.317  1.00  0.00    -0.346 C  
HETATM    3  C   UNL     1     -14.399  15.340  71.643  1.00  0.00    -0.666 C  
HETATM    4  C   UNL     1     -12.923  13.331  71.665  1.00  0.00    -0.441 C  
HETATM    5  N   UNL     1     -12.762  15.052  69.874  1.00  0.00    -0.602 NA 
HETATM    6  H   UNL     1     -12.971  16.019  69.627  1.00  0.00     0.000 HD 
ENDROOT
BRANCH   5   7
HETATM    7  C   UNL     1     -11.423  14.683  69.400  1.00  0.00    -0.296 C  
BRANCH   7   8
HETATM    8  C   UNL     1     -11.423  14.169  67.944  1.00  0.00    -0.312 C  
HETATM    9  H   UNL     1     -10.102  13.892  66.503  1.00  0.00     0.000 HD 
HETATM   10  O   UNL     1     -10.101  14.209  67.398  1.00  0.00    -0.237 OA 
BRANCH   8  11
HETATM   11  C   UNL     1     -11.977  12.732  67.928  1.00  0.00    -0.266 C  
BRANCH  11  12
HETATM   12  O   UNL     1     -11.530  12.019  69.081  1.00  0.00    -0.256 OA 
BRANCH  12  13
HETATM   13  C   UNL     1     -11.244  10.681  68.985  1.00  0.00    -0.265 A  
HETATM   14  C   UNL     1     -10.669  10.362  67.739  1.00  0.00    -0.327 A  
HETATM   15  C   UNL     1     -10.191   9.082  67.459  1.00  0.00    -0.302 A  
HETATM   16  C   UNL     1     -10.234   8.108  68.447  1.00  0.00    -0.240 A  
HETATM   17  C   UNL     1     -10.777   8.413  69.696  1.00  0.00    -0.198 A  
HETATM   18  C   UNL     1     -11.332   9.683  69.978  1.00  0.00    -0.239 A  
HETATM   19  C   UNL     1     -11.836   9.911  71.378  1.00  0.00    -0.476 C  
HETATM   20  C   UNL     1     -12.180   8.649  72.151  1.00  0.00    -0.453 C  
HETATM   21  C   UNL     1     -11.175   7.558  71.958  1.00  0.00    -0.257 C  
HETATM   22  N   UNL     1     -10.664   7.440  70.695  1.00  0.00    -0.225 N  
HETATM   23  O   UNL     1     -10.912   6.738  72.834  1.00  0.00    -0.253 OA 
HETATM   24  H   UNL     1     -10.167   6.580  70.464  1.00  0.00     0.000 HD 
ENDBRANCH  12  13
ENDBRANCH  11  12
ENDBRANCH   8  11
ENDBRANCH   7   8
ENDBRANCH   5   7
TORSDOF 5
ENDMDL
MODEL       46
REMARK 921   NORMALIZED FREE ENERGY PREDICTED BY IDOCK:   -5.65 KCAL/MOL
REMARK 922        TOTAL FREE ENERGY PREDICTED BY IDOCK:   -7.93 KCAL/MOL
REMARK 923 INTER-LIGAND FREE ENERGY PREDICTED BY IDOCK:   -7.13 KCAL/MOL
REMARK 924 INTRA-LIGAND FREE ENERGY PREDICTED BY IDOCK:   -0.80 KCAL/MOL
REMARK 927      BINDING AFFINITY PREDICTED BY RF-SCORE:    0.00 PKD
ROOT
HETATM    1  C   UNL     1     -10.417  15.762  67.600  1.00  0.00    -0.282 C  
HETATM    2  C   UNL     1      -9.203  15.324  66.762  1.00  0.00    -0.250 C  
HETATM    3  C   UNL     1      -8.229  14.568  67.684  1.00  0.00    -0.187 C  
HETATM    4  C   UNL     1      -8.475  16.563  66.210  1.00  0.00    -0.363 C  
HETATM    5  N   UNL     1      -9.581  14.399  65.674  1.00  0.00    -0.537 NA 
HETATM    6  H   UNL     1      -9.905  13.511  66.059  1.00  0.00     0.000 HD 
ENDROOT
BRANCH   5   7
HETATM    7  C   UNL     1     -10.568  14.938  64.733  1.00  0.00    -0.308 C  
BRANCH   7   8
HETATM    8  C   UNL     1     -11.868  14.105  64.685  1.00  0.00    -0.431 C  
HETATM    9  H   UNL     1     -13.295  13.715  63.377  1.00  0.00     0.000 HD 
HETATM   10  O   UNL     1     -12.495  14.228  63.405  1.00  0.00    -0.761 OA 
BRANCH   8  11
HETATM   11  C   UNL     1     -11.524  12.635  64.987  1.00  0.00    -0.329 C  
BRANCH  11  12
HETATM   12  O   UNL     1     -11.376  12.444  66.394  1.00  0.00    -0.304 OA 
BRANCH  12  13
HETATM   13  C   UNL     1     -11.109  11.190  66.886  1.00  0.00    -0.247 A  
HETATM   14  C   UNL     1     -10.467  10.383  65.927  1.00  0.00    -0.196 A  
HETATM   15  C   UNL     1      -9.997   9.108  66.240  1.00  0.00    -0.352 A  
HETATM   16  C   UNL     1     -10.116   8.638  67.540  1.00  0.00    -0.277 A  
HETATM   17  C   UNL     1     -10.727   9.435  68.510  1.00  0.00    -0.161 A  
HETATM   18  C   UNL     1     -11.274  10.701  68.199  1.00  0.00    -0.366 A  
HETATM   19  C   UNL     1     -11.857  11.491  69.340  1.00  0.00    -0.417 C  
HETATM   20  C   UNL     1     -12.270  10.667  70.547  1.00  0.00    -0.449 C  
HETATM   21  C   UNL     1     -11.275   9.604  70.893  1.00  0.00    -0.352 C  
HETATM   22  N   UNL     1     -10.692   8.971  69.829  1.00  0.00    -0.228 N  
HETATM   23  O   UNL     1     -11.080   9.230  72.046  1.00  0.00    -0.331 OA 
HETATM   24  H   UNL     1     -10.198   8.098  70.012  1.00  0.00     0.000 HD 
ENDBRANCH  12  13
ENDBRANCH  11  12
ENDBRANCH   8  11
ENDBRANCH   7   8
ENDBRANCH   5   7
TORSDOF 5
ENDMDL
MODEL       47
REMARK 921   NORMALIZED FREE ENERGY PREDICTED BY IDOCK:   -5.63 KCAL/MOL
REMARK 922        TOTAL FREE ENERGY PREDICTED BY IDOCK:   -7.90 KCAL/MOL
REMARK 923 INTER-LIGAND FREE ENERGY PREDICTED BY IDOCK:   -7.15 KCAL/MOL
REMARK 924 INTRA-LIGAND FREE ENERGY PREDICTED BY IDOCK:   -0.75 KCAL/MOL
REMARK 927      BINDING AFFINITY PREDICTED BY RF-SCORE:    0.00 PKD
ROOT
HETATM    1  C   UNL     1     -10.297  13.130  64.670  1.00  0.00    -0.381 C  
HETATM    2  C   UNL     1     -11.828  13.181  64.521  1.00  0.00    -0.377 C  
HETATM    3  C   UNL     1     -12.250  12.103  63.506  1.00  0.00    -0.670 C  
HETATM    4  C   UNL     1     -12.254  14.553  63.966  1.00  0.00    -0.262 C  
HETATM    5  N   UNL     1     -12.523  12.881  65.790  1.00  0.00    -0.555 NA 
HETATM    6  H   UNL     1     -12.367  11.909  66.059  1.00  0.00     0.000 HD 
ENDROOT
BRANCH   5   7
HETATM    7  C   UNL     1     -12.178  13.778  66.899  1.00  0.00    -0.366 C  
BRANCH   7   8
HETATM    8  C   UNL     1     -11.728  13.020  68.166  1.00  0.00    -0.351 C  
HETATM    9  H   UNL     1     -11.822  11.175  68.863  1.00  0.00     0.000 HD 
HETATM   10  O   UNL     1     -12.099  11.641  68.083  1.00  0.00    -0.577 OA 
BRANCH   8  11
HETATM   11  C   UNL     1     -10.202  13.167  68.313  1.00  0.00    -0.250 C  
BRANCH  11  12
HETATM   12  O   UNL     1      -9.888  14.392  68.976  1.00  0.00    -0.193 OA 
BRANCH  12  13
HETATM   13  C   UNL     1      -9.071  15.308  68.361  1.00  0.00    -0.189 A  
HETATM   14  C   UNL     1      -7.791  14.777  68.113  1.00  0.00    -0.125 A  
HETATM   15  C   UNL     1      -6.830  15.488  67.394  1.00  0.00    -0.224 A  
HETATM   16  C   UNL     1      -7.155  16.728  66.864  1.00  0.00    -0.258 A  
HETATM   17  C   UNL     1      -8.429  17.258  67.077  1.00  0.00    -0.219 A  
HETATM   18  C   UNL     1      -9.395  16.587  67.863  1.00  0.00    -0.216 A  
HETATM   19  C   UNL     1     -10.750  17.233  67.974  1.00  0.00    -0.367 C  
HETATM   20  C   UNL     1     -10.775  18.726  67.699  1.00  0.00    -0.449 C  
HETATM   21  C   UNL     1      -9.931  19.116  66.528  1.00  0.00    -0.383 C  
HETATM   22  N   UNL     1      -8.747  18.442  66.402  1.00  0.00    -0.274 N  
HETATM   23  O   UNL     1     -10.210  20.061  65.796  1.00  0.00    -0.468 OA 
HETATM   24  H   UNL     1      -8.046  18.830  65.771  1.00  0.00     0.000 HD 
ENDBRANCH  12  13
ENDBRANCH  11  12
ENDBRANCH   8  11
ENDBRANCH   7   8
ENDBRANCH   5   7
TORSDOF 5
ENDMDL
MODEL       48
REMARK 921   NORMALIZED FREE ENERGY PREDICTED BY IDOCK:   -5.62 KCAL/MOL
REMARK 922        TOTAL FREE ENERGY PREDICTED BY IDOCK:   -7.89 KCAL/MOL
REMARK 923 INTER-LIGAND FREE ENERGY PREDICTED BY IDOCK:   -7.21 KCAL/MOL
REMARK 924 INTRA-LIGAND FREE ENERGY PREDICTED BY IDOCK:   -0.68 KCAL/MOL
REMARK 927      BINDING AFFINITY PREDICTED BY RF-SCORE:    0.00 PKD
ROOT
HETATM    1  C   UNL     1     -10.752   5.596  69.635  1.00  0.00    -0.398 C  
HETATM    2  C   UNL     1     -10.427   6.739  68.658  1.00  0.00    -0.206 C  
HETATM    3  C   UNL     1     -10.973   6.356  67.270  1.00  0.00    -0.474 C  
HETATM    4  C   UNL     1      -8.901   6.910  68.541  1.00  0.00    -0.124 C  
HETATM    5  N   UNL     1     -11.076   8.008  69.046  1.00  0.00    -0.412 NA 
HETATM    6  H   UNL     1     -12.090   7.931  68.955  1.00  0.00     0.000 HD 
ENDROOT
BRANCH   5   7
HETATM    7  C   UNL     1     -10.721   8.488  70.386  1.00  0.00    -0.228 C  
BRANCH   7   8
HETATM    8  C   UNL     1     -11.955   8.850  71.240  1.00  0.00    -0.307 C  
HETATM    9  H   UNL     1     -12.492   8.732  73.137  1.00  0.00     0.000 HD 
HETATM   10  O   UNL     1     -11.733   8.509  72.612  1.00  0.00    -0.363 OA 
BRANCH   8  11
HETATM   11  C   UNL     1     -12.235  10.357  71.090  1.00  0.00    -0.394 C  
BRANCH  11  12
HETATM   12  O   UNL     1     -11.821  10.808  69.800  1.00  0.00    -0.287 OA 
BRANCH  12  13
HETATM   13  C   UNL     1     -11.971  12.129  69.461  1.00  0.00    -0.275 A  
HETATM   14  C   UNL     1     -12.199  12.933  70.594  1.00  0.00    -0.386 A  
HETATM   15  C   UNL     1     -12.267  14.323  70.505  1.00  0.00    -0.427 A  
HETATM   16  C   UNL     1     -12.055  14.937  69.279  1.00  0.00    -0.286 A  
HETATM   17  C   UNL     1     -11.802  14.158  68.149  1.00  0.00    -0.352 A  
HETATM   18  C   UNL     1     -11.799  12.744  68.203  1.00  0.00    -0.372 A  
HETATM   19  C   UNL     1     -11.458  12.014  66.931  1.00  0.00    -0.402 C  
HETATM   20  C   UNL     1     -11.675  12.809  65.656  1.00  0.00    -0.443 C  
HETATM   21  C   UNL     1     -11.215  14.228  65.770  1.00  0.00    -0.317 C  
HETATM   22  N   UNL     1     -11.456  14.833  66.974  1.00  0.00    -0.359 N  
HETATM   23  O   UNL     1     -10.767  14.858  64.816  1.00  0.00    -0.404 OA 
HETATM   24  H   UNL     1     -11.377  15.849  67.017  1.00  0.00     0.000 HD 
ENDBRANCH  12  13
ENDBRANCH  11  12
ENDBRANCH   8  11
ENDBRANCH   7   8
ENDBRANCH   5   7
TORSDOF 5
ENDMDL
MODEL       49
REMARK 921   NORMALIZED FREE ENERGY PREDICTED BY IDOCK:   -5.59 KCAL/MOL
REMARK 922        TOTAL FREE ENERGY PREDICTED BY IDOCK:   -7.85 KCAL/MOL
REMARK 923 INTER-LIGAND FREE ENERGY PREDICTED BY IDOCK:   -6.56 KCAL/MOL
REMARK 924 INTRA-LIGAND FREE ENERGY PREDICTED BY IDOCK:   -1.29 KCAL/MOL
REMARK 927      BINDING AFFINITY PREDICTED BY RF-SCORE:    0.00 PKD
ROOT
HETATM    1  C   UNL     1      -8.333  15.156  69.105  1.00  0.00    -0.221 C  
HETATM    2  C   UNL     1      -7.761  14.515  67.828  1.00  0.00    -0.156 C  
HETATM    3  C   UNL     1      -7.724  12.989  68.030  1.00  0.00    -0.145 C  
HETATM    4  C   UNL     1      -6.318  15.002  67.600  1.00  0.00    -0.156 C  
HETATM    5  N   UNL     1      -8.606  14.778  66.646  1.00  0.00    -0.426 NA 
HETATM    6  H   UNL     1      -9.504  14.304  66.738  1.00  0.00     0.000 HD 
ENDROOT
BRANCH   5   7
HETATM    7  C   UNL     1      -8.808  16.200  66.346  1.00  0.00    -0.320 C  
BRANCH   7   8
HETATM    8  C   UNL     1     -10.285  16.548  66.060  1.00  0.00    -0.356 C  
HETATM    9  H   UNL     1     -11.610  16.194  64.639  1.00  0.00     0.000 HD 
HETATM   10  O   UNL     1     -10.701  15.980  64.815  1.00  0.00    -0.611 OA 
BRANCH   8  11
HETATM   11  C   UNL     1     -11.151  16.020  67.218  1.00  0.00    -0.131 C  
BRANCH  11  12
HETATM   12  O   UNL     1     -11.700  14.745  66.880  1.00  0.00    -0.364 OA 
BRANCH  12  13
HETATM   13  C   UNL     1     -11.556  13.691  67.746  1.00  0.00    -0.338 A  
HETATM   14  C   UNL     1     -11.978  14.027  69.047  1.00  0.00    -0.392 A  
HETATM   15  C   UNL     1     -12.030  13.078  70.068  1.00  0.00    -0.383 A  
HETATM   16  C   UNL     1     -11.709  11.758  69.788  1.00  0.00    -0.408 A  
HETATM   17  C   UNL     1     -11.314  11.402  68.498  1.00  0.00    -0.271 A  
HETATM   18  C   UNL     1     -11.185  12.359  67.465  1.00  0.00    -0.348 A  
HETATM   19  C   UNL     1     -10.806  11.845  66.102  1.00  0.00    -0.334 C  
HETATM   20  C   UNL     1     -10.105  10.498  66.095  1.00  0.00    -0.306 C  
HETATM   21  C   UNL     1     -10.719   9.519  67.045  1.00  0.00    -0.149 C  
HETATM   22  N   UNL     1     -11.141  10.037  68.239  1.00  0.00    -0.452 N  
HETATM   23  O   UNL     1     -10.734   8.310  66.832  1.00  0.00    -0.299 OA 
HETATM   24  H   UNL     1     -11.343   9.383  68.994  1.00  0.00     0.000 HD 
ENDBRANCH  12  13
ENDBRANCH  11  12
ENDBRANCH   8  11
ENDBRANCH   7   8
ENDBRANCH   5   7
TORSDOF 5
ENDMDL
MODEL       50
REMARK 921   NORMALIZED FREE ENERGY PREDICTED BY IDOCK:   -5.57 KCAL/MOL
REMARK 922        TOTAL FREE ENERGY PREDICTED BY IDOCK:   -7.82 KCAL/MOL
REMARK 923 INTER-LIGAND FREE ENERGY PREDICTED BY IDOCK:   -7.12 KCAL/MOL
REMARK 924 INTRA-LIGAND FREE ENERGY PREDICTED BY IDOCK:   -0.70 KCAL/MOL
REMARK 927      BINDING AFFINITY PREDICTED BY RF-SCORE:    0.00 PKD
ROOT
HETATM    1  C   UNL     1     -11.951  12.511  68.719  1.00  0.00    -0.283 C  
HETATM    2  C   UNL     1     -11.229  12.024  67.450  1.00  0.00    -0.307 C  
HETATM    3  C   UNL     1     -11.141  10.487  67.505  1.00  0.00    -0.358 C  
HETATM    4  C   UNL     1      -9.794  12.583  67.418  1.00  0.00    -0.201 C  
HETATM    5  N   UNL     1     -11.965  12.375  66.219  1.00  0.00    -0.607 NA 
HETATM    6  H   UNL     1     -12.845  11.862  66.172  1.00  0.00     0.000 HD 
ENDROOT
BRANCH   5   7
HETATM    7  C   UNL     1     -12.202  13.812  66.040  1.00  0.00    -0.457 C  
BRANCH   7   8
HETATM    8  C   UNL     1     -11.607  14.359  64.725  1.00  0.00    -0.408 C  
HETATM    9  H   UNL     1     -12.255  15.327  63.131  1.00  0.00     0.000 HD 
HETATM   10  O   UNL     1     -12.622  14.991  63.940  1.00  0.00    -0.813 OA 
BRANCH   8  11
HETATM   11  C   UNL     1     -10.483  15.354  65.068  1.00  0.00    -0.381 C  
BRANCH  11  12
HETATM   12  O   UNL     1     -10.749  15.984  66.322  1.00  0.00    -0.301 OA 
BRANCH  12  13
HETATM   13  C   UNL     1     -10.002  17.067  66.712  1.00  0.00    -0.295 A  
HETATM   14  C   UNL     1     -10.629  18.280  66.366  1.00  0.00    -0.318 A  
HETATM   15  C   UNL     1     -10.109  19.512  66.763  1.00  0.00    -0.519 A  
HETATM   16  C   UNL     1      -8.975  19.547  67.562  1.00  0.00    -0.367 A  
HETATM   17  C   UNL     1      -8.356  18.354  67.936  1.00  0.00    -0.261 A  
HETATM   18  C   UNL     1      -8.824  17.097  67.486  1.00  0.00    -0.218 A  
HETATM   19  C   UNL     1      -8.106  15.878  68.001  1.00  0.00    -0.144 C  
HETATM   20  C   UNL     1      -6.690  16.125  68.492  1.00  0.00    -0.126 C  
HETATM   21  C   UNL     1      -6.564  17.380  69.296  1.00  0.00    -0.240 C  
HETATM   22  N   UNL     1      -7.304  18.442  68.855  1.00  0.00    -0.275 N  
HETATM   23  O   UNL     1      -5.759  17.499  70.215  1.00  0.00    -0.246 OA 
HETATM   24  H   UNL     1      -7.073  19.365  69.222  1.00  0.00     0.000 HD 
ENDBRANCH  12  13
ENDBRANCH  11  12
ENDBRANCH   8  11
ENDBRANCH   7   8
ENDBRANCH   5   7
TORSDOF 5
ENDMDL
MODEL       51
REMARK 921   NORMALIZED FREE ENERGY PREDICTED BY IDOCK:   -5.56 KCAL/MOL
REMARK 922        TOTAL FREE ENERGY PREDICTED BY IDOCK:   -7.81 KCAL/MOL
REMARK 923 INTER-LIGAND FREE ENERGY PREDICTED BY IDOCK:   -7.39 KCAL/MOL
REMARK 924 INTRA-LIGAND FREE ENERGY PREDICTED BY IDOCK:   -0.42 KCAL/MOL
REMARK 927      BINDING AFFINITY PREDICTED BY RF-SCORE:    0.00 PKD
ROOT
HETATM    1  C   UNL     1      -9.924   6.840  74.025  1.00  0.00    -0.367 C  
HETATM    2  C   UNL     1     -10.765   6.366  72.826  1.00  0.00    -0.239 C  
HETATM    3  C   UNL     1     -11.279   4.947  73.128  1.00  0.00    -0.403 C  
HETATM    4  C   UNL     1      -9.883   6.296  71.565  1.00  0.00    -0.193 C  
HETATM    5  N   UNL     1     -11.948   7.221  72.602  1.00  0.00    -0.528 NA 
HETATM    6  H   UNL     1     -12.607   7.125  73.374  1.00  0.00     0.000 HD 
ENDROOT
BRANCH   5   7
HETATM    7  C   UNL     1     -11.641   8.636  72.366  1.00  0.00    -0.315 C  
BRANCH   7   8
HETATM    8  C   UNL     1     -12.310   9.190  71.090  1.00  0.00    -0.267 C  
HETATM    9  H   UNL     1     -14.022  10.045  70.603  1.00  0.00     0.000 HD 
HETATM   10  O   UNL     1     -13.611   9.704  71.388  1.00  0.00    -0.358 OA 
BRANCH   8  11
HETATM   11  C   UNL     1     -11.410  10.290  70.498  1.00  0.00    -0.341 C  
BRANCH  11  12
HETATM   12  O   UNL     1     -12.034  10.873  69.353  1.00  0.00    -0.313 OA 
BRANCH  12  13
HETATM   13  C   UNL     1     -12.035  12.237  69.199  1.00  0.00    -0.249 A  
HETATM   14  C   UNL     1     -12.045  12.899  70.442  1.00  0.00    -0.385 A  
HETATM   15  C   UNL     1     -11.933  14.286  70.533  1.00  0.00    -0.402 A  
HETATM   16  C   UNL     1     -11.754  15.033  69.377  1.00  0.00    -0.351 A  
HETATM   17  C   UNL     1     -11.715  14.390  68.139  1.00  0.00    -0.342 A  
HETATM   18  C   UNL     1     -11.898  12.993  68.016  1.00  0.00    -0.391 A  
HETATM   19  C   UNL     1     -11.779  12.408  66.634  1.00  0.00    -0.438 C  
HETATM   20  C   UNL     1     -12.004  13.392  65.499  1.00  0.00    -0.433 C  
HETATM   21  C   UNL     1     -11.348  14.714  65.737  1.00  0.00    -0.340 C  
HETATM   22  N   UNL     1     -11.391  15.173  67.025  1.00  0.00    -0.316 N  
HETATM   23  O   UNL     1     -10.909  15.410  64.825  1.00  0.00    -0.422 OA 
HETATM   24  H   UNL     1     -11.172  16.156  67.185  1.00  0.00     0.000 HD 
ENDBRANCH  12  13
ENDBRANCH  11  12
ENDBRANCH   8  11
ENDBRANCH   7   8
ENDBRANCH   5   7
TORSDOF 5
ENDMDL
MODEL       52
REMARK 921   NORMALIZED FREE ENERGY PREDICTED BY IDOCK:   -5.55 KCAL/MOL
REMARK 922        TOTAL FREE ENERGY PREDICTED BY IDOCK:   -7.81 KCAL/MOL
REMARK 923 INTER-LIGAND FREE ENERGY PREDICTED BY IDOCK:   -7.66 KCAL/MOL
REMARK 924 INTRA-LIGAND FREE ENERGY PREDICTED BY IDOCK:   -0.15 KCAL/MOL
REMARK 927      BINDING AFFINITY PREDICTED BY RF-SCORE:    0.00 PKD
ROOT
HETATM    1  C   UNL     1      -8.801  18.361  68.249  1.00  0.00    -0.323 C  
HETATM    2  C   UNL     1      -8.926  18.889  66.809  1.00  0.00    -0.313 C  
HETATM    3  C   UNL     1      -7.557  19.451  66.381  1.00  0.00    -0.283 C  
HETATM    4  C   UNL     1      -9.950  20.039  66.761  1.00  0.00    -0.585 C  
HETATM    5  N   UNL     1      -9.278  17.822  65.852  1.00  0.00    -0.517 NA 
HETATM    6  H   UNL     1      -8.512  17.153  65.767  1.00  0.00     0.000 HD 
ENDROOT
BRANCH   5   7
HETATM    7  C   UNL     1     -10.533  17.124  66.153  1.00  0.00    -0.275 C  
BRANCH   7   8
HETATM    8  C   UNL     1     -10.390  15.587  66.107  1.00  0.00    -0.315 C  
HETATM    9  H   UNL     1      -8.925  14.264  66.149  1.00  0.00     0.000 HD 
HETATM   10  O   UNL     1      -9.012  15.209  66.177  1.00  0.00    -0.279 OA 
BRANCH   8  11
HETATM   11  C   UNL     1     -11.183  14.982  67.280  1.00  0.00    -0.338 C  
BRANCH  11  12
HETATM   12  O   UNL     1     -12.219  14.132  66.787  1.00  0.00    -0.447 OA 
BRANCH  12  13
HETATM   13  C   UNL     1     -11.945  13.237  65.783  1.00  0.00    -0.417 A  
HETATM   14  C   UNL     1     -12.275  13.760  64.518  1.00  0.00    -0.441 A  
HETATM   15  C   UNL     1     -11.976  13.072  63.341  1.00  0.00    -0.592 A  
HETATM   16  C   UNL     1     -11.291  11.868  63.412  1.00  0.00    -0.465 A  
HETATM   17  C   UNL     1     -10.933  11.348  64.656  1.00  0.00    -0.255 A  
HETATM   18  C   UNL     1     -11.288  11.992  65.864  1.00  0.00    -0.391 A  
HETATM   19  C   UNL     1     -10.797  11.364  67.141  1.00  0.00    -0.316 C  
HETATM   20  C   UNL     1     -10.453   9.888  67.041  1.00  0.00    -0.296 C  
HETATM   21  C   UNL     1      -9.713   9.547  65.787  1.00  0.00    -0.287 C  
HETATM   22  N   UNL     1     -10.122  10.207  64.660  1.00  0.00    -0.350 N  
HETATM   23  O   UNL     1      -8.880   8.647  65.733  1.00  0.00    -0.172 OA 
HETATM   24  H   UNL     1      -9.814   9.842  63.759  1.00  0.00     0.000 HD 
ENDBRANCH  12  13
ENDBRANCH  11  12
ENDBRANCH   8  11
ENDBRANCH   7   8
ENDBRANCH   5   7
TORSDOF 5
ENDMDL
MODEL       53
REMARK 921   NORMALIZED FREE ENERGY PREDICTED BY IDOCK:   -5.52 KCAL/MOL
REMARK 922        TOTAL FREE ENERGY PREDICTED BY IDOCK:   -7.76 KCAL/MOL
REMARK 923 INTER-LIGAND FREE ENERGY PREDICTED BY IDOCK:   -7.25 KCAL/MOL
REMARK 924 INTRA-LIGAND FREE ENERGY PREDICTED BY IDOCK:   -0.51 KCAL/MOL
REMARK 927      BINDING AFFINITY PREDICTED BY RF-SCORE:    0.00 PKD
ROOT
HETATM    1  C   UNL     1      -5.696  19.543  67.889  1.00  0.00    -0.217 C  
HETATM    2  C   UNL     1      -6.548  19.066  69.079  1.00  0.00    -0.287 C  
HETATM    3  C   UNL     1      -6.247  19.977  70.283  1.00  0.00    -0.386 C  
HETATM    4  C   UNL     1      -6.156  17.626  69.459  1.00  0.00    -0.250 C  
HETATM    5  N   UNL     1      -7.996  19.169  68.805  1.00  0.00    -0.354 NA 
HETATM    6  H   UNL     1      -8.273  20.147  68.723  1.00  0.00     0.000 HD 
ENDROOT
BRANCH   5   7
HETATM    7  C   UNL     1      -8.450  18.411  67.634  1.00  0.00    -0.255 C  
BRANCH   7   8
HETATM    8  C   UNL     1      -9.205  19.285  66.610  1.00  0.00    -0.338 C  
HETATM    9  H   UNL     1      -8.771  20.314  64.981  1.00  0.00     0.000 HD 
HETATM   10  O   UNL     1      -8.306  19.777  65.611  1.00  0.00    -0.376 OA 
BRANCH   8  11
HETATM   11  C   UNL     1     -10.323  18.442  65.970  1.00  0.00    -0.375 C  
BRANCH  11  12
HETATM   12  O   UNL     1      -9.868  17.106  65.750  1.00  0.00    -0.530 OA 
BRANCH  12  13
HETATM   13  C   UNL     1     -10.743  16.058  65.886  1.00  0.00    -0.280 A  
HETATM   14  C   UNL     1     -11.094  15.509  64.638  1.00  0.00    -0.373 A  
HETATM   15  C   UNL     1     -11.882  14.363  64.537  1.00  0.00    -0.463 A  
HETATM   16  C   UNL     1     -12.290  13.713  65.693  1.00  0.00    -0.518 A  
HETATM   17  C   UNL     1     -11.929  14.228  66.939  1.00  0.00    -0.438 A  
HETATM   18  C   UNL     1     -11.191  15.428  67.066  1.00  0.00    -0.229 A  
HETATM   19  C   UNL     1     -10.815  15.853  68.461  1.00  0.00    -0.298 C  
HETATM   20  C   UNL     1     -11.683  15.275  69.565  1.00  0.00    -0.359 C  
HETATM   21  C   UNL     1     -12.001  13.829  69.357  1.00  0.00    -0.347 C  
HETATM   22  N   UNL     1     -12.245  13.457  68.063  1.00  0.00    -0.235 N  
HETATM   23  O   UNL     1     -12.161  13.045  70.289  1.00  0.00    -0.339 OA 
HETATM   24  H   UNL     1     -12.690  12.552  67.907  1.00  0.00     0.000 HD 
ENDBRANCH  12  13
ENDBRANCH  11  12
ENDBRANCH   8  11
ENDBRANCH   7   8
ENDBRANCH   5   7
TORSDOF 5
ENDMDL
MODEL       54
REMARK 921   NORMALIZED FREE ENERGY PREDICTED BY IDOCK:   -5.51 KCAL/MOL
REMARK 922        TOTAL FREE ENERGY PREDICTED BY IDOCK:   -7.75 KCAL/MOL
REMARK 923 INTER-LIGAND FREE ENERGY PREDICTED BY IDOCK:   -6.83 KCAL/MOL
REMARK 924 INTRA-LIGAND FREE ENERGY PREDICTED BY IDOCK:   -0.92 KCAL/MOL
REMARK 927      BINDING AFFINITY PREDICTED BY RF-SCORE:    0.00 PKD
ROOT
HETATM    1  C   UNL     1      -9.906   9.174  66.362  1.00  0.00    -0.350 C  
HETATM    2  C   UNL     1     -10.278  10.660  66.216  1.00  0.00    -0.245 C  
HETATM    3  C   UNL     1     -10.615  10.929  64.738  1.00  0.00    -0.316 C  
HETATM    4  C   UNL     1      -9.074  11.541  66.599  1.00  0.00    -0.193 C  
HETATM    5  N   UNL     1     -11.472  11.017  67.008  1.00  0.00    -0.395 NA 
HETATM    6  H   UNL     1     -12.299  10.553  66.632  1.00  0.00     0.000 HD 
ENDROOT
BRANCH   5   7
HETATM    7  C   UNL     1     -11.349  10.755  68.446  1.00  0.00    -0.302 C  
BRANCH   7   8
HETATM    8  C   UNL     1     -12.064  11.816  69.311  1.00  0.00    -0.229 C  
HETATM    9  H   UNL     1     -12.519  12.067  71.216  1.00  0.00     0.000 HD 
HETATM   10  O   UNL     1     -12.080  11.414  70.684  1.00  0.00    -0.361 OA 
BRANCH   8  11
HETATM   11  C   UNL     1     -11.335  13.162  69.144  1.00  0.00    -0.281 C  
BRANCH  11  12
HETATM   12  O   UNL     1     -12.114  14.045  68.336  1.00  0.00    -0.354 OA 
BRANCH  12  13
HETATM   13  C   UNL     1     -11.502  14.792  67.360  1.00  0.00    -0.363 A  
HETATM   14  C   UNL     1     -11.674  14.220  66.085  1.00  0.00    -0.397 A  
HETATM   15  C   UNL     1     -11.236  14.864  64.928  1.00  0.00    -0.415 A  
HETATM   16  C   UNL     1     -10.662  16.123  65.026  1.00  0.00    -0.359 A  
HETATM   17  C   UNL     1     -10.508  16.717  66.280  1.00  0.00    -0.261 A  
HETATM   18  C   UNL     1     -10.879  16.052  67.471  1.00  0.00    -0.292 A  
HETATM   19  C   UNL     1     -10.716  16.817  68.758  1.00  0.00    -0.341 C  
HETATM   20  C   UNL     1      -9.715  17.958  68.705  1.00  0.00    -0.355 C  
HETATM   21  C   UNL     1      -9.812  18.759  67.445  1.00  0.00    -0.318 C  
HETATM   22  N   UNL     1     -10.056  18.042  66.306  1.00  0.00    -0.366 N  
HETATM   23  O   UNL     1      -9.566  19.961  67.404  1.00  0.00    -0.332 OA 
HETATM   24  H   UNL     1      -9.897  18.506  65.412  1.00  0.00     0.000 HD 
ENDBRANCH  12  13
ENDBRANCH  11  12
ENDBRANCH   8  11
ENDBRANCH   7   8
ENDBRANCH   5   7
TORSDOF 5
ENDMDL
MODEL       55
REMARK 921   NORMALIZED FREE ENERGY PREDICTED BY IDOCK:   -5.50 KCAL/MOL
REMARK 922        TOTAL FREE ENERGY PREDICTED BY IDOCK:   -7.73 KCAL/MOL
REMARK 923 INTER-LIGAND FREE ENERGY PREDICTED BY IDOCK:   -6.91 KCAL/MOL
REMARK 924 INTRA-LIGAND FREE ENERGY PREDICTED BY IDOCK:   -0.82 KCAL/MOL
REMARK 927      BINDING AFFINITY PREDICTED BY RF-SCORE:    0.00 PKD
ROOT
HETATM    1  C   UNL     1     -10.298  13.426  64.960  1.00  0.00    -0.361 C  
HETATM    2  C   UNL     1     -11.823  13.634  64.999  1.00  0.00    -0.360 C  
HETATM    3  C   UNL     1     -12.491  12.428  64.313  1.00  0.00    -0.529 C  
HETATM    4  C   UNL     1     -12.198  14.902  64.210  1.00  0.00    -0.365 C  
HETATM    5  N   UNL     1     -12.343  13.693  66.380  1.00  0.00    -0.415 NA 
HETATM    6  H   UNL     1     -12.239  12.787  66.838  1.00  0.00     0.000 HD 
ENDROOT
BRANCH   5   7
HETATM    7  C   UNL     1     -11.753  14.751  67.208  1.00  0.00    -0.347 C  
BRANCH   7   8
HETATM    8  C   UNL     1     -11.367  14.263  68.620  1.00  0.00    -0.275 C  
HETATM    9  H   UNL     1     -12.282  13.909  70.334  1.00  0.00     0.000 HD 
HETATM   10  O   UNL     1     -12.520  14.210  69.465  1.00  0.00    -0.298 OA 
BRANCH   8  11
HETATM   11  C   UNL     1     -10.712  12.875  68.501  1.00  0.00    -0.254 C  
BRANCH  11  12
HETATM   12  O   UNL     1     -11.717  11.863  68.420  1.00  0.00    -0.298 OA 
BRANCH  12  13
HETATM   13  C   UNL     1     -11.381  10.551  68.644  1.00  0.00    -0.252 A  
HETATM   14  C   UNL     1     -10.720   9.988  67.535  1.00  0.00    -0.339 A  
HETATM   15  C   UNL     1     -10.184   8.701  67.578  1.00  0.00    -0.308 A  
HETATM   16  C   UNL     1     -10.255   7.973  68.757  1.00  0.00    -0.220 A  
HETATM   17  C   UNL     1     -10.883   8.526  69.874  1.00  0.00    -0.205 A  
HETATM   18  C   UNL     1     -11.496   9.799  69.832  1.00  0.00    -0.190 A  
HETATM   19  C   UNL     1     -12.093  10.312  71.116  1.00  0.00    -0.494 C  
HETATM   20  C   UNL     1     -12.441   9.241  72.135  1.00  0.00    -0.421 C  
HETATM   21  C   UNL     1     -11.391   8.183  72.248  1.00  0.00    -0.364 C  
HETATM   22  N   UNL     1     -10.800   7.807  71.073  1.00  0.00    -0.236 N  
HETATM   23  O   UNL     1     -11.155   7.593  73.299  1.00  0.00    -0.382 OA 
HETATM   24  H   UNL     1     -10.261   6.941  71.069  1.00  0.00     0.000 HD 
ENDBRANCH  12  13
ENDBRANCH  11  12
ENDBRANCH   8  11
ENDBRANCH   7   8
ENDBRANCH   5   7
TORSDOF 5
ENDMDL
MODEL       56
REMARK 921   NORMALIZED FREE ENERGY PREDICTED BY IDOCK:   -5.48 KCAL/MOL
REMARK 922        TOTAL FREE ENERGY PREDICTED BY IDOCK:   -7.71 KCAL/MOL
REMARK 923 INTER-LIGAND FREE ENERGY PREDICTED BY IDOCK:   -7.13 KCAL/MOL
REMARK 924 INTRA-LIGAND FREE ENERGY PREDICTED BY IDOCK:   -0.58 KCAL/MOL
REMARK 927      BINDING AFFINITY PREDICTED BY RF-SCORE:    0.00 PKD
ROOT
HETATM    1  C   UNL     1      -5.702  18.876  67.755  1.00  0.00    -0.189 C  
HETATM    2  C   UNL     1      -6.865  19.076  66.767  1.00  0.00    -0.196 C  
HETATM    3  C   UNL     1      -6.377  18.680  65.361  1.00  0.00    -0.314 C  
HETATM    4  C   UNL     1      -7.271  20.562  66.731  1.00  0.00    -0.331 C  
HETATM    5  N   UNL     1      -8.023  18.216  67.085  1.00  0.00    -0.216 NA 
HETATM    6  H   UNL     1      -7.787  17.234  66.939  1.00  0.00     0.000 HD 
ENDROOT
BRANCH   5   7
HETATM    7  C   UNL     1      -8.576  18.413  68.429  1.00  0.00    -0.325 C  
BRANCH   7   8
HETATM    8  C   UNL     1     -10.119  18.375  68.454  1.00  0.00    -0.390 C  
HETATM    9  H   UNL     1     -11.609  19.511  67.829  1.00  0.00     0.000 HD 
HETATM   10  O   UNL     1     -10.659  19.535  67.814  1.00  0.00    -0.434 OA 
BRANCH   8  11
HETATM   11  C   UNL     1     -10.593  17.092  67.748  1.00  0.00    -0.350 C  
BRANCH  11  12
HETATM   12  O   UNL     1      -9.897  15.958  68.268  1.00  0.00    -0.214 OA 
BRANCH  12  13
HETATM   13  C   UNL     1     -10.594  14.823  68.596  1.00  0.00    -0.255 A  
HETATM   14  C   UNL     1     -10.155  13.711  67.851  1.00  0.00    -0.244 A  
HETATM   15  C   UNL     1     -10.642  12.427  68.097  1.00  0.00    -0.232 A  
HETATM   16  C   UNL     1     -11.542  12.227  69.133  1.00  0.00    -0.373 A  
HETATM   17  C   UNL     1     -11.968  13.313  69.899  1.00  0.00    -0.330 A  
HETATM   18  C   UNL     1     -11.543  14.634  69.622  1.00  0.00    -0.349 A  
HETATM   19  C   UNL     1     -12.027  15.714  70.552  1.00  0.00    -0.417 C  
HETATM   20  C   UNL     1     -13.290  15.379  71.325  1.00  0.00    -0.598 C  
HETATM   21  C   UNL     1     -13.296  13.978  71.849  1.00  0.00    -0.406 C  
HETATM   22  N   UNL     1     -12.762  13.033  71.017  1.00  0.00    -0.309 N  
HETATM   23  O   UNL     1     -13.854  13.665  72.897  1.00  0.00    -0.659 OA 
HETATM   24  H   UNL     1     -12.956  12.053  71.226  1.00  0.00     0.000 HD 
ENDBRANCH  12  13
ENDBRANCH  11  12
ENDBRANCH   8  11
ENDBRANCH   7   8
ENDBRANCH   5   7
TORSDOF 5
ENDMDL
MODEL       57
REMARK 921   NORMALIZED FREE ENERGY PREDICTED BY IDOCK:   -5.48 KCAL/MOL
REMARK 922        TOTAL FREE ENERGY PREDICTED BY IDOCK:   -7.71 KCAL/MOL
REMARK 923 INTER-LIGAND FREE ENERGY PREDICTED BY IDOCK:   -7.14 KCAL/MOL
REMARK 924 INTRA-LIGAND FREE ENERGY PREDICTED BY IDOCK:   -0.57 KCAL/MOL
REMARK 927      BINDING AFFINITY PREDICTED BY RF-SCORE:    0.00 PKD
ROOT
HETATM    1  C   UNL     1     -11.888  15.514  72.975  1.00  0.00    -0.555 C  
HETATM    2  C   UNL     1     -12.939  15.175  71.903  1.00  0.00    -0.359 C  
HETATM    3  C   UNL     1     -14.329  15.532  72.461  1.00  0.00    -0.363 C  
HETATM    4  C   UNL     1     -12.916  13.664  71.609  1.00  0.00    -0.448 C  
HETATM    5  N   UNL     1     -12.749  15.961  70.667  1.00  0.00    -0.540 NA 
HETATM    6  H   UNL     1     -12.935  16.949  70.843  1.00  0.00     0.000 HD 
ENDROOT
BRANCH   5   7
HETATM    7  C   UNL     1     -11.436  15.794  70.035  1.00  0.00    -0.356 C  
BRANCH   7   8
HETATM    8  C   UNL     1     -11.483  15.965  68.502  1.00  0.00    -0.377 C  
HETATM    9  H   UNL     1     -10.840  17.270  67.166  1.00  0.00     0.000 HD 
HETATM   10  O   UNL     1     -10.811  17.165  68.109  1.00  0.00    -0.373 OA 
BRANCH   8  11
HETATM   11  C   UNL     1     -10.828  14.734  67.847  1.00  0.00    -0.269 C  
BRANCH  11  12
HETATM   12  O   UNL     1     -11.826  13.776  67.493  1.00  0.00    -0.351 OA 
BRANCH  12  13
HETATM   13  C   UNL     1     -11.449  12.527  67.066  1.00  0.00    -0.356 A  
HETATM   14  C   UNL     1     -11.166  12.515  65.687  1.00  0.00    -0.352 A  
HETATM   15  C   UNL     1     -10.654  11.382  65.055  1.00  0.00    -0.359 A  
HETATM   16  C   UNL     1     -10.366  10.253  65.809  1.00  0.00    -0.236 A  
HETATM   17  C   UNL     1     -10.616  10.256  67.182  1.00  0.00    -0.260 A  
HETATM   18  C   UNL     1     -11.201  11.368  67.831  1.00  0.00    -0.352 A  
HETATM   19  C   UNL     1     -11.371  11.275  69.324  1.00  0.00    -0.354 C  
HETATM   20  C   UNL     1     -11.399   9.862  69.880  1.00  0.00    -0.273 C  
HETATM   21  C   UNL     1     -10.374   8.970  69.254  1.00  0.00    -0.219 C  
HETATM   22  N   UNL     1     -10.176   9.147  67.912  1.00  0.00    -0.204 N  
HETATM   23  O   UNL     1      -9.832   8.053  69.865  1.00  0.00    -0.182 OA 
HETATM   24  H   UNL     1      -9.672   8.418  67.408  1.00  0.00     0.000 HD 
ENDBRANCH  12  13
ENDBRANCH  11  12
ENDBRANCH   8  11
ENDBRANCH   7   8
ENDBRANCH   5   7
TORSDOF 5
ENDMDL
MODEL       58
REMARK 921   NORMALIZED FREE ENERGY PREDICTED BY IDOCK:   -5.47 KCAL/MOL
REMARK 922        TOTAL FREE ENERGY PREDICTED BY IDOCK:   -7.70 KCAL/MOL
REMARK 923 INTER-LIGAND FREE ENERGY PREDICTED BY IDOCK:   -6.98 KCAL/MOL
REMARK 924 INTRA-LIGAND FREE ENERGY PREDICTED BY IDOCK:   -0.72 KCAL/MOL
REMARK 927      BINDING AFFINITY PREDICTED BY RF-SCORE:    0.00 PKD
ROOT
HETATM    1  C   UNL     1      -5.686  18.904  67.894  1.00  0.00    -0.194 C  
HETATM    2  C   UNL     1      -6.816  19.299  66.927  1.00  0.00    -0.197 C  
HETATM    3  C   UNL     1      -6.315  19.083  65.487  1.00  0.00    -0.299 C  
HETATM    4  C   UNL     1      -7.151  20.792  67.097  1.00  0.00    -0.404 C  
HETATM    5  N   UNL     1      -8.019  18.460  67.100  1.00  0.00    -0.227 NA 
HETATM    6  H   UNL     1      -7.825  17.498  66.820  1.00  0.00     0.000 HD 
ENDROOT
BRANCH   5   7
HETATM    7  C   UNL     1      -8.593  18.491  68.450  1.00  0.00    -0.331 C  
BRANCH   7   8
HETATM    8  C   UNL     1     -10.136  18.521  68.445  1.00  0.00    -0.388 C  
HETATM    9  H   UNL     1     -11.561  19.842  68.090  1.00  0.00     0.000 HD 
HETATM   10  O   UNL     1     -10.611  19.824  68.094  1.00  0.00    -0.413 OA 
BRANCH   8  11
HETATM   11  C   UNL     1     -10.647  17.466  67.447  1.00  0.00    -0.308 C  
BRANCH  11  12
HETATM   12  O   UNL     1      -9.796  16.320  67.463  1.00  0.00    -0.233 OA 
BRANCH  12  13
HETATM   13  C   UNL     1     -10.347  15.064  67.507  1.00  0.00    -0.241 A  
HETATM   14  C   UNL     1     -10.524  14.620  68.831  1.00  0.00    -0.248 A  
HETATM   15  C   UNL     1     -11.173  13.420  69.121  1.00  0.00    -0.300 A  
HETATM   16  C   UNL     1     -11.704  12.666  68.085  1.00  0.00    -0.396 A  
HETATM   17  C   UNL     1     -11.561  13.103  66.768  1.00  0.00    -0.366 A  
HETATM   18  C   UNL     1     -10.846  14.280  66.445  1.00  0.00    -0.307 A  
HETATM   19  C   UNL     1     -10.807  14.679  64.994  1.00  0.00    -0.431 C  
HETATM   20  C   UNL     1     -11.063  13.550  64.010  1.00  0.00    -0.210 C  
HETATM   21  C   UNL     1     -12.175  12.646  64.439  1.00  0.00    -0.443 C  
HETATM   22  N   UNL     1     -12.238  12.380  65.779  1.00  0.00    -0.336 N  
HETATM   23  O   UNL     1     -12.909  12.074  63.638  1.00  0.00    -0.713 OA 
HETATM   24  H   UNL     1     -12.820  11.598  66.080  1.00  0.00     0.000 HD 
ENDBRANCH  12  13
ENDBRANCH  11  12
ENDBRANCH   8  11
ENDBRANCH   7   8
ENDBRANCH   5   7
TORSDOF 5
ENDMDL
MODEL       59
REMARK 921   NORMALIZED FREE ENERGY PREDICTED BY IDOCK:   -5.47 KCAL/MOL
REMARK 922        TOTAL FREE ENERGY PREDICTED BY IDOCK:   -7.70 KCAL/MOL
REMARK 923 INTER-LIGAND FREE ENERGY PREDICTED BY IDOCK:   -7.28 KCAL/MOL
REMARK 924 INTRA-LIGAND FREE ENERGY PREDICTED BY IDOCK:   -0.42 KCAL/MOL
REMARK 927      BINDING AFFINITY PREDICTED BY RF-SCORE:    0.00 PKD
ROOT
HETATM    1  C   UNL     1     -10.871   8.416  72.318  1.00  0.00    -0.422 C  
HETATM    2  C   UNL     1     -12.112   8.544  71.417  1.00  0.00    -0.303 C  
HETATM    3  C   UNL     1     -13.020   9.642  72.000  1.00  0.00    -0.518 C  
HETATM    4  C   UNL     1     -12.900   7.221  71.421  1.00  0.00    -0.425 C  
HETATM    5  N   UNL     1     -11.764   8.951  70.041  1.00  0.00    -0.444 NA 
HETATM    6  H   UNL     1     -11.397   9.903  70.034  1.00  0.00     0.000 HD 
ENDROOT
BRANCH   5   7
HETATM    7  C   UNL     1     -10.838   8.044  69.354  1.00  0.00    -0.094 C  
BRANCH   7   8
HETATM    8  C   UNL     1     -10.204   8.674  68.095  1.00  0.00    -0.205 C  
HETATM    9  H   UNL     1     -10.066   8.249  66.172  1.00  0.00     0.000 HD 
HETATM   10  O   UNL     1     -10.456   7.860  66.946  1.00  0.00    -0.325 OA 
BRANCH   8  11
HETATM   11  C   UNL     1     -10.788  10.086  67.902  1.00  0.00    -0.271 C  
BRANCH  11  12
HETATM   12  O   UNL     1     -10.186  10.717  66.772  1.00  0.00    -0.213 OA 
BRANCH  12  13
HETATM   13  C   UNL     1      -9.866  12.051  66.827  1.00  0.00    -0.204 A  
HETATM   14  C   UNL     1      -8.688  12.271  67.567  1.00  0.00    -0.177 A  
HETATM   15  C   UNL     1      -8.109  13.537  67.662  1.00  0.00    -0.180 A  
HETATM   16  C   UNL     1      -8.675  14.598  66.970  1.00  0.00    -0.258 A  
HETATM   17  C   UNL     1      -9.827  14.392  66.210  1.00  0.00    -0.304 A  
HETATM   18  C   UNL     1     -10.472  13.134  66.158  1.00  0.00    -0.287 A  
HETATM   19  C   UNL     1     -11.676  13.022  65.260  1.00  0.00    -0.388 C  
HETATM   20  C   UNL     1     -12.365  14.338  64.942  1.00  0.00    -0.435 C  
HETATM   21  C   UNL     1     -11.401  15.443  64.652  1.00  0.00    -0.355 C  
HETATM   22  N   UNL     1     -10.271  15.460  65.423  1.00  0.00    -0.370 N  
HETATM   23  O   UNL     1     -11.654  16.353  63.867  1.00  0.00    -1.100 OA 
HETATM   24  H   UNL     1      -9.711  16.313  65.423  1.00  0.00     0.000 HD 
ENDBRANCH  12  13
ENDBRANCH  11  12
ENDBRANCH   8  11
ENDBRANCH   7   8
ENDBRANCH   5   7
TORSDOF 5
ENDMDL
MODEL       60
REMARK 921   NORMALIZED FREE ENERGY PREDICTED BY IDOCK:   -5.46 KCAL/MOL
REMARK 922        TOTAL FREE ENERGY PREDICTED BY IDOCK:   -7.68 KCAL/MOL
REMARK 923 INTER-LIGAND FREE ENERGY PREDICTED BY IDOCK:   -6.73 KCAL/MOL
REMARK 924 INTRA-LIGAND FREE ENERGY PREDICTED BY IDOCK:   -0.95 KCAL/MOL
REMARK 927      BINDING AFFINITY PREDICTED BY RF-SCORE:    0.00 PKD
ROOT
HETATM    1  C   UNL     1      -8.123   8.447  63.892  1.00  0.00    -0.143 C  
HETATM    2  C   UNL     1      -8.773   9.629  64.633  1.00  0.00    -0.201 C  
HETATM    3  C   UNL     1      -9.355  10.595  63.584  1.00  0.00    -0.315 C  
HETATM    4  C   UNL     1      -7.706  10.389  65.443  1.00  0.00    -0.136 C  
HETATM    5  N   UNL     1      -9.891   9.199  65.498  1.00  0.00    -0.452 NA 
HETATM    6  H   UNL     1     -10.665   8.852  64.931  1.00  0.00     0.000 HD 
ENDROOT
BRANCH   5   7
HETATM    7  C   UNL     1      -9.525   8.213  66.520  1.00  0.00    -0.221 C  
BRANCH   7   8
HETATM    8  C   UNL     1     -10.336   8.372  67.824  1.00  0.00    -0.235 C  
HETATM    9  H   UNL     1     -10.289   7.648  69.661  1.00  0.00     0.000 HD 
HETATM   10  O   UNL     1      -9.789   7.550  68.859  1.00  0.00    -0.154 OA 
BRANCH   8  11
HETATM   11  C   UNL     1     -10.320   9.855  68.238  1.00  0.00    -0.201 C  
BRANCH  11  12
HETATM   12  O   UNL     1     -11.540  10.488  67.850  1.00  0.00    -0.461 OA 
BRANCH  12  13
HETATM   13  C   UNL     1     -11.677  11.846  67.993  1.00  0.00    -0.312 A  
HETATM   14  C   UNL     1     -11.695  12.226  69.349  1.00  0.00    -0.392 A  
HETATM   15  C   UNL     1     -11.711  13.567  69.733  1.00  0.00    -0.363 A  
HETATM   16  C   UNL     1     -11.656  14.555  68.761  1.00  0.00    -0.343 A  
HETATM   17  C   UNL     1     -11.611  14.196  67.413  1.00  0.00    -0.372 A  
HETATM   18  C   UNL     1     -11.666  12.845  66.998  1.00  0.00    -0.447 A  
HETATM   19  C   UNL     1     -11.554  12.581  65.519  1.00  0.00    -0.429 C  
HETATM   20  C   UNL     1     -11.921  13.754  64.627  1.00  0.00    -0.445 C  
HETATM   21  C   UNL     1     -11.384  15.057  65.129  1.00  0.00    -0.372 C  
HETATM   22  N   UNL     1     -11.413  15.226  66.486  1.00  0.00    -0.176 N  
HETATM   23  O   UNL     1     -11.054  15.970  64.377  1.00  0.00    -0.560 OA 
HETATM   24  H   UNL     1     -11.281  16.170  66.848  1.00  0.00     0.000 HD 
ENDBRANCH  12  13
ENDBRANCH  11  12
ENDBRANCH   8  11
ENDBRANCH   7   8
ENDBRANCH   5   7
TORSDOF 5
ENDMDL
MODEL       61
REMARK 921   NORMALIZED FREE ENERGY PREDICTED BY IDOCK:   -5.43 KCAL/MOL
REMARK 922        TOTAL FREE ENERGY PREDICTED BY IDOCK:   -7.65 KCAL/MOL
REMARK 923 INTER-LIGAND FREE ENERGY PREDICTED BY IDOCK:   -7.24 KCAL/MOL
REMARK 924 INTRA-LIGAND FREE ENERGY PREDICTED BY IDOCK:   -0.41 KCAL/MOL
REMARK 927      BINDING AFFINITY PREDICTED BY RF-SCORE:    0.00 PKD
ROOT
HETATM    1  C   UNL     1      -7.212  18.442  67.863  1.00  0.00    -0.235 C  
HETATM    2  C   UNL     1      -7.189  18.411  66.324  1.00  0.00    -0.256 C  
HETATM    3  C   UNL     1      -5.836  17.828  65.874  1.00  0.00    -0.215 C  
HETATM    4  C   UNL     1      -7.299  19.844  65.771  1.00  0.00    -0.337 C  
HETATM    5  N   UNL     1      -8.245  17.542  65.767  1.00  0.00    -0.522 NA 
HETATM    6  H   UNL     1      -8.063  16.567  66.002  1.00  0.00     0.000 HD 
ENDROOT
BRANCH   5   7
HETATM    7  C   UNL     1      -9.609  17.916  66.158  1.00  0.00    -0.178 C  
BRANCH   7   8
HETATM    8  C   UNL     1     -10.652  16.834  65.803  1.00  0.00    -0.250 C  
HETATM    9  H   UNL     1     -11.742  16.328  64.236  1.00  0.00     0.000 HD 
HETATM   10  O   UNL     1     -11.101  16.994  64.454  1.00  0.00    -1.144 OA 
BRANCH   8  11
HETATM   11  C   UNL     1     -10.013  15.447  66.005  1.00  0.00    -0.324 C  
BRANCH  11  12
HETATM   12  O   UNL     1     -10.501  14.852  67.208  1.00  0.00    -0.257 OA 
BRANCH  12  13
HETATM   13  C   UNL     1     -10.824  13.519  67.225  1.00  0.00    -0.276 A  
HETATM   14  C   UNL     1     -10.473  12.885  66.018  1.00  0.00    -0.290 A  
HETATM   15  C   UNL     1     -10.603  11.506  65.850  1.00  0.00    -0.318 A  
HETATM   16  C   UNL     1     -11.039  10.729  66.913  1.00  0.00    -0.204 A  
HETATM   17  C   UNL     1     -11.366  11.337  68.126  1.00  0.00    -0.303 A  
HETATM   18  C   UNL     1     -11.310  12.740  68.296  1.00  0.00    -0.335 A  
HETATM   19  C   UNL     1     -11.633  13.274  69.666  1.00  0.00    -0.329 C  
HETATM   20  C   UNL     1     -12.470  12.350  70.535  1.00  0.00    -0.270 C  
HETATM   21  C   UNL     1     -12.040  10.921  70.446  1.00  0.00    -0.363 C  
HETATM   22  N   UNL     1     -11.662  10.493  69.202  1.00  0.00    -0.471 N  
HETATM   23  O   UNL     1     -12.137  10.140  71.388  1.00  0.00    -0.366 OA 
HETATM   24  H   UNL     1     -11.590   9.487  69.049  1.00  0.00     0.000 HD 
ENDBRANCH  12  13
ENDBRANCH  11  12
ENDBRANCH   8  11
ENDBRANCH   7   8
ENDBRANCH   5   7
TORSDOF 5
ENDMDL
MODEL       62
REMARK 921   NORMALIZED FREE ENERGY PREDICTED BY IDOCK:   -5.43 KCAL/MOL
REMARK 922        TOTAL FREE ENERGY PREDICTED BY IDOCK:   -7.65 KCAL/MOL
REMARK 923 INTER-LIGAND FREE ENERGY PREDICTED BY IDOCK:   -6.95 KCAL/MOL
REMARK 924 INTRA-LIGAND FREE ENERGY PREDICTED BY IDOCK:   -0.70 KCAL/MOL
REMARK 927      BINDING AFFINITY PREDICTED BY RF-SCORE:    0.00 PKD
ROOT
HETATM    1  C   UNL     1     -11.602  13.132  67.203  1.00  0.00    -0.410 C  
HETATM    2  C   UNL     1     -10.276  12.994  66.435  1.00  0.00    -0.280 C  
HETATM    3  C   UNL     1      -9.298  14.058  66.966  1.00  0.00    -0.256 C  
HETATM    4  C   UNL     1     -10.509  13.265  64.937  1.00  0.00    -0.387 C  
HETATM    5  N   UNL     1      -9.643  11.676  66.646  1.00  0.00    -0.199 NA 
HETATM    6  H   UNL     1      -9.339  11.579  67.614  1.00  0.00     0.000 HD 
ENDROOT
BRANCH   5   7
HETATM    7  C   UNL     1     -10.475  10.532  66.255  1.00  0.00    -0.183 C  
BRANCH   7   8
HETATM    8  C   UNL     1     -10.558   9.450  67.353  1.00  0.00    -0.258 C  
HETATM    9  H   UNL     1     -10.511   7.478  67.453  1.00  0.00     0.000 HD 
HETATM   10  O   UNL     1     -10.460   8.144  66.778  1.00  0.00    -0.326 OA 
BRANCH   8  11
HETATM   11  C   UNL     1      -9.424   9.687  68.367  1.00  0.00    -0.137 C  
BRANCH  11  12
HETATM   12  O   UNL     1      -9.851  10.600  69.379  1.00  0.00    -0.210 OA 
BRANCH  12  13
HETATM   13  C   UNL     1     -10.757  10.191  70.326  1.00  0.00    -0.293 A  
HETATM   14  C   UNL     1     -12.036  10.728  70.086  1.00  0.00    -0.427 A  
HETATM   15  C   UNL     1     -13.141  10.358  70.854  1.00  0.00    -0.412 A  
HETATM   16  C   UNL     1     -12.991   9.400  71.845  1.00  0.00    -0.502 A  
HETATM   17  C   UNL     1     -11.735   8.837  72.079  1.00  0.00    -0.372 A  
HETATM   18  C   UNL     1     -10.588   9.249  71.362  1.00  0.00    -0.417 A  
HETATM   19  C   UNL     1      -9.300   8.530  71.665  1.00  0.00    -0.311 C  
HETATM   20  C   UNL     1      -9.248   7.849  73.021  1.00  0.00    -0.317 C  
HETATM   21  C   UNL     1     -10.520   7.141  73.365  1.00  0.00    -0.368 C  
HETATM   22  N   UNL     1     -11.672   7.777  72.991  1.00  0.00    -0.611 N  
HETATM   23  O   UNL     1     -10.546   6.121  74.049  1.00  0.00    -0.272 OA 
HETATM   24  H   UNL     1     -12.546   7.456  73.406  1.00  0.00     0.000 HD 
ENDBRANCH  12  13
ENDBRANCH  11  12
ENDBRANCH   8  11
ENDBRANCH   7   8
ENDBRANCH   5   7
TORSDOF 5
ENDMDL
MODEL       63
REMARK 921   NORMALIZED FREE ENERGY PREDICTED BY IDOCK:   -5.43 KCAL/MOL
REMARK 922        TOTAL FREE ENERGY PREDICTED BY IDOCK:   -7.64 KCAL/MOL
REMARK 923 INTER-LIGAND FREE ENERGY PREDICTED BY IDOCK:   -6.52 KCAL/MOL
REMARK 924 INTRA-LIGAND FREE ENERGY PREDICTED BY IDOCK:   -1.12 KCAL/MOL
REMARK 927      BINDING AFFINITY PREDICTED BY RF-SCORE:    0.00 PKD
ROOT
HETATM    1  C   UNL     1      -8.957   9.728  63.174  1.00  0.00    -0.270 C  
HETATM    2  C   UNL     1      -9.126  10.581  64.444  1.00  0.00    -0.225 C  
HETATM    3  C   UNL     1      -7.750  10.713  65.122  1.00  0.00     0.011 C  
HETATM    4  C   UNL     1     -10.077   9.874  65.427  1.00  0.00    -0.270 C  
HETATM    5  N   UNL     1      -9.595  11.948  64.139  1.00  0.00    -0.477 NA 
HETATM    6  H   UNL     1      -8.878  12.465  63.630  1.00  0.00     0.000 HD 
ENDROOT
BRANCH   5   7
HETATM    7  C   UNL     1     -10.873  12.007  63.421  1.00  0.00    -0.405 C  
BRANCH   7   8
HETATM    8  C   UNL     1     -11.772  13.171  63.891  1.00  0.00    -0.456 C  
HETATM    9  H   UNL     1     -13.274  14.229  63.168  1.00  0.00     0.000 HD 
HETATM   10  O   UNL     1     -12.722  13.512  62.878  1.00  0.00    -0.569 OA 
BRANCH   8  11
HETATM   11  C   UNL     1     -12.485  12.752  65.190  1.00  0.00    -0.501 C  
BRANCH  11  12
HETATM   12  O   UNL     1     -12.301  13.749  66.196  1.00  0.00    -0.445 OA 
BRANCH  12  13
HETATM   13  C   UNL     1     -11.061  13.929  66.756  1.00  0.00    -0.303 A  
HETATM   14  C   UNL     1     -10.632  12.780  67.448  1.00  0.00    -0.241 A  
HETATM   15  C   UNL     1      -9.354  12.693  68.000  1.00  0.00    -0.209 A  
HETATM   16  C   UNL     1      -8.462  13.740  67.821  1.00  0.00    -0.181 A  
HETATM   17  C   UNL     1      -8.862  14.876  67.116  1.00  0.00    -0.217 A  
HETATM   18  C   UNL     1     -10.175  15.016  66.609  1.00  0.00    -0.271 A  
HETATM   19  C   UNL     1     -10.470  16.263  65.818  1.00  0.00    -0.379 C  
HETATM   20  C   UNL     1      -9.541  17.433  66.090  1.00  0.00    -0.213 C  
HETATM   21  C   UNL     1      -8.107  17.022  66.203  1.00  0.00    -0.257 C  
HETATM   22  N   UNL     1      -7.880  15.836  66.845  1.00  0.00    -0.235 N  
HETATM   23  O   UNL     1      -7.181  17.751  65.859  1.00  0.00    -0.402 OA 
HETATM   24  H   UNL     1      -6.927  15.637  67.149  1.00  0.00     0.000 HD 
ENDBRANCH  12  13
ENDBRANCH  11  12
ENDBRANCH   8  11
ENDBRANCH   7   8
ENDBRANCH   5   7
TORSDOF 5
ENDMDL
MODEL       64
REMARK 921   NORMALIZED FREE ENERGY PREDICTED BY IDOCK:   -5.43 KCAL/MOL
REMARK 922        TOTAL FREE ENERGY PREDICTED BY IDOCK:   -7.64 KCAL/MOL
REMARK 923 INTER-LIGAND FREE ENERGY PREDICTED BY IDOCK:   -7.11 KCAL/MOL
REMARK 924 INTRA-LIGAND FREE ENERGY PREDICTED BY IDOCK:   -0.53 KCAL/MOL
REMARK 927      BINDING AFFINITY PREDICTED BY RF-SCORE:    0.00 PKD
ROOT
HETATM    1  C   UNL     1      -9.398   6.543  72.396  1.00  0.00    -0.137 C  
HETATM    2  C   UNL     1     -10.857   6.132  72.129  1.00  0.00    -0.247 C  
HETATM    3  C   UNL     1     -11.076   4.724  72.713  1.00  0.00    -0.248 C  
HETATM    4  C   UNL     1     -11.111   6.064  70.611  1.00  0.00    -0.371 C  
HETATM    5  N   UNL     1     -11.821   7.034  72.791  1.00  0.00    -0.521 NA 
HETATM    6  H   UNL     1     -11.756   6.941  73.804  1.00  0.00     0.000 HD 
ENDROOT
BRANCH   5   7
HETATM    7  C   UNL     1     -11.704   8.443  72.399  1.00  0.00    -0.382 C  
BRANCH   7   8
HETATM    8  C   UNL     1     -12.992   8.995  71.753  1.00  0.00    -0.377 C  
HETATM    9  H   UNL     1     -14.861   9.328  72.298  1.00  0.00     0.000 HD 
HETATM   10  O   UNL     1     -14.068   8.988  72.696  1.00  0.00    -0.516 OA 
BRANCH   8  11
HETATM   11  C   UNL     1     -12.719  10.423  71.246  1.00  0.00    -0.432 C  
BRANCH  11  12
HETATM   12  O   UNL     1     -11.373  10.529  70.778  1.00  0.00    -0.327 OA 
BRANCH  12  13
HETATM   13  C   UNL     1     -11.126  10.591  69.430  1.00  0.00    -0.258 A  
HETATM   14  C   UNL     1     -10.676   9.355  68.928  1.00  0.00    -0.203 A  
HETATM   15  C   UNL     1     -10.470   9.150  67.563  1.00  0.00    -0.335 A  
HETATM   16  C   UNL     1     -10.764  10.169  66.670  1.00  0.00    -0.156 A  
HETATM   17  C   UNL     1     -11.236  11.393  67.147  1.00  0.00    -0.296 A  
HETATM   18  C   UNL     1     -11.384  11.647  68.531  1.00  0.00    -0.332 A  
HETATM   19  C   UNL     1     -11.954  12.984  68.921  1.00  0.00    -0.303 C  
HETATM   20  C   UNL     1     -11.811  14.074  67.873  1.00  0.00    -0.411 C  
HETATM   21  C   UNL     1     -12.099  13.590  66.488  1.00  0.00    -0.408 C  
HETATM   22  N   UNL     1     -11.650  12.332  66.196  1.00  0.00    -0.386 N  
HETATM   23  O   UNL     1     -12.591  14.310  65.623  1.00  0.00    -0.461 OA 
HETATM   24  H   UNL     1     -11.613  12.058  65.214  1.00  0.00     0.000 HD 
ENDBRANCH  12  13
ENDBRANCH  11  12
ENDBRANCH   8  11
ENDBRANCH   7   8
ENDBRANCH   5   7
TORSDOF 5
ENDMDL
MODEL       65
REMARK 921   NORMALIZED FREE ENERGY PREDICTED BY IDOCK:   -5.41 KCAL/MOL
REMARK 922        TOTAL FREE ENERGY PREDICTED BY IDOCK:   -7.62 KCAL/MOL
REMARK 923 INTER-LIGAND FREE ENERGY PREDICTED BY IDOCK:   -6.90 KCAL/MOL
REMARK 924 INTRA-LIGAND FREE ENERGY PREDICTED BY IDOCK:   -0.72 KCAL/MOL
REMARK 927      BINDING AFFINITY PREDICTED BY RF-SCORE:    0.00 PKD
ROOT
HETATM    1  C   UNL     1      -9.912   5.550  66.987  1.00  0.00    -0.198 C  
HETATM    2  C   UNL     1      -9.883   6.431  68.249  1.00  0.00    -0.128 C  
HETATM    3  C   UNL     1      -8.761   5.916  69.170  1.00  0.00    -0.118 C  
HETATM    4  C   UNL     1     -11.219   6.304  69.006  1.00  0.00    -0.415 C  
HETATM    5  N   UNL     1      -9.579   7.842  67.938  1.00  0.00    -0.145 NA 
HETATM    6  H   UNL     1      -8.623   7.932  67.593  1.00  0.00     0.000 HD 
ENDROOT
BRANCH   5   7
HETATM    7  C   UNL     1     -10.518   8.476  67.005  1.00  0.00    -0.292 C  
BRANCH   7   8
HETATM    8  C   UNL     1     -10.160   9.946  66.700  1.00  0.00    -0.233 C  
HETATM    9  H   UNL     1     -10.077  11.120  65.115  1.00  0.00     0.000 HD 
HETATM   10  O   UNL     1     -10.298  10.216  65.302  1.00  0.00    -0.266 OA 
BRANCH   8  11
HETATM   11  C   UNL     1     -11.082  10.861  67.526  1.00  0.00    -0.310 C  
BRANCH  11  12
HETATM   12  O   UNL     1     -10.658  10.885  68.890  1.00  0.00    -0.188 OA 
BRANCH  12  13
HETATM   13  C   UNL     1     -11.591  10.827  69.894  1.00  0.00    -0.331 A  
HETATM   14  C   UNL     1     -11.765   9.511  70.365  1.00  0.00    -0.227 A  
HETATM   15  C   UNL     1     -12.579   9.228  71.462  1.00  0.00    -0.430 A  
HETATM   16  C   UNL     1     -13.195  10.269  72.140  1.00  0.00    -0.443 A  
HETATM   17  C   UNL     1     -13.014  11.582  71.702  1.00  0.00    -0.394 A  
HETATM   18  C   UNL     1     -12.251  11.887  70.551  1.00  0.00    -0.426 A  
HETATM   19  C   UNL     1     -12.081  13.344  70.211  1.00  0.00    -0.419 C  
HETATM   20  C   UNL     1     -13.140  14.266  70.790  1.00  0.00    -0.321 C  
HETATM   21  C   UNL     1     -13.488  13.934  72.206  1.00  0.00    -0.526 C  
HETATM   22  N   UNL     1     -13.541  12.600  72.505  1.00  0.00    -0.583 N  
HETATM   23  O   UNL     1     -13.831  14.786  73.021  1.00  0.00    -0.508 OA 
HETATM   24  H   UNL     1     -13.997  12.328  73.376  1.00  0.00     0.000 HD 
ENDBRANCH  12  13
ENDBRANCH  11  12
ENDBRANCH   8  11
ENDBRANCH   7   8
ENDBRANCH   5   7
TORSDOF 5
ENDMDL
MODEL       66
REMARK 921   NORMALIZED FREE ENERGY PREDICTED BY IDOCK:   -5.41 KCAL/MOL
REMARK 922        TOTAL FREE ENERGY PREDICTED BY IDOCK:   -7.62 KCAL/MOL
REMARK 923 INTER-LIGAND FREE ENERGY PREDICTED BY IDOCK:   -7.09 KCAL/MOL
REMARK 924 INTRA-LIGAND FREE ENERGY PREDICTED BY IDOCK:   -0.53 KCAL/MOL
REMARK 927      BINDING AFFINITY PREDICTED BY RF-SCORE:    0.00 PKD
ROOT
HETATM    1  C   UNL     1      -7.876  15.548  66.934  1.00  0.00    -0.229 C  
HETATM    2  C   UNL     1      -8.804  16.770  66.814  1.00  0.00    -0.230 C  
HETATM    3  C   UNL     1      -7.936  18.009  66.530  1.00  0.00    -0.294 C  
HETATM    4  C   UNL     1      -9.542  16.998  68.147  1.00  0.00    -0.266 C  
HETATM    5  N   UNL     1      -9.758  16.639  65.694  1.00  0.00    -0.548 NA 
HETATM    6  H   UNL     1      -9.263  16.660  64.802  1.00  0.00     0.000 HD 
ENDROOT
BRANCH   5   7
HETATM    7  C   UNL     1     -10.625  15.458  65.768  1.00  0.00    -0.348 C  
BRANCH   7   8
HETATM    8  C   UNL     1     -11.780  15.498  64.743  1.00  0.00    -0.187 C  
HETATM    9  H   UNL     1     -12.328  16.624  63.217  1.00  0.00     0.000 HD 
HETATM   10  O   UNL     1     -11.617  16.601  63.847  1.00  0.00    -1.204 OA 
BRANCH   8  11
HETATM   11  C   UNL     1     -11.802  14.165  63.972  1.00  0.00    -0.271 C  
BRANCH  11  12
HETATM   12  O   UNL     1     -12.164  13.096  64.846  1.00  0.00    -0.380 OA 
BRANCH  12  13
HETATM   13  C   UNL     1     -11.365  11.983  64.928  1.00  0.00    -0.310 A  
HETATM   14  C   UNL     1     -10.756  11.691  63.693  1.00  0.00    -0.500 A  
HETATM   15  C   UNL     1      -9.812  10.672  63.564  1.00  0.00    -0.384 A  
HETATM   16  C   UNL     1      -9.423   9.959  64.689  1.00  0.00    -0.343 A  
HETATM   17  C   UNL     1      -9.997  10.253  65.927  1.00  0.00    -0.256 A  
HETATM   18  C   UNL     1     -11.007  11.233  66.067  1.00  0.00    -0.237 A  
HETATM   19  C   UNL     1     -11.510  11.500  67.461  1.00  0.00    -0.355 C  
HETATM   20  C   UNL     1     -11.286  10.370  68.452  1.00  0.00    -0.292 C  
HETATM   21  C   UNL     1      -9.934   9.744  68.324  1.00  0.00    -0.153 C  
HETATM   22  N   UNL     1      -9.465   9.604  67.047  1.00  0.00    -0.150 N  
HETATM   23  O   UNL     1      -9.331   9.269  69.282  1.00  0.00    -0.152 OA 
HETATM   24  H   UNL     1      -8.671   8.980  66.899  1.00  0.00     0.000 HD 
ENDBRANCH  12  13
ENDBRANCH  11  12
ENDBRANCH   8  11
ENDBRANCH   7   8
ENDBRANCH   5   7
TORSDOF 5
ENDMDL
MODEL       67
REMARK 921   NORMALIZED FREE ENERGY PREDICTED BY IDOCK:   -5.40 KCAL/MOL
REMARK 922        TOTAL FREE ENERGY PREDICTED BY IDOCK:   -7.61 KCAL/MOL
REMARK 923 INTER-LIGAND FREE ENERGY PREDICTED BY IDOCK:   -6.75 KCAL/MOL
REMARK 924 INTRA-LIGAND FREE ENERGY PREDICTED BY IDOCK:   -0.86 KCAL/MOL
REMARK 927      BINDING AFFINITY PREDICTED BY RF-SCORE:    0.00 PKD
ROOT
HETATM    1  C   UNL     1      -8.139   9.990  66.745  1.00  0.00    -0.118 C  
HETATM    2  C   UNL     1      -9.509   9.743  66.087  1.00  0.00    -0.205 C  
HETATM    3  C   UNL     1     -10.014   8.358  66.530  1.00  0.00    -0.335 C  
HETATM    4  C   UNL     1      -9.357   9.729  64.554  1.00  0.00    -0.298 C  
HETATM    5  N   UNL     1     -10.519  10.733  66.513  1.00  0.00    -0.247 NA 
HETATM    6  H   UNL     1     -10.735  10.616  67.503  1.00  0.00     0.000 HD 
ENDROOT
BRANCH   5   7
HETATM    7  C   UNL     1     -10.163  12.127  66.230  1.00  0.00    -0.223 C  
BRANCH   7   8
HETATM    8  C   UNL     1     -11.376  13.081  66.293  1.00  0.00    -0.317 C  
HETATM    9  H   UNL     1     -13.271  13.057  65.738  1.00  0.00     0.000 HD 
HETATM   10  O   UNL     1     -12.525  12.470  65.699  1.00  0.00    -0.648 OA 
BRANCH   8  11
HETATM   11  C   UNL     1     -11.647  13.438  67.766  1.00  0.00    -0.340 C  
BRANCH  11  12
HETATM   12  O   UNL     1     -10.974  12.518  68.627  1.00  0.00    -0.235 OA 
BRANCH  12  13
HETATM   13  C   UNL     1     -11.597  12.074  69.766  1.00  0.00    -0.276 A  
HETATM   14  C   UNL     1     -12.301  13.109  70.411  1.00  0.00    -0.351 A  
HETATM   15  C   UNL     1     -13.103  12.866  71.525  1.00  0.00    -0.390 A  
HETATM   16  C   UNL     1     -13.256  11.566  71.984  1.00  0.00    -0.443 A  
HETATM   17  C   UNL     1     -12.586  10.523  71.342  1.00  0.00    -0.434 A  
HETATM   18  C   UNL     1     -11.712  10.755  70.255  1.00  0.00    -0.442 A  
HETATM   19  C   UNL     1     -11.091   9.545  69.609  1.00  0.00    -0.196 C  
HETATM   20  C   UNL     1     -11.038   8.305  70.484  1.00  0.00    -0.259 C  
HETATM   21  C   UNL     1     -12.297   8.090  71.263  1.00  0.00    -0.271 C  
HETATM   22  N   UNL     1     -12.888   9.221  71.756  1.00  0.00    -0.354 N  
HETATM   23  O   UNL     1     -12.712   6.972  71.556  1.00  0.00    -0.368 OA 
HETATM   24  H   UNL     1     -13.600   9.107  72.478  1.00  0.00     0.000 HD 
ENDBRANCH  12  13
ENDBRANCH  11  12
ENDBRANCH   8  11
ENDBRANCH   7   8
ENDBRANCH   5   7
TORSDOF 5
ENDMDL
MODEL       68
REMARK 921   NORMALIZED FREE ENERGY PREDICTED BY IDOCK:   -5.38 KCAL/MOL
REMARK 922        TOTAL FREE ENERGY PREDICTED BY IDOCK:   -7.58 KCAL/MOL
REMARK 923 INTER-LIGAND FREE ENERGY PREDICTED BY IDOCK:   -7.13 KCAL/MOL
REMARK 924 INTRA-LIGAND FREE ENERGY PREDICTED BY IDOCK:   -0.45 KCAL/MOL
REMARK 927      BINDING AFFINITY PREDICTED BY RF-SCORE:    0.00 PKD
ROOT
HETATM    1  C   UNL     1     -12.840   9.722  71.967  1.00  0.00    -0.491 C  
HETATM    2  C   UNL     1     -11.859   8.699  71.368  1.00  0.00    -0.297 C  
HETATM    3  C   UNL     1     -12.565   7.331  71.311  1.00  0.00    -0.402 C  
HETATM    4  C   UNL     1     -10.625   8.562  72.279  1.00  0.00    -0.408 C  
HETATM    5  N   UNL     1     -11.466   9.044  69.987  1.00  0.00    -0.449 NA 
HETATM    6  H   UNL     1     -12.266   8.965  69.359  1.00  0.00     0.000 HD 
ENDROOT
BRANCH   5   7
HETATM    7  C   UNL     1     -10.836  10.362  69.845  1.00  0.00    -0.298 C  
BRANCH   7   8
HETATM    8  C   UNL     1      -9.394  10.281  69.300  1.00  0.00    -0.207 C  
HETATM    9  H   UNL     1      -8.303   9.000  68.265  1.00  0.00     0.000 HD 
HETATM   10  O   UNL     1      -9.190   9.049  68.601  1.00  0.00    -0.136 OA 
BRANCH   8  11
HETATM   11  C   UNL     1      -9.149  11.483  68.370  1.00  0.00    -0.185 C  
BRANCH  11  12
HETATM   12  O   UNL     1     -10.071  12.532  68.669  1.00  0.00    -0.210 OA 
BRANCH  12  13
HETATM   13  C   UNL     1     -10.251  13.556  67.773  1.00  0.00    -0.242 A  
HETATM   14  C   UNL     1      -9.471  14.680  68.107  1.00  0.00    -0.212 A  
HETATM   15  C   UNL     1      -9.406  15.799  67.276  1.00  0.00    -0.219 A  
HETATM   16  C   UNL     1     -10.082  15.787  66.064  1.00  0.00    -0.359 A  
HETATM   17  C   UNL     1     -10.838  14.670  65.705  1.00  0.00    -0.331 A  
HETATM   18  C   UNL     1     -10.977  13.555  66.564  1.00  0.00    -0.295 A  
HETATM   19  C   UNL     1     -11.772  12.388  66.042  1.00  0.00    -0.469 C  
HETATM   20  C   UNL     1     -12.749  12.722  64.929  1.00  0.00    -0.479 C  
HETATM   21  C   UNL     1     -12.176  13.662  63.916  1.00  0.00    -0.374 C  
HETATM   22  N   UNL     1     -11.380  14.656  64.415  1.00  0.00    -0.629 N  
HETATM   23  O   UNL     1     -12.494  13.632  62.730  1.00  0.00    -0.437 OA 
HETATM   24  H   UNL     1     -11.165  15.443  63.803  1.00  0.00     0.000 HD 
ENDBRANCH  12  13
ENDBRANCH  11  12
ENDBRANCH   8  11
ENDBRANCH   7   8
ENDBRANCH   5   7
TORSDOF 5
ENDMDL
MODEL       69
REMARK 921   NORMALIZED FREE ENERGY PREDICTED BY IDOCK:   -5.34 KCAL/MOL
REMARK 922        TOTAL FREE ENERGY PREDICTED BY IDOCK:   -7.52 KCAL/MOL
REMARK 923 INTER-LIGAND FREE ENERGY PREDICTED BY IDOCK:   -7.13 KCAL/MOL
REMARK 924 INTRA-LIGAND FREE ENERGY PREDICTED BY IDOCK:   -0.39 KCAL/MOL
REMARK 927      BINDING AFFINITY PREDICTED BY RF-SCORE:    0.00 PKD
ROOT
HETATM    1  C   UNL     1      -9.159  15.658  69.005  1.00  0.00    -0.241 C  
HETATM    2  C   UNL     1     -10.444  15.611  68.159  1.00  0.00    -0.259 C  
HETATM    3  C   UNL     1     -10.440  16.825  67.210  1.00  0.00    -0.310 C  
HETATM    4  C   UNL     1     -11.677  15.724  69.075  1.00  0.00    -0.405 C  
HETATM    5  N   UNL     1     -10.515  14.400  67.317  1.00  0.00    -0.268 NA 
HETATM    6  H   UNL     1      -9.789  14.422  66.600  1.00  0.00     0.000 HD 
ENDROOT
BRANCH   5   7
HETATM    7  C   UNL     1     -10.457  13.137  68.062  1.00  0.00    -0.239 C  
BRANCH   7   8
HETATM    8  C   UNL     1     -11.704  12.254  67.841  1.00  0.00    -0.347 C  
HETATM    9  H   UNL     1     -12.805  11.652  66.317  1.00  0.00     0.000 HD 
HETATM   10  O   UNL     1     -12.038  12.196  66.452  1.00  0.00    -0.630 OA 
BRANCH   8  11
HETATM   11  C   UNL     1     -11.416  10.846  68.393  1.00  0.00    -0.304 C  
BRANCH  11  12
HETATM   12  O   UNL     1     -10.958  10.931  69.744  1.00  0.00    -0.255 OA 
BRANCH  12  13
HETATM   13  C   UNL     1     -11.573  10.186  70.718  1.00  0.00    -0.357 A  
HETATM   14  C   UNL     1     -12.969  10.372  70.711  1.00  0.00    -0.422 A  
HETATM   15  C   UNL     1     -13.811   9.629  71.538  1.00  0.00    -0.216 A  
HETATM   16  C   UNL     1     -13.270   8.646  72.353  1.00  0.00    -0.388 A  
HETATM   17  C   UNL     1     -11.892   8.429  72.355  1.00  0.00    -0.384 A  
HETATM   18  C   UNL     1     -11.012   9.218  71.578  1.00  0.00    -0.446 A  
HETATM   19  C   UNL     1      -9.551   8.853  71.620  1.00  0.00    -0.363 C  
HETATM   20  C   UNL     1      -9.121   8.067  72.846  1.00  0.00    -0.313 C  
HETATM   21  C   UNL     1     -10.099   7.002  73.227  1.00  0.00    -0.255 C  
HETATM   22  N   UNL     1     -11.419   7.334  73.086  1.00  0.00    -0.580 N  
HETATM   23  O   UNL     1      -9.758   5.946  73.751  1.00  0.00    -0.151 OA 
HETATM   24  H   UNL     1     -12.108   6.740  73.548  1.00  0.00     0.000 HD 
ENDBRANCH  12  13
ENDBRANCH  11  12
ENDBRANCH   8  11
ENDBRANCH   7   8
ENDBRANCH   5   7
TORSDOF 5
ENDMDL
MODEL       70
REMARK 921   NORMALIZED FREE ENERGY PREDICTED BY IDOCK:   -5.26 KCAL/MOL
REMARK 922        TOTAL FREE ENERGY PREDICTED BY IDOCK:   -7.42 KCAL/MOL
REMARK 923 INTER-LIGAND FREE ENERGY PREDICTED BY IDOCK:   -6.69 KCAL/MOL
REMARK 924 INTRA-LIGAND FREE ENERGY PREDICTED BY IDOCK:   -0.73 KCAL/MOL
REMARK 927      BINDING AFFINITY PREDICTED BY RF-SCORE:    0.00 PKD
ROOT
HETATM    1  C   UNL     1      -9.923  10.563  66.500  1.00  0.00    -0.266 C  
HETATM    2  C   UNL     1      -9.449  12.017  66.677  1.00  0.00    -0.217 C  
HETATM    3  C   UNL     1      -7.935  12.000  66.959  1.00  0.00    -0.150 C  
HETATM    4  C   UNL     1     -10.154  12.653  67.890  1.00  0.00    -0.222 C  
HETATM    5  N   UNL     1      -9.657  12.824  65.457  1.00  0.00    -0.461 NA 
HETATM    6  H   UNL     1      -9.052  12.493  64.705  1.00  0.00     0.000 HD 
ENDROOT
BRANCH   5   7
HETATM    7  C   UNL     1     -11.049  12.889  65.000  1.00  0.00    -0.292 C  
BRANCH   7   8
HETATM    8  C   UNL     1     -11.431  14.275  64.438  1.00  0.00    -0.310 C  
HETATM    9  H   UNL     1     -13.013  15.121  63.612  1.00  0.00     0.000 HD 
HETATM   10  O   UNL     1     -12.779  14.267  63.958  1.00  0.00    -0.697 OA 
BRANCH   8  11
HETATM   11  C   UNL     1     -11.254  15.325  65.550  1.00  0.00    -0.277 C  
BRANCH  11  12
HETATM   12  O   UNL     1     -10.574  16.473  65.039  1.00  0.00    -0.670 OA 
BRANCH  12  13
HETATM   13  C   UNL     1      -9.969  17.347  65.907  1.00  0.00    -0.149 A  
HETATM   14  C   UNL     1     -10.633  18.588  65.941  1.00  0.00    -0.336 A  
HETATM   15  C   UNL     1     -10.264  19.592  66.835  1.00  0.00    -0.560 A  
HETATM   16  C   UNL     1      -9.252  19.349  67.752  1.00  0.00    -0.382 A  
HETATM   17  C   UNL     1      -8.600  18.115  67.752  1.00  0.00    -0.255 A  
HETATM   18  C   UNL     1      -8.909  17.108  66.807  1.00  0.00    -0.270 A  
HETATM   19  C   UNL     1      -8.177  15.799  66.941  1.00  0.00    -0.288 C  
HETATM   20  C   UNL     1      -6.861  15.873  67.696  1.00  0.00    -0.191 C  
HETATM   21  C   UNL     1      -6.937  16.738  68.914  1.00  0.00    -0.207 C  
HETATM   22  N   UNL     1      -7.690  17.874  68.787  1.00  0.00    -0.283 N  
HETATM   23  O   UNL     1      -6.272  16.521  69.923  1.00  0.00    -0.212 OA 
HETATM   24  H   UNL     1      -7.579  18.597  69.497  1.00  0.00     0.000 HD 
ENDBRANCH  12  13
ENDBRANCH  11  12
ENDBRANCH   8  11
ENDBRANCH   7   8
ENDBRANCH   5   7
TORSDOF 5
ENDMDL
MODEL       71
REMARK 921   NORMALIZED FREE ENERGY PREDICTED BY IDOCK:   -5.26 KCAL/MOL
REMARK 922        TOTAL FREE ENERGY PREDICTED BY IDOCK:   -7.42 KCAL/MOL
REMARK 923 INTER-LIGAND FREE ENERGY PREDICTED BY IDOCK:   -6.28 KCAL/MOL
REMARK 924 INTRA-LIGAND FREE ENERGY PREDICTED BY IDOCK:   -1.14 KCAL/MOL
REMARK 927      BINDING AFFINITY PREDICTED BY RF-SCORE:    0.00 PKD
ROOT
HETATM    1  C   UNL     1     -12.521  13.100  65.702  1.00  0.00    -0.485 C  
HETATM    2  C   UNL     1     -11.587  13.477  64.539  1.00  0.00    -0.381 C  
HETATM    3  C   UNL     1     -11.550  15.012  64.427  1.00  0.00    -0.281 C  
HETATM    4  C   UNL     1     -12.145  12.915  63.218  1.00  0.00    -0.520 C  
HETATM    5  N   UNL     1     -10.200  13.023  64.767  1.00  0.00    -0.484 NA 
HETATM    6  H   UNL     1      -9.784  13.531  65.547  1.00  0.00     0.000 HD 
ENDROOT
BRANCH   5   7
HETATM    7  C   UNL     1     -10.058  11.576  64.967  1.00  0.00    -0.270 C  
BRANCH   7   8
HETATM    8  C   UNL     1      -9.341  11.222  66.288  1.00  0.00    -0.207 C  
HETATM    9  H   UNL     1      -8.074   9.849  66.927  1.00  0.00     0.000 HD 
HETATM   10  O   UNL     1      -8.515  10.066  66.115  1.00  0.00    -0.123 OA 
BRANCH   8  11
HETATM   11  C   UNL     1      -8.500  12.432  66.734  1.00  0.00    -0.095 C  
BRANCH  11  12
HETATM   12  O   UNL     1      -8.880  12.837  68.050  1.00  0.00    -0.181 OA 
BRANCH  12  13
HETATM   13  C   UNL     1      -9.862  13.781  68.214  1.00  0.00    -0.232 A  
HETATM   14  C   UNL     1     -10.878  13.327  69.076  1.00  0.00    -0.212 A  
HETATM   15  C   UNL     1     -11.922  14.160  69.480  1.00  0.00    -0.389 A  
HETATM   16  C   UNL     1     -11.935  15.484  69.066  1.00  0.00    -0.323 A  
HETATM   17  C   UNL     1     -10.921  15.958  68.233  1.00  0.00    -0.329 A  
HETATM   18  C   UNL     1      -9.893  15.114  67.753  1.00  0.00    -0.223 A  
HETATM   19  C   UNL     1      -8.825  15.753  66.906  1.00  0.00    -0.273 C  
HETATM   20  C   UNL     1      -9.230  17.054  66.235  1.00  0.00    -0.278 C  
HETATM   21  C   UNL     1     -10.012  17.954  67.138  1.00  0.00    -0.327 C  
HETATM   22  N   UNL     1     -10.907  17.332  67.964  1.00  0.00    -0.357 N  
HETATM   23  O   UNL     1      -9.956  19.179  67.062  1.00  0.00    -0.314 OA 
HETATM   24  H   UNL     1     -11.616  17.910  68.416  1.00  0.00     0.000 HD 
ENDBRANCH  12  13
ENDBRANCH  11  12
ENDBRANCH   8  11
ENDBRANCH   7   8
ENDBRANCH   5   7
TORSDOF 5
ENDMDL
MODEL       72
REMARK 921   NORMALIZED FREE ENERGY PREDICTED BY IDOCK:   -5.26 KCAL/MOL
REMARK 922        TOTAL FREE ENERGY PREDICTED BY IDOCK:   -7.42 KCAL/MOL
REMARK 923 INTER-LIGAND FREE ENERGY PREDICTED BY IDOCK:   -6.54 KCAL/MOL
REMARK 924 INTRA-LIGAND FREE ENERGY PREDICTED BY IDOCK:   -0.88 KCAL/MOL
REMARK 927      BINDING AFFINITY PREDICTED BY RF-SCORE:    0.00 PKD
ROOT
HETATM    1  C   UNL     1      -7.589  14.936  69.445  1.00  0.00    -0.162 C  
HETATM    2  C   UNL     1      -7.210  14.348  68.075  1.00  0.00    -0.141 C  
HETATM    3  C   UNL     1      -7.583  12.854  68.071  1.00  0.00    -0.137 C  
HETATM    4  C   UNL     1      -5.689  14.461  67.860  1.00  0.00    -0.118 C  
HETATM    5  N   UNL     1      -7.953  14.985  66.969  1.00  0.00    -0.282 NA 
HETATM    6  H   UNL     1      -8.946  14.758  67.030  1.00  0.00     0.000 HD 
ENDROOT
BRANCH   5   7
HETATM    7  C   UNL     1      -7.768  16.437  66.868  1.00  0.00    -0.241 C  
BRANCH   7   8
HETATM    8  C   UNL     1      -9.102  17.204  66.745  1.00  0.00    -0.247 C  
HETATM    9  H   UNL     1     -10.531  17.425  65.400  1.00  0.00     0.000 HD 
HETATM   10  O   UNL     1      -9.710  16.952  65.475  1.00  0.00    -0.541 OA 
BRANCH   8  11
HETATM   11  C   UNL     1     -10.031  16.767  67.893  1.00  0.00    -0.268 C  
BRANCH  11  12
HETATM   12  O   UNL     1     -11.120  15.999  67.378  1.00  0.00    -0.278 OA 
BRANCH  12  13
HETATM   13  C   UNL     1     -11.496  14.842  68.013  1.00  0.00    -0.337 A  
HETATM   14  C   UNL     1     -11.131  13.702  67.272  1.00  0.00    -0.309 A  
HETATM   15  C   UNL     1     -11.310  12.413  67.775  1.00  0.00    -0.356 A  
HETATM   16  C   UNL     1     -11.812  12.247  69.058  1.00  0.00    -0.358 A  
HETATM   17  C   UNL     1     -12.154  13.367  69.817  1.00  0.00    -0.310 A  
HETATM   18  C   UNL     1     -12.049  14.679  69.300  1.00  0.00    -0.307 A  
HETATM   19  C   UNL     1     -12.395  15.809  70.233  1.00  0.00    -0.341 C  
HETATM   20  C   UNL     1     -13.296  15.430  71.395  1.00  0.00    -0.601 C  
HETATM   21  C   UNL     1     -12.921  14.123  72.019  1.00  0.00    -0.360 C  
HETATM   22  N   UNL     1     -12.519  13.146  71.150  1.00  0.00    -0.341 N  
HETATM   23  O   UNL     1     -13.080  13.890  73.214  1.00  0.00    -0.501 OA 
HETATM   24  H   UNL     1     -12.483  12.188  71.498  1.00  0.00     0.000 HD 
ENDBRANCH  12  13
ENDBRANCH  11  12
ENDBRANCH   8  11
ENDBRANCH   7   8
ENDBRANCH   5   7
TORSDOF 5
ENDMDL
MODEL       73
REMARK 921   NORMALIZED FREE ENERGY PREDICTED BY IDOCK:   -5.25 KCAL/MOL
REMARK 922        TOTAL FREE ENERGY PREDICTED BY IDOCK:   -7.42 KCAL/MOL
REMARK 923 INTER-LIGAND FREE ENERGY PREDICTED BY IDOCK:   -6.95 KCAL/MOL
REMARK 924 INTRA-LIGAND FREE ENERGY PREDICTED BY IDOCK:   -0.46 KCAL/MOL
REMARK 927      BINDING AFFINITY PREDICTED BY RF-SCORE:    0.00 PKD
ROOT
HETATM    1  C   UNL     1      -5.255  20.155  68.563  1.00  0.00    -0.226 C  
HETATM    2  C   UNL     1      -6.042  19.400  69.649  1.00  0.00    -0.273 C  
HETATM    3  C   UNL     1      -6.129  20.300  70.895  1.00  0.00    -0.278 C  
HETATM    4  C   UNL     1      -5.289  18.114  70.041  1.00  0.00    -0.227 C  
HETATM    5  N   UNL     1      -7.426  19.100  69.230  1.00  0.00    -0.246 NA 
HETATM    6  H   UNL     1      -7.964  19.962  69.139  1.00  0.00     0.000 HD 
ENDROOT
BRANCH   5   7
HETATM    7  C   UNL     1      -7.531  18.301  68.004  1.00  0.00    -0.241 C  
BRANCH   7   8
HETATM    8  C   UNL     1      -8.583  18.852  67.018  1.00  0.00    -0.289 C  
HETATM    9  H   UNL     1      -8.649  19.394  65.120  1.00  0.00     0.000 HD 
HETATM   10  O   UNL     1      -8.001  19.055  65.726  1.00  0.00    -0.465 OA 
BRANCH   8  11
HETATM   11  C   UNL     1      -9.755  17.856  66.938  1.00  0.00    -0.309 C  
BRANCH  11  12
HETATM   12  O   UNL     1      -9.261  16.516  66.915  1.00  0.00    -0.211 OA 
BRANCH  12  13
HETATM   13  C   UNL     1     -10.102  15.477  67.227  1.00  0.00    -0.250 A  
HETATM   14  C   UNL     1     -10.452  15.484  68.591  1.00  0.00    -0.237 A  
HETATM   15  C   UNL     1     -11.386  14.589  69.112  1.00  0.00    -0.305 A  
HETATM   16  C   UNL     1     -12.028  13.702  68.260  1.00  0.00    -0.385 A  
HETATM   17  C   UNL     1     -11.712  13.698  66.900  1.00  0.00    -0.389 A  
HETATM   18  C   UNL     1     -10.717  14.547  66.363  1.00  0.00    -0.309 A  
HETATM   19  C   UNL     1     -10.505  14.492  64.873  1.00  0.00    -0.435 C  
HETATM   20  C   UNL     1     -10.972  13.210  64.205  1.00  0.00    -0.428 C  
HETATM   21  C   UNL     1     -12.291  12.732  64.723  1.00  0.00    -0.478 C  
HETATM   22  N   UNL     1     -12.489  12.885  66.068  1.00  0.00    -0.249 N  
HETATM   23  O   UNL     1     -13.097  12.127  64.022  1.00  0.00    -0.723 OA 
HETATM   24  H   UNL     1     -13.258  12.368  66.495  1.00  0.00     0.000 HD 
ENDBRANCH  12  13
ENDBRANCH  11  12
ENDBRANCH   8  11
ENDBRANCH   7   8
ENDBRANCH   5   7
TORSDOF 5
ENDMDL
MODEL       74
REMARK 921   NORMALIZED FREE ENERGY PREDICTED BY IDOCK:   -5.24 KCAL/MOL
REMARK 922        TOTAL FREE ENERGY PREDICTED BY IDOCK:   -7.40 KCAL/MOL
REMARK 923 INTER-LIGAND FREE ENERGY PREDICTED BY IDOCK:   -7.01 KCAL/MOL
REMARK 924 INTRA-LIGAND FREE ENERGY PREDICTED BY IDOCK:   -0.40 KCAL/MOL
REMARK 927      BINDING AFFINITY PREDICTED BY RF-SCORE:    0.00 PKD
ROOT
HETATM    1  C   UNL     1      -9.707   7.061  71.932  1.00  0.00    -0.166 C  
HETATM    2  C   UNL     1     -11.228   6.961  71.717  1.00  0.00    -0.252 C  
HETATM    3  C   UNL     1     -11.741   5.719  72.470  1.00  0.00    -0.280 C  
HETATM    4  C   UNL     1     -11.533   6.772  70.220  1.00  0.00    -0.414 C  
HETATM    5  N   UNL     1     -11.947   8.130  72.264  1.00  0.00    -0.358 NA 
HETATM    6  H   UNL     1     -11.876   8.146  73.282  1.00  0.00     0.000 HD 
ENDROOT
BRANCH   5   7
HETATM    7  C   UNL     1     -11.528   9.419  71.703  1.00  0.00    -0.393 C  
BRANCH   7   8
HETATM    8  C   UNL     1     -12.703  10.226  71.111  1.00  0.00    -0.403 C  
HETATM    9  H   UNL     1     -13.804  11.780  71.631  1.00  0.00     0.000 HD 
HETATM   10  O   UNL     1     -13.081  11.284  71.996  1.00  0.00    -0.495 OA 
BRANCH   8  11
HETATM   11  C   UNL     1     -12.278  10.785  69.741  1.00  0.00    -0.288 C  
BRANCH  11  12
HETATM   12  O   UNL     1     -11.967  12.175  69.852  1.00  0.00    -0.319 OA 
BRANCH  12  13
HETATM   13  C   UNL     1     -11.577  12.876  68.738  1.00  0.00    -0.311 A  
HETATM   14  C   UNL     1     -11.706  12.103  67.568  1.00  0.00    -0.385 A  
HETATM   15  C   UNL     1     -11.476  12.646  66.303  1.00  0.00    -0.415 A  
HETATM   16  C   UNL     1     -11.163  13.992  66.187  1.00  0.00    -0.318 A  
HETATM   17  C   UNL     1     -11.057  14.779  67.335  1.00  0.00    -0.324 A  
HETATM   18  C   UNL     1     -11.215  14.235  68.630  1.00  0.00    -0.287 A  
HETATM   19  C   UNL     1     -11.133  15.194  69.788  1.00  0.00    -0.295 C  
HETATM   20  C   UNL     1     -10.387  16.486  69.500  1.00  0.00    -0.266 C  
HETATM   21  C   UNL     1     -10.719  17.062  68.161  1.00  0.00    -0.374 C  
HETATM   22  N   UNL     1     -10.881  16.155  67.150  1.00  0.00    -0.268 N  
HETATM   23  O   UNL     1     -10.722  18.271  67.943  1.00  0.00    -0.397 OA 
HETATM   24  H   UNL     1     -10.872  16.507  66.192  1.00  0.00     0.000 HD 
ENDBRANCH  12  13
ENDBRANCH  11  12
ENDBRANCH   8  11
ENDBRANCH   7   8
ENDBRANCH   5   7
TORSDOF 5
ENDMDL
MODEL       75
REMARK 921   NORMALIZED FREE ENERGY PREDICTED BY IDOCK:   -5.22 KCAL/MOL
REMARK 922        TOTAL FREE ENERGY PREDICTED BY IDOCK:   -7.38 KCAL/MOL
REMARK 923 INTER-LIGAND FREE ENERGY PREDICTED BY IDOCK:   -6.75 KCAL/MOL
REMARK 924 INTRA-LIGAND FREE ENERGY PREDICTED BY IDOCK:   -0.63 KCAL/MOL
REMARK 927      BINDING AFFINITY PREDICTED BY RF-SCORE:    0.00 PKD
ROOT
HETATM    1  C   UNL     1     -11.577  14.970  72.000  1.00  0.00    -0.419 C  
HETATM    2  C   UNL     1     -12.668  14.315  71.135  1.00  0.00    -0.360 C  
HETATM    3  C   UNL     1     -13.982  15.090  71.347  1.00  0.00    -0.565 C  
HETATM    4  C   UNL     1     -12.893  12.860  71.589  1.00  0.00    -0.368 C  
HETATM    5  N   UNL     1     -12.351  14.380  69.694  1.00  0.00    -0.484 NA 
HETATM    6  H   UNL     1     -12.374  15.346  69.368  1.00  0.00     0.000 HD 
ENDROOT
BRANCH   5   7
HETATM    7  C   UNL     1     -11.082  13.745  69.320  1.00  0.00    -0.208 C  
BRANCH   7   8
HETATM    8  C   UNL     1     -10.086  14.731  68.674  1.00  0.00    -0.238 C  
HETATM    9  H   UNL     1      -8.347  14.637  67.744  1.00  0.00     0.000 HD 
HETATM   10  O   UNL     1      -8.959  14.029  68.141  1.00  0.00    -0.171 OA 
BRANCH   8  11
HETATM   11  C   UNL     1     -10.815  15.515  67.567  1.00  0.00    -0.306 C  
BRANCH  11  12
HETATM   12  O   UNL     1      -9.875  16.263  66.794  1.00  0.00    -0.230 OA 
BRANCH  12  13
HETATM   13  C   UNL     1      -9.589  17.560  67.139  1.00  0.00    -0.262 A  
HETATM   14  C   UNL     1     -10.659  18.424  66.840  1.00  0.00    -0.381 A  
HETATM   15  C   UNL     1     -10.639  19.769  67.209  1.00  0.00    -0.565 A  
HETATM   16  C   UNL     1      -9.563  20.261  67.932  1.00  0.00    -0.438 A  
HETATM   17  C   UNL     1      -8.505  19.412  68.260  1.00  0.00    -0.341 A  
HETATM   18  C   UNL     1      -8.470  18.063  67.836  1.00  0.00    -0.253 A  
HETATM   19  C   UNL     1      -7.303  17.232  68.298  1.00  0.00    -0.214 C  
HETATM   20  C   UNL     1      -6.070  18.023  68.697  1.00  0.00    -0.195 C  
HETATM   21  C   UNL     1      -6.395  19.243  69.498  1.00  0.00    -0.304 C  
HETATM   22  N   UNL     1      -7.517  19.923  69.110  1.00  0.00    -0.221 N  
HETATM   23  O   UNL     1      -5.646  19.687  70.364  1.00  0.00    -0.227 OA 
HETATM   24  H   UNL     1      -7.643  20.871  69.466  1.00  0.00     0.000 HD 
ENDBRANCH  12  13
ENDBRANCH  11  12
ENDBRANCH   8  11
ENDBRANCH   7   8
ENDBRANCH   5   7
TORSDOF 5
ENDMDL
MODEL       76
REMARK 921   NORMALIZED FREE ENERGY PREDICTED BY IDOCK:   -5.21 KCAL/MOL
REMARK 922        TOTAL FREE ENERGY PREDICTED BY IDOCK:   -7.36 KCAL/MOL
REMARK 923 INTER-LIGAND FREE ENERGY PREDICTED BY IDOCK:   -6.17 KCAL/MOL
REMARK 924 INTRA-LIGAND FREE ENERGY PREDICTED BY IDOCK:   -1.19 KCAL/MOL
REMARK 927      BINDING AFFINITY PREDICTED BY RF-SCORE:    0.00 PKD
ROOT
HETATM    1  C   UNL     1     -11.091   8.791  70.109  1.00  0.00    -0.214 C  
HETATM    2  C   UNL     1     -10.834  10.182  69.504  1.00  0.00    -0.255 C  
HETATM    3  C   UNL     1     -11.814  11.178  70.152  1.00  0.00    -0.449 C  
HETATM    4  C   UNL     1     -11.115  10.153  67.990  1.00  0.00    -0.302 C  
HETATM    5  N   UNL     1      -9.468  10.669  69.784  1.00  0.00    -0.388 NA 
HETATM    6  H   UNL     1      -9.352  10.847  70.781  1.00  0.00     0.000 HD 
ENDROOT
BRANCH   5   7
HETATM    7  C   UNL     1      -8.398   9.794  69.293  1.00  0.00    -0.142 C  
BRANCH   7   8
HETATM    8  C   UNL     1      -7.197  10.579  68.722  1.00  0.00    -0.084 C  
HETATM    9  H   UNL     1      -6.125  10.587  67.064  1.00  0.00     0.000 HD 
HETATM   10  O   UNL     1      -6.863  10.104  67.414  1.00  0.00    -0.076 OA 
BRANCH   8  11
HETATM   11  C   UNL     1      -7.557  12.075  68.684  1.00  0.00    -0.112 C  
BRANCH  11  12
HETATM   12  O   UNL     1      -8.091  12.420  67.405  1.00  0.00    -0.159 OA 
BRANCH  12  13
HETATM   13  C   UNL     1      -9.301  13.062  67.323  1.00  0.00    -0.220 A  
HETATM   14  C   UNL     1      -9.515  13.908  68.428  1.00  0.00    -0.211 A  
HETATM   15  C   UNL     1     -10.626  14.748  68.504  1.00  0.00    -0.248 A  
HETATM   16  C   UNL     1     -11.519  14.793  67.443  1.00  0.00    -0.376 A  
HETATM   17  C   UNL     1     -11.309  13.980  66.328  1.00  0.00    -0.333 A  
HETATM   18  C   UNL     1     -10.229  13.069  66.261  1.00  0.00    -0.291 A  
HETATM   19  C   UNL     1     -10.075  12.287  64.984  1.00  0.00    -0.277 C  
HETATM   20  C   UNL     1     -11.339  12.160  64.151  1.00  0.00    -0.449 C  
HETATM   21  C   UNL     1     -12.117  13.435  64.079  1.00  0.00    -0.449 C  
HETATM   22  N   UNL     1     -12.158  14.170  65.232  1.00  0.00    -0.386 N  
HETATM   23  O   UNL     1     -12.784  13.748  63.097  1.00  0.00    -0.743 OA 
HETATM   24  H   UNL     1     -12.858  14.909  65.298  1.00  0.00     0.000 HD 
ENDBRANCH  12  13
ENDBRANCH  11  12
ENDBRANCH   8  11
ENDBRANCH   7   8
ENDBRANCH   5   7
TORSDOF 5
ENDMDL
MODEL       77
REMARK 921   NORMALIZED FREE ENERGY PREDICTED BY IDOCK:   -5.14 KCAL/MOL
REMARK 922        TOTAL FREE ENERGY PREDICTED BY IDOCK:   -7.27 KCAL/MOL
REMARK 923 INTER-LIGAND FREE ENERGY PREDICTED BY IDOCK:   -6.32 KCAL/MOL
REMARK 924 INTRA-LIGAND FREE ENERGY PREDICTED BY IDOCK:   -0.95 KCAL/MOL
REMARK 927      BINDING AFFINITY PREDICTED BY RF-SCORE:    0.00 PKD
ROOT
HETATM    1  C   UNL     1      -8.926   9.689  62.887  1.00  0.00    -0.260 C  
HETATM    2  C   UNL     1      -8.928  10.453  64.223  1.00  0.00    -0.226 C  
HETATM    3  C   UNL     1      -7.476  10.549  64.726  1.00  0.00     0.029 C  
HETATM    4  C   UNL     1      -9.746   9.673  65.270  1.00  0.00    -0.330 C  
HETATM    5  N   UNL     1      -9.431  11.834  64.076  1.00  0.00    -0.477 NA 
HETATM    6  H   UNL     1      -8.785  12.389  63.515  1.00  0.00     0.000 HD 
ENDROOT
BRANCH   5   7
HETATM    7  C   UNL     1     -10.791  11.932  63.535  1.00  0.00    -0.434 C  
BRANCH   7   8
HETATM    8  C   UNL     1     -11.574  13.138  64.096  1.00  0.00    -0.410 C  
HETATM    9  H   UNL     1     -13.042  14.318  63.503  1.00  0.00     0.000 HD 
HETATM   10  O   UNL     1     -12.561  13.576  63.157  1.00  0.00    -0.762 OA 
BRANCH   8  11
HETATM   11  C   UNL     1     -12.231  12.725  65.426  1.00  0.00    -0.478 C  
BRANCH  11  12
HETATM   12  O   UNL     1     -11.642  13.445  66.510  1.00  0.00    -0.327 OA 
BRANCH  12  13
HETATM   13  C   UNL     1     -10.484  12.983  67.082  1.00  0.00    -0.243 A  
HETATM   14  C   UNL     1      -9.403  13.854  66.841  1.00  0.00    -0.265 A  
HETATM   15  C   UNL     1      -8.152  13.647  67.423  1.00  0.00    -0.184 A  
HETATM   16  C   UNL     1      -7.977  12.588  68.302  1.00  0.00    -0.153 A  
HETATM   17  C   UNL     1      -9.044  11.731  68.573  1.00  0.00    -0.144 A  
HETATM   18  C   UNL     1     -10.300  11.879  67.940  1.00  0.00    -0.212 A  
HETATM   19  C   UNL     1     -11.390  10.926  68.356  1.00  0.00    -0.370 C  
HETATM   20  C   UNL     1     -10.905   9.628  68.977  1.00  0.00    -0.206 C  
HETATM   21  C   UNL     1      -9.775   9.828  69.935  1.00  0.00    -0.238 C  
HETATM   22  N   UNL     1      -8.851  10.770  69.572  1.00  0.00    -0.392 N  
HETATM   23  O   UNL     1      -9.606   9.114  70.920  1.00  0.00    -0.239 OA 
HETATM   24  H   UNL     1      -7.958  10.772  70.065  1.00  0.00     0.000 HD 
ENDBRANCH  12  13
ENDBRANCH  11  12
ENDBRANCH   8  11
ENDBRANCH   7   8
ENDBRANCH   5   7
TORSDOF 5
ENDMDL
MODEL       78
REMARK 921   NORMALIZED FREE ENERGY PREDICTED BY IDOCK:   -5.13 KCAL/MOL
REMARK 922        TOTAL FREE ENERGY PREDICTED BY IDOCK:   -7.25 KCAL/MOL
REMARK 923 INTER-LIGAND FREE ENERGY PREDICTED BY IDOCK:   -6.64 KCAL/MOL
REMARK 924 INTRA-LIGAND FREE ENERGY PREDICTED BY IDOCK:   -0.61 KCAL/MOL
REMARK 927      BINDING AFFINITY PREDICTED BY RF-SCORE:    0.00 PKD
ROOT
HETATM    1  C   UNL     1      -8.335   5.835  68.038  1.00  0.00    -0.103 C  
HETATM    2  C   UNL     1      -9.720   6.491  68.181  1.00  0.00    -0.126 C  
HETATM    3  C   UNL     1     -10.483   5.766  69.305  1.00  0.00    -0.358 C  
HETATM    4  C   UNL     1     -10.517   6.319  66.875  1.00  0.00    -0.337 C  
HETATM    5  N   UNL     1      -9.627   7.914  68.565  1.00  0.00    -0.149 NA 
HETATM    6  H   UNL     1      -9.251   8.004  69.509  1.00  0.00     0.000 HD 
ENDROOT
BRANCH   5   7
HETATM    7  C   UNL     1      -8.863   8.748  67.631  1.00  0.00    -0.135 C  
BRANCH   7   8
HETATM    8  C   UNL     1      -9.649   9.987  67.152  1.00  0.00    -0.165 C  
HETATM    9  H   UNL     1     -10.590  10.567  65.516  1.00  0.00     0.000 HD 
HETATM   10  O   UNL     1     -10.106   9.804  65.809  1.00  0.00    -0.293 OA 
BRANCH   8  11
HETATM   11  C   UNL     1     -10.835  10.218  68.107  1.00  0.00    -0.265 C  
BRANCH  11  12
HETATM   12  O   UNL     1     -11.847  10.988  67.456  1.00  0.00    -0.571 OA 
BRANCH  12  13
HETATM   13  C   UNL     1     -11.851  12.354  67.585  1.00  0.00    -0.295 A  
HETATM   14  C   UNL     1     -11.662  12.749  68.923  1.00  0.00    -0.370 A  
HETATM   15  C   UNL     1     -11.517  14.091  69.277  1.00  0.00    -0.344 A  
HETATM   16  C   UNL     1     -11.505  15.059  68.284  1.00  0.00    -0.349 A  
HETATM   17  C   UNL     1     -11.664  14.684  66.950  1.00  0.00    -0.350 A  
HETATM   18  C   UNL     1     -11.884  13.338  66.575  1.00  0.00    -0.450 A  
HETATM   19  C   UNL     1     -11.986  13.049  65.100  1.00  0.00    -0.440 C  
HETATM   20  C   UNL     1     -12.366  14.239  64.237  1.00  0.00    -0.407 C  
HETATM   21  C   UNL     1     -11.661  15.496  64.637  1.00  0.00    -0.226 C  
HETATM   22  N   UNL     1     -11.501  15.682  65.983  1.00  0.00     0.057 N  
HETATM   23  O   UNL     1     -11.356  16.370  63.830  1.00  0.00    -0.967 OA 
HETATM   24  H   UNL     1     -11.246  16.616  66.305  1.00  0.00     0.000 HD 
ENDBRANCH  12  13
ENDBRANCH  11  12
ENDBRANCH   8  11
ENDBRANCH   7   8
ENDBRANCH   5   7
TORSDOF 5
ENDMDL
MODEL       79
REMARK 921   NORMALIZED FREE ENERGY PREDICTED BY IDOCK:   -5.13 KCAL/MOL
REMARK 922        TOTAL FREE ENERGY PREDICTED BY IDOCK:   -7.25 KCAL/MOL
REMARK 923 INTER-LIGAND FREE ENERGY PREDICTED BY IDOCK:   -6.55 KCAL/MOL
REMARK 924 INTRA-LIGAND FREE ENERGY PREDICTED BY IDOCK:   -0.70 KCAL/MOL
REMARK 927      BINDING AFFINITY PREDICTED BY RF-SCORE:    0.00 PKD
ROOT
HETATM    1  C   UNL     1      -8.105  15.512  68.884  1.00  0.00    -0.194 C  
HETATM    2  C   UNL     1      -7.530  15.125  67.511  1.00  0.00    -0.198 C  
HETATM    3  C   UNL     1      -7.187  13.624  67.537  1.00  0.00    -0.169 C  
HETATM    4  C   UNL     1      -6.229  15.907  67.250  1.00  0.00    -0.117 C  
HETATM    5  N   UNL     1      -8.503  15.331  66.419  1.00  0.00    -0.418 NA 
HETATM    6  H   UNL     1      -9.284  14.682  66.513  1.00  0.00     0.000 HD 
ENDROOT
BRANCH   5   7
HETATM    7  C   UNL     1      -8.996  16.707  66.295  1.00  0.00    -0.305 C  
BRANCH   7   8
HETATM    8  C   UNL     1     -10.519  16.779  66.052  1.00  0.00    -0.293 C  
HETATM    9  H   UNL     1     -11.743  16.782  64.503  1.00  0.00     0.000 HD 
HETATM   10  O   UNL     1     -10.806  16.738  64.652  1.00  0.00    -0.835 OA 
BRANCH   8  11
HETATM   11  C   UNL     1     -11.191  15.602  66.783  1.00  0.00    -0.083 C  
BRANCH  11  12
HETATM   12  O   UNL     1     -11.874  14.767  65.846  1.00  0.00    -0.314 OA 
BRANCH  12  13
HETATM   13  C   UNL     1     -11.443  13.481  65.642  1.00  0.00    -0.315 A  
HETATM   14  C   UNL     1     -10.963  13.296  64.331  1.00  0.00    -0.413 A  
HETATM   15  C   UNL     1     -10.369  12.099  63.931  1.00  0.00    -0.441 A  
HETATM   16  C   UNL     1     -10.197  11.081  64.857  1.00  0.00    -0.373 A  
HETATM   17  C   UNL     1     -10.642  11.256  66.168  1.00  0.00    -0.258 A  
HETATM   18  C   UNL     1     -11.312  12.433  66.578  1.00  0.00    -0.392 A  
HETATM   19  C   UNL     1     -11.695  12.529  68.031  1.00  0.00    -0.410 C  
HETATM   20  C   UNL     1     -11.807  11.198  68.754  1.00  0.00    -0.388 C  
HETATM   21  C   UNL     1     -10.706  10.250  68.402  1.00  0.00    -0.226 C  
HETATM   22  N   UNL     1     -10.316  10.257  67.091  1.00  0.00    -0.225 N  
HETATM   23  O   UNL     1     -10.261   9.427  69.198  1.00  0.00    -0.187 OA 
HETATM   24  H   UNL     1      -9.746   9.477  66.762  1.00  0.00     0.000 HD 
ENDBRANCH  12  13
ENDBRANCH  11  12
ENDBRANCH   8  11
ENDBRANCH   7   8
ENDBRANCH   5   7
TORSDOF 5
ENDMDL
MODEL       80
REMARK 921   NORMALIZED FREE ENERGY PREDICTED BY IDOCK:   -5.12 KCAL/MOL
REMARK 922        TOTAL FREE ENERGY PREDICTED BY IDOCK:   -7.24 KCAL/MOL
REMARK 923 INTER-LIGAND FREE ENERGY PREDICTED BY IDOCK:   -6.87 KCAL/MOL
REMARK 924 INTRA-LIGAND FREE ENERGY PREDICTED BY IDOCK:   -0.37 KCAL/MOL
REMARK 927      BINDING AFFINITY PREDICTED BY RF-SCORE:    0.00 PKD
ROOT
HETATM    1  C   UNL     1     -10.165   4.846  70.462  1.00  0.00    -0.288 C  
HETATM    2  C   UNL     1      -9.967   6.060  71.386  1.00  0.00    -0.186 C  
HETATM    3  C   UNL     1      -8.995   5.656  72.511  1.00  0.00    -0.133 C  
HETATM    4  C   UNL     1     -11.309   6.451  72.032  1.00  0.00    -0.338 C  
HETATM    5  N   UNL     1      -9.362   7.207  70.679  1.00  0.00    -0.158 NA 
HETATM    6  H   UNL     1      -8.404   6.990  70.404  1.00  0.00     0.000 HD 
ENDROOT
BRANCH   5   7
HETATM    7  C   UNL     1     -10.130   7.682  69.522  1.00  0.00    -0.192 C  
BRANCH   7   8
HETATM    8  C   UNL     1     -10.383   9.204  69.555  1.00  0.00    -0.215 C  
HETATM    9  H   UNL     1      -9.954  10.722  70.743  1.00  0.00     0.000 HD 
HETATM   10  O   UNL     1      -9.798   9.785  70.724  1.00  0.00    -0.218 OA 
BRANCH   8  11
HETATM   11  C   UNL     1      -9.790   9.831  68.279  1.00  0.00    -0.148 C  
BRANCH  11  12
HETATM   12  O   UNL     1     -10.801   9.958  67.278  1.00  0.00    -0.267 OA 
BRANCH  12  13
HETATM   13  C   UNL     1     -10.521  10.620  66.109  1.00  0.00    -0.194 A  
HETATM   14  C   UNL     1      -9.786   9.813  65.220  1.00  0.00    -0.371 A  
HETATM   15  C   UNL     1      -9.486  10.235  63.925  1.00  0.00    -0.356 A  
HETATM   16  C   UNL     1      -9.967  11.458  63.479  1.00  0.00    -0.424 A  
HETATM   17  C   UNL     1     -10.720  12.260  64.338  1.00  0.00    -0.331 A  
HETATM   18  C   UNL     1     -10.975  11.884  65.677  1.00  0.00    -0.353 A  
HETATM   19  C   UNL     1     -11.847  12.805  66.490  1.00  0.00    -0.471 C  
HETATM   20  C   UNL     1     -11.912  14.237  65.988  1.00  0.00    -0.412 C  
HETATM   21  C   UNL     1     -12.029  14.326  64.499  1.00  0.00    -0.462 C  
HETATM   22  N   UNL     1     -11.297  13.412  63.792  1.00  0.00    -0.592 N  
HETATM   23  O   UNL     1     -12.636  15.233  63.936  1.00  0.00    -0.765 OA 
HETATM   24  H   UNL     1     -11.162  13.583  62.796  1.00  0.00     0.000 HD 
ENDBRANCH  12  13
ENDBRANCH  11  12
ENDBRANCH   8  11
ENDBRANCH   7   8
ENDBRANCH   5   7
TORSDOF 5
ENDMDL
MODEL       81
REMARK 921   NORMALIZED FREE ENERGY PREDICTED BY IDOCK:   -5.11 KCAL/MOL
REMARK 922        TOTAL FREE ENERGY PREDICTED BY IDOCK:   -7.23 KCAL/MOL
REMARK 923 INTER-LIGAND FREE ENERGY PREDICTED BY IDOCK:   -6.78 KCAL/MOL
REMARK 924 INTRA-LIGAND FREE ENERGY PREDICTED BY IDOCK:   -0.45 KCAL/MOL
REMARK 927      BINDING AFFINITY PREDICTED BY RF-SCORE:    0.00 PKD
ROOT
HETATM    1  C   UNL     1     -10.038   9.100  66.422  1.00  0.00    -0.345 C  
HETATM    2  C   UNL     1      -9.437  10.236  65.574  1.00  0.00    -0.223 C  
HETATM    3  C   UNL     1      -8.701   9.607  64.377  1.00  0.00    -0.230 C  
HETATM    4  C   UNL     1      -8.408  11.022  66.408  1.00  0.00    -0.165 C  
HETATM    5  N   UNL     1     -10.474  11.133  65.026  1.00  0.00    -0.296 NA 
HETATM    6  H   UNL     1     -11.047  10.638  64.343  1.00  0.00     0.000 HD 
ENDROOT
BRANCH   5   7
HETATM    7  C   UNL     1     -11.325  11.769  66.039  1.00  0.00    -0.273 C  
BRANCH   7   8
HETATM    8  C   UNL     1     -11.912  13.117  65.567  1.00  0.00    -0.412 C  
HETATM    9  H   UNL     1     -13.536  13.747  64.637  1.00  0.00     0.000 HD 
HETATM   10  O   UNL     1     -13.175  12.917  64.927  1.00  0.00    -0.782 OA 
BRANCH   8  11
HETATM   11  C   UNL     1     -12.058  14.046  66.786  1.00  0.00    -0.447 C  
BRANCH  11  12
HETATM   12  O   UNL     1     -11.498  15.328  66.497  1.00  0.00    -0.242 OA 
BRANCH  12  13
HETATM   13  C   UNL     1     -10.573  15.874  67.350  1.00  0.00    -0.315 A  
HETATM   14  C   UNL     1      -9.953  14.889  68.143  1.00  0.00    -0.222 A  
HETATM   15  C   UNL     1      -8.898  15.197  69.002  1.00  0.00    -0.219 A  
HETATM   16  C   UNL     1      -8.409  16.495  69.042  1.00  0.00    -0.202 A  
HETATM   17  C   UNL     1      -8.994  17.479  68.243  1.00  0.00    -0.267 A  
HETATM   18  C   UNL     1     -10.110  17.205  67.419  1.00  0.00    -0.301 A  
HETATM   19  C   UNL     1     -10.618  18.334  66.562  1.00  0.00    -0.313 C  
HETATM   20  C   UNL     1     -10.247  19.725  67.046  1.00  0.00    -0.579 C  
HETATM   21  C   UNL     1      -8.833  19.817  67.523  1.00  0.00    -0.326 C  
HETATM   22  N   UNL     1      -8.371  18.732  68.217  1.00  0.00    -0.319 N  
HETATM   23  O   UNL     1      -8.163  20.840  67.417  1.00  0.00    -0.306 OA 
HETATM   24  H   UNL     1      -7.512  18.845  68.755  1.00  0.00     0.000 HD 
ENDBRANCH  12  13
ENDBRANCH  11  12
ENDBRANCH   8  11
ENDBRANCH   7   8
ENDBRANCH   5   7
TORSDOF 5
ENDMDL
MODEL       82
REMARK 921   NORMALIZED FREE ENERGY PREDICTED BY IDOCK:   -5.09 KCAL/MOL
REMARK 922        TOTAL FREE ENERGY PREDICTED BY IDOCK:   -7.20 KCAL/MOL
REMARK 923 INTER-LIGAND FREE ENERGY PREDICTED BY IDOCK:   -6.43 KCAL/MOL
REMARK 924 INTRA-LIGAND FREE ENERGY PREDICTED BY IDOCK:   -0.77 KCAL/MOL
REMARK 927      BINDING AFFINITY PREDICTED BY RF-SCORE:    0.00 PKD
ROOT
HETATM    1  C   UNL     1     -10.563   7.414  67.135  1.00  0.00    -0.413 C  
HETATM    2  C   UNL     1      -9.234   6.913  66.543  1.00  0.00    -0.163 C  
HETATM    3  C   UNL     1      -9.468   5.513  65.946  1.00  0.00    -0.115 C  
HETATM    4  C   UNL     1      -8.180   6.787  67.658  1.00  0.00    -0.119 C  
HETATM    5  N   UNL     1      -8.749   7.778  65.448  1.00  0.00    -0.340 NA 
HETATM    6  H   UNL     1      -9.375   7.719  64.645  1.00  0.00     0.000 HD 
ENDROOT
BRANCH   5   7
HETATM    7  C   UNL     1      -8.539   9.180  65.827  1.00  0.00    -0.153 C  
BRANCH   7   8
HETATM    8  C   UNL     1      -8.075  10.058  64.645  1.00  0.00    -0.155 C  
HETATM    9  H   UNL     1      -6.724   9.961  63.208  1.00  0.00     0.000 HD 
HETATM   10  O   UNL     1      -7.009   9.420  63.935  1.00  0.00    -0.091 OA 
BRANCH   8  11
HETATM   11  C   UNL     1      -9.276  10.310  63.716  1.00  0.00    -0.275 C  
BRANCH  11  12
HETATM   12  O   UNL     1     -10.472  10.446  64.484  1.00  0.00    -0.249 OA 
BRANCH  12  13
HETATM   13  C   UNL     1     -10.971  11.697  64.748  1.00  0.00    -0.289 A  
HETATM   14  C   UNL     1     -11.413  12.338  63.575  1.00  0.00    -0.558 A  
HETATM   15  C   UNL     1     -12.062  13.572  63.614  1.00  0.00    -0.459 A  
HETATM   16  C   UNL     1     -12.329  14.162  64.841  1.00  0.00    -0.446 A  
HETATM   17  C   UNL     1     -11.922  13.528  66.016  1.00  0.00    -0.409 A  
HETATM   18  C   UNL     1     -11.199  12.313  65.997  1.00  0.00    -0.375 A  
HETATM   19  C   UNL     1     -10.864  11.698  67.330  1.00  0.00    -0.302 C  
HETATM   20  C   UNL     1     -10.858  12.665  68.501  1.00  0.00    -0.279 C  
HETATM   21  C   UNL     1     -12.001  13.629  68.464  1.00  0.00    -0.361 C  
HETATM   22  N   UNL     1     -12.342  14.096  67.224  1.00  0.00    -0.576 N  
HETATM   23  O   UNL     1     -12.523  14.076  69.482  1.00  0.00    -0.299 OA 
HETATM   24  H   UNL     1     -12.944  14.918  67.177  1.00  0.00     0.000 HD 
ENDBRANCH  12  13
ENDBRANCH  11  12
ENDBRANCH   8  11
ENDBRANCH   7   8
ENDBRANCH   5   7
TORSDOF 5
ENDMDL
MODEL       83
REMARK 921   NORMALIZED FREE ENERGY PREDICTED BY IDOCK:   -5.07 KCAL/MOL
REMARK 922        TOTAL FREE ENERGY PREDICTED BY IDOCK:   -7.18 KCAL/MOL
REMARK 923 INTER-LIGAND FREE ENERGY PREDICTED BY IDOCK:   -6.67 KCAL/MOL
REMARK 924 INTRA-LIGAND FREE ENERGY PREDICTED BY IDOCK:   -0.52 KCAL/MOL
REMARK 927      BINDING AFFINITY PREDICTED BY RF-SCORE:    0.00 PKD
ROOT
HETATM    1  C   UNL     1     -10.178   7.320  67.723  1.00  0.00    -0.247 C  
HETATM    2  C   UNL     1     -10.018   6.790  69.160  1.00  0.00    -0.159 C  
HETATM    3  C   UNL     1      -8.744   5.926  69.215  1.00  0.00    -0.119 C  
HETATM    4  C   UNL     1     -11.218   5.896  69.524  1.00  0.00    -0.299 C  
HETATM    5  N   UNL     1      -9.849   7.880  70.141  1.00  0.00    -0.184 NA 
HETATM    6  H   UNL     1      -8.961   8.359  69.991  1.00  0.00     0.000 HD 
ENDROOT
BRANCH   5   7
HETATM    7  C   UNL     1     -10.951   8.848  70.172  1.00  0.00    -0.227 C  
BRANCH   7   8
HETATM    8  C   UNL     1     -10.512  10.271  69.764  1.00  0.00    -0.259 C  
HETATM    9  H   UNL     1      -8.829  11.190  69.290  1.00  0.00     0.000 HD 
HETATM   10  O   UNL     1      -9.099  10.314  69.541  1.00  0.00    -0.206 OA 
BRANCH   8  11
HETATM   11  C   UNL     1     -11.278  10.679  68.493  1.00  0.00    -0.282 C  
BRANCH  11  12
HETATM   12  O   UNL     1     -12.347  11.566  68.826  1.00  0.00    -0.425 OA 
BRANCH  12  13
HETATM   13  C   UNL     1     -12.083  12.894  69.053  1.00  0.00    -0.154 A  
HETATM   14  C   UNL     1     -11.595  13.531  67.896  1.00  0.00    -0.377 A  
HETATM   15  C   UNL     1     -11.366  14.906  67.859  1.00  0.00    -0.340 A  
HETATM   16  C   UNL     1     -11.674  15.678  68.970  1.00  0.00    -0.408 A  
HETATM   17  C   UNL     1     -12.184  15.067  70.116  1.00  0.00    -0.343 A  
HETATM   18  C   UNL     1     -12.357  13.666  70.202  1.00  0.00    -0.372 A  
HETATM   19  C   UNL     1     -12.966  13.130  71.470  1.00  0.00    -0.412 C  
HETATM   20  C   UNL     1     -12.838  14.040  72.679  1.00  0.00    -0.403 C  
HETATM   21  C   UNL     1     -13.095  15.477  72.355  1.00  0.00    -0.437 C  
HETATM   22  N   UNL     1     -12.609  15.908  71.151  1.00  0.00    -0.546 N  
HETATM   23  O   UNL     1     -13.594  16.258  73.160  1.00  0.00    -0.467 OA 
HETATM   24  H   UNL     1     -12.553  16.915  70.996  1.00  0.00     0.000 HD 
ENDBRANCH  12  13
ENDBRANCH  11  12
ENDBRANCH   8  11
ENDBRANCH   7   8
ENDBRANCH   5   7
TORSDOF 5
ENDMDL
MODEL       84
REMARK 921   NORMALIZED FREE ENERGY PREDICTED BY IDOCK:   -5.07 KCAL/MOL
REMARK 922        TOTAL FREE ENERGY PREDICTED BY IDOCK:   -7.18 KCAL/MOL
REMARK 923 INTER-LIGAND FREE ENERGY PREDICTED BY IDOCK:   -6.53 KCAL/MOL
REMARK 924 INTRA-LIGAND FREE ENERGY PREDICTED BY IDOCK:   -0.65 KCAL/MOL
REMARK 927      BINDING AFFINITY PREDICTED BY RF-SCORE:    0.00 PKD
ROOT
HETATM    1  C   UNL     1     -12.596  14.821  73.373  1.00  0.00    -0.556 C  
HETATM    2  C   UNL     1     -12.914  14.706  71.872  1.00  0.00    -0.331 C  
HETATM    3  C   UNL     1     -12.030  15.713  71.113  1.00  0.00    -0.457 C  
HETATM    4  C   UNL     1     -14.387  15.079  71.619  1.00  0.00    -0.680 C  
HETATM    5  N   UNL     1     -12.605  13.365  71.337  1.00  0.00    -0.322 NA 
HETATM    6  H   UNL     1     -11.598  13.199  71.354  1.00  0.00     0.000 HD 
ENDROOT
BRANCH   5   7
HETATM    7  C   UNL     1     -13.315  12.266  72.001  1.00  0.00    -0.386 C  
BRANCH   7   8
HETATM    8  C   UNL     1     -12.739  10.879  71.645  1.00  0.00    -0.393 C  
HETATM    9  H   UNL     1     -13.230   8.987  71.929  1.00  0.00     0.000 HD 
HETATM   10  O   UNL     1     -13.585   9.841  72.148  1.00  0.00    -0.419 OA 
BRANCH   8  11
HETATM   11  C   UNL     1     -12.601  10.778  70.115  1.00  0.00    -0.240 C  
BRANCH  11  12
HETATM   12  O   UNL     1     -11.225  10.850  69.739  1.00  0.00    -0.252 OA 
BRANCH  12  13
HETATM   13  C   UNL     1     -10.890  11.127  68.437  1.00  0.00    -0.205 A  
HETATM   14  C   UNL     1     -11.041  12.496  68.143  1.00  0.00    -0.282 A  
HETATM   15  C   UNL     1     -10.650  13.028  66.914  1.00  0.00    -0.260 A  
HETATM   16  C   UNL     1     -10.049  12.203  65.975  1.00  0.00    -0.259 A  
HETATM   17  C   UNL     1      -9.867  10.849  66.260  1.00  0.00    -0.216 A  
HETATM   18  C   UNL     1     -10.320  10.273  67.470  1.00  0.00    -0.276 A  
HETATM   19  C   UNL     1     -10.017   8.815  67.687  1.00  0.00    -0.247 C  
HETATM   20  C   UNL     1      -9.751   8.019  66.421  1.00  0.00    -0.255 C  
HETATM   21  C   UNL     1      -8.892   8.754  65.441  1.00  0.00    -0.178 C  
HETATM   22  N   UNL     1      -9.130  10.097  65.338  1.00  0.00    -0.174 N  
HETATM   23  O   UNL     1      -8.112   8.182  64.685  1.00  0.00    -0.145 OA 
HETATM   24  H   UNL     1      -8.743  10.586  64.531  1.00  0.00     0.000 HD 
ENDBRANCH  12  13
ENDBRANCH  11  12
ENDBRANCH   8  11
ENDBRANCH   7   8
ENDBRANCH   5   7
TORSDOF 5
ENDMDL
MODEL       85
REMARK 921   NORMALIZED FREE ENERGY PREDICTED BY IDOCK:   -5.06 KCAL/MOL
REMARK 922        TOTAL FREE ENERGY PREDICTED BY IDOCK:   -7.17 KCAL/MOL
REMARK 923 INTER-LIGAND FREE ENERGY PREDICTED BY IDOCK:   -6.62 KCAL/MOL
REMARK 924 INTRA-LIGAND FREE ENERGY PREDICTED BY IDOCK:   -0.55 KCAL/MOL
REMARK 927      BINDING AFFINITY PREDICTED BY RF-SCORE:    0.00 PKD
ROOT
HETATM    1  C   UNL     1      -8.772  16.501  66.423  1.00  0.00    -0.357 C  
HETATM    2  C   UNL     1      -9.962  16.501  67.399  1.00  0.00    -0.267 C  
HETATM    3  C   UNL     1     -10.362  17.962  67.672  1.00  0.00    -0.387 C  
HETATM    4  C   UNL     1      -9.541  15.862  68.736  1.00  0.00    -0.219 C  
HETATM    5  N   UNL     1     -11.147  15.823  66.835  1.00  0.00    -0.204 NA 
HETATM    6  H   UNL     1     -11.518  16.354  66.047  1.00  0.00     0.000 HD 
ENDROOT
BRANCH   5   7
HETATM    7  C   UNL     1     -10.922  14.426  66.448  1.00  0.00    -0.319 C  
BRANCH   7   8
HETATM    8  C   UNL     1     -12.117  13.509  66.788  1.00  0.00    -0.375 C  
HETATM    9  H   UNL     1     -13.169  12.103  65.886  1.00  0.00     0.000 HD 
HETATM   10  O   UNL     1     -12.434  12.666  65.676  1.00  0.00    -0.622 OA 
BRANCH   8  11
HETATM   11  C   UNL     1     -11.758  12.668  68.026  1.00  0.00    -0.350 C  
BRANCH  11  12
HETATM   12  O   UNL     1     -11.992  11.284  67.766  1.00  0.00    -0.637 OA 
BRANCH  12  13
HETATM   13  C   UNL     1     -11.002  10.367  68.017  1.00  0.00    -0.291 A  
HETATM   14  C   UNL     1     -10.235  10.104  66.866  1.00  0.00    -0.295 A  
HETATM   15  C   UNL     1      -9.102   9.290  66.910  1.00  0.00    -0.158 A  
HETATM   16  C   UNL     1      -8.687   8.768  68.127  1.00  0.00    -0.134 A  
HETATM   17  C   UNL     1      -9.420   9.041  69.283  1.00  0.00    -0.157 A  
HETATM   18  C   UNL     1     -10.611   9.803  69.249  1.00  0.00    -0.240 A  
HETATM   19  C   UNL     1     -11.283  10.076  70.568  1.00  0.00    -0.408 C  
HETATM   20  C   UNL     1     -10.936   9.102  71.680  1.00  0.00    -0.445 C  
HETATM   21  C   UNL     1      -9.481   8.756  71.717  1.00  0.00    -0.293 C  
HETATM   22  N   UNL     1      -8.878   8.608  70.498  1.00  0.00    -0.151 N  
HETATM   23  O   UNL     1      -8.889   8.494  72.760  1.00  0.00    -0.315 OA 
HETATM   24  H   UNL     1      -7.967   8.149  70.473  1.00  0.00     0.000 HD 
ENDBRANCH  12  13
ENDBRANCH  11  12
ENDBRANCH   8  11
ENDBRANCH   7   8
ENDBRANCH   5   7
TORSDOF 5
ENDMDL
MODEL       86
REMARK 921   NORMALIZED FREE ENERGY PREDICTED BY IDOCK:   -5.04 KCAL/MOL
REMARK 922        TOTAL FREE ENERGY PREDICTED BY IDOCK:   -7.14 KCAL/MOL
REMARK 923 INTER-LIGAND FREE ENERGY PREDICTED BY IDOCK:   -6.24 KCAL/MOL
REMARK 924 INTRA-LIGAND FREE ENERGY PREDICTED BY IDOCK:   -0.90 KCAL/MOL
REMARK 927      BINDING AFFINITY PREDICTED BY RF-SCORE:    0.00 PKD
ROOT
HETATM    1  C   UNL     1      -9.910   9.046  71.576  1.00  0.00    -0.381 C  
HETATM    2  C   UNL     1     -11.219   8.950  70.772  1.00  0.00    -0.272 C  
HETATM    3  C   UNL     1     -12.193  10.015  71.308  1.00  0.00    -0.498 C  
HETATM    4  C   UNL     1     -11.861   7.566  70.982  1.00  0.00    -0.319 C  
HETATM    5  N   UNL     1     -11.013   9.229  69.336  1.00  0.00    -0.393 NA 
HETATM    6  H   UNL     1     -10.750  10.205  69.198  1.00  0.00     0.000 HD 
ENDROOT
BRANCH   5   7
HETATM    7  C   UNL     1     -10.049   8.342  68.676  1.00  0.00    -0.197 C  
BRANCH   7   8
HETATM    8  C   UNL     1      -8.949   9.113  67.914  1.00  0.00    -0.128 C  
HETATM    9  H   UNL     1      -7.027   8.889  67.521  1.00  0.00     0.000 HD 
HETATM   10  O   UNL     1      -7.703   8.414  67.990  1.00  0.00    -0.100 OA 
BRANCH   8  11
HETATM   11  C   UNL     1      -9.391   9.286  66.449  1.00  0.00    -0.192 C  
BRANCH  11  12
HETATM   12  O   UNL     1     -10.634   9.986  66.390  1.00  0.00    -0.166 OA 
BRANCH  12  13
HETATM   13  C   UNL     1     -10.669  11.269  65.905  1.00  0.00    -0.232 A  
HETATM   14  C   UNL     1     -10.747  11.291  64.499  1.00  0.00    -0.390 A  
HETATM   15  C   UNL     1     -10.908  12.483  63.793  1.00  0.00    -0.489 A  
HETATM   16  C   UNL     1     -11.048  13.674  64.490  1.00  0.00    -0.396 A  
HETATM   17  C   UNL     1     -11.001  13.668  65.885  1.00  0.00    -0.282 A  
HETATM   18  C   UNL     1     -10.766  12.482  66.619  1.00  0.00    -0.261 A  
HETATM   19  C   UNL     1     -10.792  12.593  68.120  1.00  0.00    -0.250 C  
HETATM   20  C   UNL     1     -10.538  13.988  68.666  1.00  0.00    -0.263 C  
HETATM   21  C   UNL     1     -11.249  15.053  67.893  1.00  0.00    -0.323 C  
HETATM   22  N   UNL     1     -11.289  14.872  66.537  1.00  0.00    -0.342 N  
HETATM   23  O   UNL     1     -11.660  16.086  68.413  1.00  0.00    -0.364 OA 
HETATM   24  H   UNL     1     -11.549  15.673  65.961  1.00  0.00     0.000 HD 
ENDBRANCH  12  13
ENDBRANCH  11  12
ENDBRANCH   8  11
ENDBRANCH   7   8
ENDBRANCH   5   7
TORSDOF 5
ENDMDL
MODEL       87
REMARK 921   NORMALIZED FREE ENERGY PREDICTED BY IDOCK:   -5.03 KCAL/MOL
REMARK 922        TOTAL FREE ENERGY PREDICTED BY IDOCK:   -7.12 KCAL/MOL
REMARK 923 INTER-LIGAND FREE ENERGY PREDICTED BY IDOCK:   -6.39 KCAL/MOL
REMARK 924 INTRA-LIGAND FREE ENERGY PREDICTED BY IDOCK:   -0.73 KCAL/MOL
REMARK 927      BINDING AFFINITY PREDICTED BY RF-SCORE:    0.00 PKD
ROOT
HETATM    1  C   UNL     1      -9.224   7.583  67.178  1.00  0.00    -0.161 C  
HETATM    2  C   UNL     1      -8.602   8.967  66.918  1.00  0.00    -0.123 C  
HETATM    3  C   UNL     1      -7.461   8.799  65.898  1.00  0.00    -0.089 C  
HETATM    4  C   UNL     1      -8.001   9.523  68.222  1.00  0.00    -0.094 C  
HETATM    5  N   UNL     1      -9.573   9.914  66.333  1.00  0.00    -0.188 NA 
HETATM    6  H   UNL     1      -9.835   9.619  65.393  1.00  0.00     0.000 HD 
ENDROOT
BRANCH   5   7
HETATM    7  C   UNL     1     -10.771  10.139  67.149  1.00  0.00    -0.221 C  
BRANCH   7   8
HETATM    8  C   UNL     1     -11.078  11.637  67.363  1.00  0.00    -0.281 C  
HETATM    9  H   UNL     1     -12.315  12.985  66.621  1.00  0.00     0.000 HD 
HETATM   10  O   UNL     1     -12.127  12.064  66.489  1.00  0.00    -0.617 OA 
BRANCH   8  11
HETATM   11  C   UNL     1     -11.472  11.855  68.836  1.00  0.00    -0.301 C  
BRANCH  11  12
HETATM   12  O   UNL     1     -10.788  10.921  69.672  1.00  0.00    -0.245 OA 
BRANCH  12  13
HETATM   13  C   UNL     1     -11.477  10.259  70.658  1.00  0.00    -0.349 A  
HETATM   14  C   UNL     1     -12.851  10.565  70.625  1.00  0.00    -0.407 A  
HETATM   15  C   UNL     1     -13.764   9.922  71.461  1.00  0.00    -0.223 A  
HETATM   16  C   UNL     1     -13.320   8.919  72.310  1.00  0.00    -0.497 A  
HETATM   17  C   UNL     1     -11.966   8.584  72.337  1.00  0.00    -0.364 A  
HETATM   18  C   UNL     1     -11.012   9.271  71.551  1.00  0.00    -0.446 A  
HETATM   19  C   UNL     1      -9.589   8.783  71.623  1.00  0.00    -0.363 C  
HETATM   20  C   UNL     1      -9.243   7.997  72.876  1.00  0.00    -0.332 C  
HETATM   21  C   UNL     1     -10.315   7.033  73.272  1.00  0.00    -0.309 C  
HETATM   22  N   UNL     1     -11.599   7.473  73.104  1.00  0.00    -0.601 N  
HETATM   23  O   UNL     1     -10.072   5.966  73.830  1.00  0.00    -0.185 OA 
HETATM   24  H   UNL     1     -12.342   6.955  73.572  1.00  0.00     0.000 HD 
ENDBRANCH  12  13
ENDBRANCH  11  12
ENDBRANCH   8  11
ENDBRANCH   7   8
ENDBRANCH   5   7
TORSDOF 5
ENDMDL
MODEL       88
REMARK 921   NORMALIZED FREE ENERGY PREDICTED BY IDOCK:   -5.02 KCAL/MOL
REMARK 922        TOTAL FREE ENERGY PREDICTED BY IDOCK:   -7.12 KCAL/MOL
REMARK 923 INTER-LIGAND FREE ENERGY PREDICTED BY IDOCK:   -6.46 KCAL/MOL
REMARK 924 INTRA-LIGAND FREE ENERGY PREDICTED BY IDOCK:   -0.65 KCAL/MOL
REMARK 927      BINDING AFFINITY PREDICTED BY RF-SCORE:    0.00 PKD
ROOT
HETATM    1  C   UNL     1     -10.605   7.189  67.247  1.00  0.00    -0.398 C  
HETATM    2  C   UNL     1      -9.186   7.446  67.785  1.00  0.00    -0.131 C  
HETATM    3  C   UNL     1      -8.180   7.135  66.661  1.00  0.00    -0.112 C  
HETATM    4  C   UNL     1      -8.894   6.498  68.963  1.00  0.00    -0.130 C  
HETATM    5  N   UNL     1      -8.983   8.856  68.173  1.00  0.00    -0.137 NA 
HETATM    6  H   UNL     1      -9.010   9.459  67.350  1.00  0.00     0.000 HD 
ENDROOT
BRANCH   5   7
HETATM    7  C   UNL     1      -9.914   9.346  69.196  1.00  0.00    -0.182 C  
BRANCH   7   8
HETATM    8  C   UNL     1     -10.879  10.425  68.660  1.00  0.00    -0.232 C  
HETATM    9  H   UNL     1     -12.589  11.245  69.211  1.00  0.00     0.000 HD 
HETATM   10  O   UNL     1     -11.995  10.581  69.541  1.00  0.00    -0.259 OA 
BRANCH   8  11
HETATM   11  C   UNL     1     -10.108  11.750  68.514  1.00  0.00    -0.207 C  
BRANCH  11  12
HETATM   12  O   UNL     1      -9.231  11.687  67.389  1.00  0.00    -0.164 OA 
BRANCH  12  13
HETATM   13  C   UNL     1      -9.726  11.907  66.128  1.00  0.00    -0.232 A  
HETATM   14  C   UNL     1      -9.824  10.710  65.393  1.00  0.00    -0.325 A  
HETATM   15  C   UNL     1     -10.407  10.673  64.127  1.00  0.00    -0.293 A  
HETATM   16  C   UNL     1     -10.952  11.833  63.595  1.00  0.00    -0.513 A  
HETATM   17  C   UNL     1     -10.888  13.023  64.320  1.00  0.00    -0.405 A  
HETATM   18  C   UNL     1     -10.238  13.099  65.574  1.00  0.00    -0.297 A  
HETATM   19  C   UNL     1     -10.282  14.425  66.286  1.00  0.00    -0.307 C  
HETATM   20  C   UNL     1     -10.533  15.626  65.392  1.00  0.00    -0.435 C  
HETATM   21  C   UNL     1     -11.586  15.373  64.360  1.00  0.00    -0.264 C  
HETATM   22  N   UNL     1     -11.577  14.125  63.800  1.00  0.00    -0.565 N  
HETATM   23  O   UNL     1     -12.330  16.256  63.943  1.00  0.00    -0.874 OA 
HETATM   24  H   UNL     1     -12.111  13.987  62.942  1.00  0.00     0.000 HD 
ENDBRANCH  12  13
ENDBRANCH  11  12
ENDBRANCH   8  11
ENDBRANCH   7   8
ENDBRANCH   5   7
TORSDOF 5
ENDMDL
MODEL       89
REMARK 921   NORMALIZED FREE ENERGY PREDICTED BY IDOCK:   -4.99 KCAL/MOL
REMARK 922        TOTAL FREE ENERGY PREDICTED BY IDOCK:   -7.08 KCAL/MOL
REMARK 923 INTER-LIGAND FREE ENERGY PREDICTED BY IDOCK:   -6.32 KCAL/MOL
REMARK 924 INTRA-LIGAND FREE ENERGY PREDICTED BY IDOCK:   -0.77 KCAL/MOL
REMARK 927      BINDING AFFINITY PREDICTED BY RF-SCORE:    0.00 PKD
ROOT
HETATM    1  C   UNL     1     -10.388  17.330  69.058  1.00  0.00    -0.330 C  
HETATM    2  C   UNL     1     -10.820  15.872  69.292  1.00  0.00    -0.276 C  
HETATM    3  C   UNL     1     -11.610  15.810  70.613  1.00  0.00    -0.416 C  
HETATM    4  C   UNL     1      -9.577  14.975  69.436  1.00  0.00    -0.145 C  
HETATM    5  N   UNL     1     -11.714  15.376  68.226  1.00  0.00    -0.437 NA 
HETATM    6  H   UNL     1     -12.607  15.869  68.253  1.00  0.00     0.000 HD 
ENDROOT
BRANCH   5   7
HETATM    7  C   UNL     1     -11.141  15.432  66.877  1.00  0.00    -0.256 C  
BRANCH   7   8
HETATM    8  C   UNL     1     -11.186  14.071  66.150  1.00  0.00    -0.318 C  
HETATM    9  H   UNL     1      -9.903  12.671  65.610  1.00  0.00     0.000 HD 
HETATM   10  O   UNL     1      -9.874  13.508  66.057  1.00  0.00    -0.288 OA 
BRANCH   8  11
HETATM   11  C   UNL     1     -12.130  13.130  66.921  1.00  0.00    -0.316 C  
BRANCH  11  12
HETATM   12  O   UNL     1     -11.671  11.782  66.820  1.00  0.00    -0.555 OA 
BRANCH  12  13
HETATM   13  C   UNL     1     -11.401  11.068  67.962  1.00  0.00    -0.306 A  
HETATM   14  C   UNL     1     -11.994  11.658  69.094  1.00  0.00    -0.378 A  
HETATM   15  C   UNL     1     -11.951  11.046  70.347  1.00  0.00    -0.459 A  
HETATM   16  C   UNL     1     -11.355   9.800  70.475  1.00  0.00    -0.382 A  
HETATM   17  C   UNL     1     -10.785   9.187  69.357  1.00  0.00    -0.198 A  
HETATM   18  C   UNL     1     -10.754   9.822  68.093  1.00  0.00    -0.280 A  
HETATM   19  C   UNL     1     -10.163   9.038  66.952  1.00  0.00    -0.339 C  
HETATM   20  C   UNL     1      -9.215   7.924  67.360  1.00  0.00    -0.160 C  
HETATM   21  C   UNL     1      -9.708   7.144  68.537  1.00  0.00    -0.143 C  
HETATM   22  N   UNL     1     -10.327   7.875  69.514  1.00  0.00    -0.213 N  
HETATM   23  O   UNL     1      -9.468   5.949  68.687  1.00  0.00    -0.120 OA 
HETATM   24  H   UNL     1     -10.464   7.431  70.422  1.00  0.00     0.000 HD 
ENDBRANCH  12  13
ENDBRANCH  11  12
ENDBRANCH   8  11
ENDBRANCH   7   8
ENDBRANCH   5   7
TORSDOF 5
ENDMDL
MODEL       90
REMARK 921   NORMALIZED FREE ENERGY PREDICTED BY IDOCK:   -4.99 KCAL/MOL
REMARK 922        TOTAL FREE ENERGY PREDICTED BY IDOCK:   -7.08 KCAL/MOL
REMARK 923 INTER-LIGAND FREE ENERGY PREDICTED BY IDOCK:   -6.49 KCAL/MOL
REMARK 924 INTRA-LIGAND FREE ENERGY PREDICTED BY IDOCK:   -0.59 KCAL/MOL
REMARK 927      BINDING AFFINITY PREDICTED BY RF-SCORE:    0.00 PKD
ROOT
HETATM    1  C   UNL     1     -11.286  10.493  67.594  1.00  0.00    -0.338 C  
HETATM    2  C   UNL     1     -10.969  11.263  68.889  1.00  0.00    -0.223 C  
HETATM    3  C   UNL     1      -9.662  10.701  69.477  1.00  0.00    -0.085 C  
HETATM    4  C   UNL     1     -12.092  11.038  69.918  1.00  0.00    -0.435 C  
HETATM    5  N   UNL     1     -10.753  12.703  68.642  1.00  0.00    -0.245 NA 
HETATM    6  H   UNL     1      -9.903  12.846  68.097  1.00  0.00     0.000 HD 
ENDROOT
BRANCH   5   7
HETATM    7  C   UNL     1     -11.886  13.390  68.012  1.00  0.00    -0.357 C  
BRANCH   7   8
HETATM    8  C   UNL     1     -11.595  13.814  66.556  1.00  0.00    -0.365 C  
HETATM    9  H   UNL     1     -12.619  14.074  64.888  1.00  0.00     0.000 HD 
HETATM   10  O   UNL     1     -12.799  13.813  65.784  1.00  0.00    -0.482 OA 
BRANCH   8  11
HETATM   11  C   UNL     1     -10.955  15.215  66.569  1.00  0.00    -0.318 C  
BRANCH  11  12
HETATM   12  O   UNL     1     -10.875  15.707  67.907  1.00  0.00    -0.288 OA 
BRANCH  12  13
HETATM   13  C   UNL     1      -9.745  16.364  68.324  1.00  0.00    -0.224 A  
HETATM   14  C   UNL     1      -8.825  15.483  68.925  1.00  0.00    -0.217 A  
HETATM   15  C   UNL     1      -7.557  15.907  69.321  1.00  0.00    -0.221 A  
HETATM   16  C   UNL     1      -7.168  17.215  69.072  1.00  0.00    -0.229 A  
HETATM   17  C   UNL     1      -8.056  18.095  68.453  1.00  0.00    -0.303 A  
HETATM   18  C   UNL     1      -9.372  17.707  68.108  1.00  0.00    -0.279 A  
HETATM   19  C   UNL     1     -10.219  18.727  67.395  1.00  0.00    -0.444 C  
HETATM   20  C   UNL     1      -9.789  20.171  67.593  1.00  0.00    -0.567 C  
HETATM   21  C   UNL     1      -8.306  20.350  67.525  1.00  0.00    -0.282 C  
HETATM   22  N   UNL     1      -7.563  19.356  68.100  1.00  0.00    -0.286 N  
HETATM   23  O   UNL     1      -7.782  21.375  67.099  1.00  0.00    -0.299 OA 
HETATM   24  H   UNL     1      -6.578  19.547  68.284  1.00  0.00     0.000 HD 
ENDBRANCH  12  13
ENDBRANCH  11  12
ENDBRANCH   8  11
ENDBRANCH   7   8
ENDBRANCH   5   7
TORSDOF 5
ENDMDL
MODEL       91
REMARK 921   NORMALIZED FREE ENERGY PREDICTED BY IDOCK:   -4.98 KCAL/MOL
REMARK 922        TOTAL FREE ENERGY PREDICTED BY IDOCK:   -7.06 KCAL/MOL
REMARK 923 INTER-LIGAND FREE ENERGY PREDICTED BY IDOCK:   -6.66 KCAL/MOL
REMARK 924 INTRA-LIGAND FREE ENERGY PREDICTED BY IDOCK:   -0.41 KCAL/MOL
REMARK 927      BINDING AFFINITY PREDICTED BY RF-SCORE:    0.00 PKD
ROOT
HETATM    1  C   UNL     1     -10.908   6.882  67.033  1.00  0.00    -0.436 C  
HETATM    2  C   UNL     1      -9.477   7.310  66.663  1.00  0.00    -0.177 C  
HETATM    3  C   UNL     1      -8.809   6.152  65.899  1.00  0.00    -0.151 C  
HETATM    4  C   UNL     1      -8.661   7.572  67.943  1.00  0.00    -0.124 C  
HETATM    5  N   UNL     1      -9.460   8.488  65.771  1.00  0.00    -0.431 NA 
HETATM    6  H   UNL     1      -9.853   8.250  64.861  1.00  0.00     0.000 HD 
ENDROOT
BRANCH   5   7
HETATM    7  C   UNL     1     -10.125   9.675  66.319  1.00  0.00    -0.252 C  
BRANCH   7   8
HETATM    8  C   UNL     1      -9.831  10.955  65.507  1.00  0.00    -0.246 C  
HETATM    9  H   UNL     1     -10.774  12.089  64.193  1.00  0.00     0.000 HD 
HETATM   10  O   UNL     1     -10.955  11.302  64.693  1.00  0.00    -0.294 OA 
BRANCH   8  11
HETATM   11  C   UNL     1      -9.493  12.095  66.485  1.00  0.00    -0.231 C  
BRANCH  11  12
HETATM   12  O   UNL     1     -10.590  12.324  67.371  1.00  0.00    -0.217 OA 
BRANCH  12  13
HETATM   13  C   UNL     1     -10.808  13.583  67.872  1.00  0.00    -0.247 A  
HETATM   14  C   UNL     1     -10.276  14.576  67.027  1.00  0.00    -0.262 A  
HETATM   15  C   UNL     1     -10.479  15.934  67.276  1.00  0.00    -0.310 A  
HETATM   16  C   UNL     1     -11.266  16.319  68.351  1.00  0.00    -0.349 A  
HETATM   17  C   UNL     1     -11.823  15.347  69.183  1.00  0.00    -0.335 A  
HETATM   18  C   UNL     1     -11.573  13.969  68.993  1.00  0.00    -0.345 A  
HETATM   19  C   UNL     1     -12.274  13.013  69.921  1.00  0.00    -0.271 C  
HETATM   20  C   UNL     1     -12.725  13.614  71.241  1.00  0.00    -0.443 C  
HETATM   21  C   UNL     1     -13.325  14.976  71.085  1.00  0.00    -0.445 C  
HETATM   22  N   UNL     1     -12.721  15.786  70.163  1.00  0.00    -0.590 N  
HETATM   23  O   UNL     1     -14.217  15.394  71.818  1.00  0.00    -0.504 OA 
HETATM   24  H   UNL     1     -12.940  16.782  70.192  1.00  0.00     0.000 HD 
ENDBRANCH  12  13
ENDBRANCH  11  12
ENDBRANCH   8  11
ENDBRANCH   7   8
ENDBRANCH   5   7
TORSDOF 5
ENDMDL
MODEL       92
REMARK 921   NORMALIZED FREE ENERGY PREDICTED BY IDOCK:   -4.96 KCAL/MOL
REMARK 922        TOTAL FREE ENERGY PREDICTED BY IDOCK:   -7.04 KCAL/MOL
REMARK 923 INTER-LIGAND FREE ENERGY PREDICTED BY IDOCK:   -6.51 KCAL/MOL
REMARK 924 INTRA-LIGAND FREE ENERGY PREDICTED BY IDOCK:   -0.53 KCAL/MOL
REMARK 927      BINDING AFFINITY PREDICTED BY RF-SCORE:    0.00 PKD
ROOT
HETATM    1  C   UNL     1     -11.158   6.717  67.555  1.00  0.00    -0.340 C  
HETATM    2  C   UNL     1     -10.203   6.631  68.758  1.00  0.00    -0.171 C  
HETATM    3  C   UNL     1      -8.946   5.855  68.322  1.00  0.00    -0.112 C  
HETATM    4  C   UNL     1     -10.873   5.850  69.904  1.00  0.00    -0.439 C  
HETATM    5  N   UNL     1      -9.756   7.964  69.213  1.00  0.00    -0.157 NA 
HETATM    6  H   UNL     1      -9.167   8.402  68.505  1.00  0.00     0.000 HD 
ENDROOT
BRANCH   5   7
HETATM    7  C   UNL     1     -10.842   8.869  69.604  1.00  0.00    -0.178 C  
BRANCH   7   8
HETATM    8  C   UNL     1     -10.638  10.309  69.086  1.00  0.00    -0.230 C  
HETATM    9  H   UNL     1      -9.134  11.566  68.847  1.00  0.00     0.000 HD 
HETATM   10  O   UNL     1      -9.259  10.680  69.166  1.00  0.00    -0.188 OA 
BRANCH   8  11
HETATM   11  C   UNL     1     -11.141  10.388  67.633  1.00  0.00    -0.293 C  
BRANCH  11  12
HETATM   12  O   UNL     1     -12.062  11.470  67.489  1.00  0.00    -0.614 OA 
BRANCH  12  13
HETATM   13  C   UNL     1     -11.663  12.623  66.859  1.00  0.00    -0.383 A  
HETATM   14  C   UNL     1     -11.879  12.556  65.469  1.00  0.00    -0.491 A  
HETATM   15  C   UNL     1     -11.655  13.655  64.640  1.00  0.00    -0.393 A  
HETATM   16  C   UNL     1     -11.259  14.861  65.200  1.00  0.00    -0.389 A  
HETATM   17  C   UNL     1     -11.066  14.953  66.579  1.00  0.00    -0.341 A  
HETATM   18  C   UNL     1     -11.217  13.833  67.430  1.00  0.00    -0.330 A  
HETATM   19  C   UNL     1     -11.036  14.069  68.906  1.00  0.00    -0.283 C  
HETATM   20  C   UNL     1     -10.218  15.297  69.264  1.00  0.00    -0.250 C  
HETATM   21  C   UNL     1     -10.554  16.486  68.422  1.00  0.00    -0.323 C  
HETATM   22  N   UNL     1     -10.807  16.224  67.103  1.00  0.00    -0.248 N  
HETATM   23  O   UNL     1     -10.486  17.637  68.843  1.00  0.00    -0.351 OA 
HETATM   24  H   UNL     1     -10.806  17.012  66.455  1.00  0.00     0.000 HD 
ENDBRANCH  12  13
ENDBRANCH  11  12
ENDBRANCH   8  11
ENDBRANCH   7   8
ENDBRANCH   5   7
TORSDOF 5
ENDMDL
MODEL       93
REMARK 921   NORMALIZED FREE ENERGY PREDICTED BY IDOCK:   -4.96 KCAL/MOL
REMARK 922        TOTAL FREE ENERGY PREDICTED BY IDOCK:   -7.04 KCAL/MOL
REMARK 923 INTER-LIGAND FREE ENERGY PREDICTED BY IDOCK:   -6.64 KCAL/MOL
REMARK 924 INTRA-LIGAND FREE ENERGY PREDICTED BY IDOCK:   -0.40 KCAL/MOL
REMARK 927      BINDING AFFINITY PREDICTED BY RF-SCORE:    0.00 PKD
ROOT
HETATM    1  C   UNL     1     -12.042  12.925  65.805  1.00  0.00    -0.513 C  
HETATM    2  C   UNL     1     -11.256  13.360  64.555  1.00  0.00    -0.372 C  
HETATM    3  C   UNL     1     -10.675  14.762  64.814  1.00  0.00    -0.380 C  
HETATM    4  C   UNL     1     -12.206  13.451  63.346  1.00  0.00    -0.419 C  
HETATM    5  N   UNL     1     -10.118  12.462  64.272  1.00  0.00    -0.493 NA 
HETATM    6  H   UNL     1      -9.413  12.540  65.004  1.00  0.00     0.000 HD 
ENDROOT
BRANCH   5   7
HETATM    7  C   UNL     1     -10.488  11.057  64.067  1.00  0.00    -0.366 C  
BRANCH   7   8
HETATM    8  C   UNL     1      -9.545  10.077  64.799  1.00  0.00    -0.308 C  
HETATM    9  H   UNL     1      -7.635   9.579  64.733  1.00  0.00     0.000 HD 
HETATM   10  O   UNL     1      -8.215  10.182  64.283  1.00  0.00    -0.156 OA 
BRANCH   8  11
HETATM   11  C   UNL     1      -9.574  10.395  66.305  1.00  0.00    -0.182 C  
BRANCH  11  12
HETATM   12  O   UNL     1      -8.985   9.324  67.045  1.00  0.00    -0.125 OA 
BRANCH  12  13
HETATM   13  C   UNL     1      -9.792   8.408  67.672  1.00  0.00    -0.173 A  
HETATM   14  C   UNL     1      -9.988   7.261  66.879  1.00  0.00    -0.302 A  
HETATM   15  C   UNL     1     -10.679   6.148  67.358  1.00  0.00    -0.403 A  
HETATM   16  C   UNL     1     -11.142   6.146  68.666  1.00  0.00    -0.378 A  
HETATM   17  C   UNL     1     -10.934   7.263  69.475  1.00  0.00    -0.164 A  
HETATM   18  C   UNL     1     -10.299   8.430  68.988  1.00  0.00    -0.231 A  
HETATM   19  C   UNL     1     -10.082   9.549  69.971  1.00  0.00    -0.279 C  
HETATM   20  C   UNL     1     -11.002   9.531  71.179  1.00  0.00    -0.438 C  
HETATM   21  C   UNL     1     -11.196   8.159  71.742  1.00  0.00    -0.272 C  
HETATM   22  N   UNL     1     -11.294   7.151  70.822  1.00  0.00    -0.278 N  
HETATM   23  O   UNL     1     -11.383   7.954  72.938  1.00  0.00    -0.406 OA 
HETATM   24  H   UNL     1     -11.657   6.252  71.142  1.00  0.00     0.000 HD 
ENDBRANCH  12  13
ENDBRANCH  11  12
ENDBRANCH   8  11
ENDBRANCH   7   8
ENDBRANCH   5   7
TORSDOF 5
ENDMDL
MODEL       94
REMARK 921   NORMALIZED FREE ENERGY PREDICTED BY IDOCK:   -4.95 KCAL/MOL
REMARK 922        TOTAL FREE ENERGY PREDICTED BY IDOCK:   -7.02 KCAL/MOL
REMARK 923 INTER-LIGAND FREE ENERGY PREDICTED BY IDOCK:   -6.43 KCAL/MOL
REMARK 924 INTRA-LIGAND FREE ENERGY PREDICTED BY IDOCK:   -0.59 KCAL/MOL
REMARK 927      BINDING AFFINITY PREDICTED BY RF-SCORE:    0.00 PKD
ROOT
HETATM    1  C   UNL     1      -7.775  16.514  66.294  1.00  0.00    -0.215 C  
HETATM    2  C   UNL     1      -9.190  16.972  66.692  1.00  0.00    -0.256 C  
HETATM    3  C   UNL     1      -9.171  18.502  66.863  1.00  0.00    -0.290 C  
HETATM    4  C   UNL     1      -9.582  16.344  68.042  1.00  0.00    -0.226 C  
HETATM    5  N   UNL     1     -10.191  16.662  65.650  1.00  0.00    -0.557 NA 
HETATM    6  H   UNL     1     -10.015  17.218  64.813  1.00  0.00     0.000 HD 
ENDROOT
BRANCH   5   7
HETATM    7  C   UNL     1     -10.291  15.239  65.307  1.00  0.00    -0.401 C  
BRANCH   7   8
HETATM    8  C   UNL     1     -11.750  14.739  65.246  1.00  0.00    -0.311 C  
HETATM    9  H   UNL     1     -12.953  13.934  63.903  1.00  0.00     0.000 HD 
HETATM   10  O   UNL     1     -12.055  14.241  63.940  1.00  0.00    -0.415 OA 
BRANCH   8  11
HETATM   11  C   UNL     1     -11.941  13.641  66.308  1.00  0.00    -0.423 C  
BRANCH  11  12
HETATM   12  O   UNL     1     -12.091  12.368  65.677  1.00  0.00    -0.529 OA 
BRANCH  12  13
HETATM   13  C   UNL     1     -11.212  11.356  65.971  1.00  0.00    -0.112 A  
HETATM   14  C   UNL     1     -11.362  10.908  67.298  1.00  0.00    -0.230 A  
HETATM   15  C   UNL     1     -10.653   9.809  67.784  1.00  0.00    -0.320 A  
HETATM   16  C   UNL     1      -9.818   9.105  66.929  1.00  0.00    -0.280 A  
HETATM   17  C   UNL     1      -9.678   9.518  65.603  1.00  0.00    -0.290 A  
HETATM   18  C   UNL     1     -10.331  10.671  65.108  1.00  0.00    -0.331 A  
HETATM   19  C   UNL     1     -10.146  10.985  63.647  1.00  0.00    -0.428 C  
HETATM   20  C   UNL     1      -8.908  10.377  63.011  1.00  0.00    -0.222 C  
HETATM   21  C   UNL     1      -8.669   8.964  63.439  1.00  0.00    -0.022 C  
HETATM   22  N   UNL     1      -8.937   8.690  64.752  1.00  0.00    -0.415 N  
HETATM   23  O   UNL     1      -8.147   8.129  62.706  1.00  0.00    -0.157 OA 
HETATM   24  H   UNL     1      -8.571   7.820  65.139  1.00  0.00     0.000 HD 
ENDBRANCH  12  13
ENDBRANCH  11  12
ENDBRANCH   8  11
ENDBRANCH   7   8
ENDBRANCH   5   7
TORSDOF 5
ENDMDL
MODEL       95
REMARK 921   NORMALIZED FREE ENERGY PREDICTED BY IDOCK:   -4.94 KCAL/MOL
REMARK 922        TOTAL FREE ENERGY PREDICTED BY IDOCK:   -7.02 KCAL/MOL
REMARK 923 INTER-LIGAND FREE ENERGY PREDICTED BY IDOCK:   -6.64 KCAL/MOL
REMARK 924 INTRA-LIGAND FREE ENERGY PREDICTED BY IDOCK:   -0.38 KCAL/MOL
REMARK 927      BINDING AFFINITY PREDICTED BY RF-SCORE:    0.00 PKD
ROOT
HETATM    1  C   UNL     1      -9.777   5.199  67.633  1.00  0.00    -0.178 C  
HETATM    2  C   UNL     1      -9.162   6.197  66.636  1.00  0.00    -0.144 C  
HETATM    3  C   UNL     1      -8.781   5.428  65.358  1.00  0.00    -0.154 C  
HETATM    4  C   UNL     1      -7.877   6.804  67.230  1.00  0.00    -0.110 C  
HETATM    5  N   UNL     1     -10.117   7.252  66.242  1.00  0.00    -0.455 NA 
HETATM    6  H   UNL     1     -10.883   6.853  65.698  1.00  0.00     0.000 HD 
ENDROOT
BRANCH   5   7
HETATM    7  C   UNL     1     -10.643   8.045  67.358  1.00  0.00    -0.267 C  
BRANCH   7   8
HETATM    8  C   UNL     1     -10.224   9.529  67.290  1.00  0.00    -0.234 C  
HETATM    9  H   UNL     1      -9.840  10.865  65.887  1.00  0.00     0.000 HD 
HETATM   10  O   UNL     1     -10.098   9.952  65.929  1.00  0.00    -0.271 OA 
BRANCH   8  11
HETATM   11  C   UNL     1     -11.276  10.375  68.029  1.00  0.00    -0.272 C  
BRANCH  11  12
HETATM   12  O   UNL     1     -11.703  11.461  67.205  1.00  0.00    -0.556 OA 
BRANCH  12  13
HETATM   13  C   UNL     1     -11.712  12.736  67.711  1.00  0.00    -0.359 A  
HETATM   14  C   UNL     1     -11.991  12.744  69.091  1.00  0.00    -0.296 A  
HETATM   15  C   UNL     1     -11.939  13.919  69.842  1.00  0.00    -0.405 A  
HETATM   16  C   UNL     1     -11.555  15.102  69.229  1.00  0.00    -0.344 A  
HETATM   17  C   UNL     1     -11.249  15.108  67.867  1.00  0.00    -0.329 A  
HETATM   18  C   UNL     1     -11.364  13.944  67.071  1.00  0.00    -0.343 A  
HETATM   19  C   UNL     1     -10.953  14.062  65.628  1.00  0.00    -0.300 C  
HETATM   20  C   UNL     1     -10.975  15.473  65.066  1.00  0.00    -0.454 C  
HETATM   21  C   UNL     1     -10.418  16.485  66.017  1.00  0.00    -0.310 C  
HETATM   22  N   UNL     1     -10.732  16.294  67.335  1.00  0.00    -0.312 N  
HETATM   23  O   UNL     1      -9.826  17.492  65.639  1.00  0.00    -0.543 OA 
HETATM   24  H   UNL     1     -10.577  17.073  67.975  1.00  0.00     0.000 HD 
ENDBRANCH  12  13
ENDBRANCH  11  12
ENDBRANCH   8  11
ENDBRANCH   7   8
ENDBRANCH   5   7
TORSDOF 5
ENDMDL
MODEL       96
REMARK 921   NORMALIZED FREE ENERGY PREDICTED BY IDOCK:   -4.94 KCAL/MOL
REMARK 922        TOTAL FREE ENERGY PREDICTED BY IDOCK:   -7.02 KCAL/MOL
REMARK 923 INTER-LIGAND FREE ENERGY PREDICTED BY IDOCK:   -6.69 KCAL/MOL
REMARK 924 INTRA-LIGAND FREE ENERGY PREDICTED BY IDOCK:   -0.32 KCAL/MOL
REMARK 927      BINDING AFFINITY PREDICTED BY RF-SCORE:    0.00 PKD
ROOT
HETATM    1  C   UNL     1      -9.402   8.890  70.732  1.00  0.00    -0.280 C  
HETATM    2  C   UNL     1     -10.913   8.934  70.443  1.00  0.00    -0.244 C  
HETATM    3  C   UNL     1     -11.641   9.326  71.742  1.00  0.00    -0.458 C  
HETATM    4  C   UNL     1     -11.405   7.536  70.023  1.00  0.00    -0.115 C  
HETATM    5  N   UNL     1     -11.258   9.948  69.427  1.00  0.00    -0.378 NA 
HETATM    6  H   UNL     1     -11.083  10.886  69.788  1.00  0.00     0.000 HD 
ENDROOT
BRANCH   5   7
HETATM    7  C   UNL     1     -10.588   9.766  68.134  1.00  0.00    -0.231 C  
BRANCH   7   8
HETATM    8  C   UNL     1     -10.002  11.079  67.572  1.00  0.00    -0.174 C  
HETATM    9  H   UNL     1      -8.475  11.621  66.443  1.00  0.00     0.000 HD 
HETATM   10  O   UNL     1      -8.836  10.813  66.788  1.00  0.00    -0.138 OA 
BRANCH   8  11
HETATM   11  C   UNL     1     -11.081  11.780  66.726  1.00  0.00    -0.306 C  
BRANCH  11  12
HETATM   12  O   UNL     1     -12.063  12.374  67.575  1.00  0.00    -0.491 OA 
BRANCH  12  13
HETATM   13  C   UNL     1     -11.868  13.645  68.054  1.00  0.00    -0.362 A  
HETATM   14  C   UNL     1     -12.232  13.750  69.411  1.00  0.00    -0.325 A  
HETATM   15  C   UNL     1     -12.012  14.919  70.140  1.00  0.00    -0.368 A  
HETATM   16  C   UNL     1     -11.374  15.990  69.532  1.00  0.00    -0.344 A  
HETATM   17  C   UNL     1     -10.983  15.895  68.196  1.00  0.00    -0.335 A  
HETATM   18  C   UNL     1     -11.259  14.747  67.417  1.00  0.00    -0.346 A  
HETATM   19  C   UNL     1     -10.739  14.740  66.004  1.00  0.00    -0.314 C  
HETATM   20  C   UNL     1     -10.460  16.112  65.416  1.00  0.00    -0.396 C  
HETATM   21  C   UNL     1      -9.789  17.034  66.383  1.00  0.00    -0.299 C  
HETATM   22  N   UNL     1     -10.219  16.947  67.679  1.00  0.00    -0.296 N  
HETATM   23  O   UNL     1      -8.996  17.902  66.029  1.00  0.00    -0.495 OA 
HETATM   24  H   UNL     1      -9.966  17.705  68.313  1.00  0.00     0.000 HD 
ENDBRANCH  12  13
ENDBRANCH  11  12
ENDBRANCH   8  11
ENDBRANCH   7   8
ENDBRANCH   5   7
TORSDOF 5
ENDMDL
MODEL       97
REMARK 921   NORMALIZED FREE ENERGY PREDICTED BY IDOCK:   -4.94 KCAL/MOL
REMARK 922        TOTAL FREE ENERGY PREDICTED BY IDOCK:   -7.01 KCAL/MOL
REMARK 923 INTER-LIGAND FREE ENERGY PREDICTED BY IDOCK:   -6.64 KCAL/MOL
REMARK 924 INTRA-LIGAND FREE ENERGY PREDICTED BY IDOCK:   -0.38 KCAL/MOL
REMARK 927      BINDING AFFINITY PREDICTED BY RF-SCORE:    0.00 PKD
ROOT
HETATM    1  C   UNL     1     -12.729  13.956  65.176  1.00  0.00    -0.434 C  
HETATM    2  C   UNL     1     -11.325  14.180  65.765  1.00  0.00    -0.317 C  
HETATM    3  C   UNL     1     -10.815  15.552  65.288  1.00  0.00    -0.425 C  
HETATM    4  C   UNL     1     -10.359  13.102  65.239  1.00  0.00    -0.319 C  
HETATM    5  N   UNL     1     -11.337  14.209  67.242  1.00  0.00    -0.316 NA 
HETATM    6  H   UNL     1     -11.841  15.030  67.577  1.00  0.00     0.000 HD 
ENDROOT
BRANCH   5   7
HETATM    7  C   UNL     1     -11.866  12.994  67.870  1.00  0.00    -0.343 C  
BRANCH   7   8
HETATM    8  C   UNL     1     -11.705  12.994  69.406  1.00  0.00    -0.326 C  
HETATM    9  H   UNL     1     -12.360  14.061  70.933  1.00  0.00     0.000 HD 
HETATM   10  O   UNL     1     -12.459  14.061  69.989  1.00  0.00    -0.335 OA 
BRANCH   8  11
HETATM   11  C   UNL     1     -12.174  11.633  69.952  1.00  0.00    -0.239 C  
BRANCH  11  12
HETATM   12  O   UNL     1     -11.079  10.940  70.552  1.00  0.00    -0.168 OA 
BRANCH  12  13
HETATM   13  C   UNL     1     -11.099   9.570  70.626  1.00  0.00    -0.300 A  
HETATM   14  C   UNL     1     -11.507   9.125  71.899  1.00  0.00    -0.423 A  
HETATM   15  C   UNL     1     -11.712   7.773  72.171  1.00  0.00    -0.368 A  
HETATM   16  C   UNL     1     -11.562   6.843  71.153  1.00  0.00    -0.363 A  
HETATM   17  C   UNL     1     -11.184   7.268  69.878  1.00  0.00    -0.170 A  
HETATM   18  C   UNL     1     -10.902   8.625  69.597  1.00  0.00    -0.163 A  
HETATM   19  C   UNL     1     -10.558   8.970  68.172  1.00  0.00    -0.225 C  
HETATM   20  C   UNL     1     -10.043   7.810  67.338  1.00  0.00    -0.288 C  
HETATM   21  C   UNL     1     -10.807   6.545  67.567  1.00  0.00    -0.352 C  
HETATM   22  N   UNL     1     -11.187   6.309  68.859  1.00  0.00    -0.499 N  
HETATM   23  O   UNL     1     -10.977   5.705  66.687  1.00  0.00    -0.263 OA 
HETATM   24  H   UNL     1     -11.494   5.366  69.098  1.00  0.00     0.000 HD 
ENDBRANCH  12  13
ENDBRANCH  11  12
ENDBRANCH   8  11
ENDBRANCH   7   8
ENDBRANCH   5   7
TORSDOF 5
ENDMDL
MODEL       98
REMARK 921   NORMALIZED FREE ENERGY PREDICTED BY IDOCK:   -4.94 KCAL/MOL
REMARK 922        TOTAL FREE ENERGY PREDICTED BY IDOCK:   -7.01 KCAL/MOL
REMARK 923 INTER-LIGAND FREE ENERGY PREDICTED BY IDOCK:   -6.23 KCAL/MOL
REMARK 924 INTRA-LIGAND FREE ENERGY PREDICTED BY IDOCK:   -0.78 KCAL/MOL
REMARK 927      BINDING AFFINITY PREDICTED BY RF-SCORE:    0.00 PKD
ROOT
HETATM    1  C   UNL     1      -8.160   8.588  64.095  1.00  0.00    -0.154 C  
HETATM    2  C   UNL     1      -7.866   9.942  64.766  1.00  0.00    -0.141 C  
HETATM    3  C   UNL     1      -6.357  10.224  64.640  1.00  0.00    -0.108 C  
HETATM    4  C   UNL     1      -8.215   9.870  66.264  1.00  0.00    -0.114 C  
HETATM    5  N   UNL     1      -8.575  11.057  64.107  1.00  0.00    -0.375 NA 
HETATM    6  H   UNL     1      -8.211  11.203  63.166  1.00  0.00     0.000 HD 
ENDROOT
BRANCH   5   7
HETATM    7  C   UNL     1     -10.035  10.915  64.074  1.00  0.00    -0.344 C  
BRANCH   7   8
HETATM    8  C   UNL     1     -10.748  12.175  63.539  1.00  0.00    -0.457 C  
HETATM    9  H   UNL     1     -12.565  12.674  62.947  1.00  0.00     0.000 HD 
HETATM   10  O   UNL     1     -12.127  11.898  63.276  1.00  0.00    -0.474 OA 
BRANCH   8  11
HETATM   11  C   UNL     1     -10.607  13.301  64.580  1.00  0.00    -0.419 C  
BRANCH  11  12
HETATM   12  O   UNL     1      -9.917  12.820  65.734  1.00  0.00    -0.265 OA 
BRANCH  12  13
HETATM   13  C   UNL     1     -10.011  13.508  66.918  1.00  0.00    -0.256 A  
HETATM   14  C   UNL     1      -9.463  14.800  66.813  1.00  0.00    -0.271 A  
HETATM   15  C   UNL     1      -9.551  15.720  67.858  1.00  0.00    -0.214 A  
HETATM   16  C   UNL     1     -10.238  15.375  69.013  1.00  0.00    -0.233 A  
HETATM   17  C   UNL     1     -10.810  14.108  69.124  1.00  0.00    -0.229 A  
HETATM   18  C   UNL     1     -10.673  13.135  68.107  1.00  0.00    -0.258 A  
HETATM   19  C   UNL     1     -11.382  11.823  68.318  1.00  0.00    -0.343 C  
HETATM   20  C   UNL     1     -11.703  11.492  69.765  1.00  0.00    -0.426 C  
HETATM   21  C   UNL     1     -12.211  12.670  70.532  1.00  0.00    -0.299 C  
HETATM   22  N   UNL     1     -11.610  13.866  70.247  1.00  0.00    -0.488 N  
HETATM   23  O   UNL     1     -13.023  12.565  71.448  1.00  0.00    -0.358 OA 
HETATM   24  H   UNL     1     -11.755  14.636  70.900  1.00  0.00     0.000 HD 
ENDBRANCH  12  13
ENDBRANCH  11  12
ENDBRANCH   8  11
ENDBRANCH   7   8
ENDBRANCH   5   7
TORSDOF 5
ENDMDL
MODEL       99
REMARK 921   NORMALIZED FREE ENERGY PREDICTED BY IDOCK:   -4.93 KCAL/MOL
REMARK 922        TOTAL FREE ENERGY PREDICTED BY IDOCK:   -7.00 KCAL/MOL
REMARK 923 INTER-LIGAND FREE ENERGY PREDICTED BY IDOCK:   -6.32 KCAL/MOL
REMARK 924 INTRA-LIGAND FREE ENERGY PREDICTED BY IDOCK:   -0.67 KCAL/MOL
REMARK 927      BINDING AFFINITY PREDICTED BY RF-SCORE:    0.00 PKD
ROOT
HETATM    1  C   UNL     1      -6.717  15.059  68.402  1.00  0.00    -0.111 C  
HETATM    2  C   UNL     1      -7.810  16.055  67.976  1.00  0.00    -0.137 C  
HETATM    3  C   UNL     1      -7.354  16.745  66.677  1.00  0.00    -0.297 C  
HETATM    4  C   UNL     1      -7.981  17.138  69.058  1.00  0.00    -0.136 C  
HETATM    5  N   UNL     1      -9.094  15.385  67.686  1.00  0.00    -0.181 NA 
HETATM    6  H   UNL     1      -9.008  14.796  66.858  1.00  0.00     0.000 HD 
ENDROOT
BRANCH   5   7
HETATM    7  C   UNL     1      -9.644  14.613  68.806  1.00  0.00    -0.210 C  
BRANCH   7   8
HETATM    8  C   UNL     1     -11.054  15.083  69.224  1.00  0.00    -0.272 C  
HETATM    9  H   UNL     1     -12.127  16.736  69.105  1.00  0.00     0.000 HD 
HETATM   10  O   UNL     1     -11.259  16.448  68.848  1.00  0.00    -0.332 OA 
BRANCH   8  11
HETATM   11  C   UNL     1     -12.097  14.169  68.554  1.00  0.00    -0.277 C  
BRANCH  11  12
HETATM   12  O   UNL     1     -11.445  13.114  67.846  1.00  0.00    -0.271 OA 
BRANCH  12  13
HETATM   13  C   UNL     1     -11.568  13.032  66.482  1.00  0.00    -0.356 A  
HETATM   14  C   UNL     1     -12.323  14.102  65.964  1.00  0.00    -0.470 A  
HETATM   15  C   UNL     1     -12.483  14.289  64.591  1.00  0.00    -0.371 A  
HETATM   16  C   UNL     1     -11.841  13.432  63.709  1.00  0.00    -0.483 A  
HETATM   17  C   UNL     1     -11.066  12.382  64.204  1.00  0.00    -0.372 A  
HETATM   18  C   UNL     1     -10.949  12.131  65.591  1.00  0.00    -0.337 A  
HETATM   19  C   UNL     1     -10.041  11.004  66.005  1.00  0.00    -0.297 C  
HETATM   20  C   UNL     1      -9.784   9.959  64.933  1.00  0.00    -0.332 C  
HETATM   21  C   UNL     1      -9.553  10.557  63.582  1.00  0.00    -0.320 C  
HETATM   22  N   UNL     1     -10.330  11.640  63.274  1.00  0.00    -0.575 N  
HETATM   23  O   UNL     1      -8.812  10.043  62.748  1.00  0.00    -0.188 OA 
HETATM   24  H   UNL     1     -10.375  11.928  62.296  1.00  0.00     0.000 HD 
ENDBRANCH  12  13
ENDBRANCH  11  12
ENDBRANCH   8  11
ENDBRANCH   7   8
ENDBRANCH   5   7
TORSDOF 5
ENDMDL
MODEL      100
REMARK 921   NORMALIZED FREE ENERGY PREDICTED BY IDOCK:   -4.91 KCAL/MOL
REMARK 922        TOTAL FREE ENERGY PREDICTED BY IDOCK:   -6.97 KCAL/MOL
REMARK 923 INTER-LIGAND FREE ENERGY PREDICTED BY IDOCK:   -6.13 KCAL/MOL
REMARK 924 INTRA-LIGAND FREE ENERGY PREDICTED BY IDOCK:   -0.84 KCAL/MOL
REMARK 927      BINDING AFFINITY PREDICTED BY RF-SCORE:    0.00 PKD
ROOT
HETATM    1  C   UNL     1      -8.359   8.650  64.456  1.00  0.00    -0.157 C  
HETATM    2  C   UNL     1      -8.993   9.909  65.073  1.00  0.00    -0.201 C  
HETATM    3  C   UNL     1      -9.522  10.793  63.928  1.00  0.00    -0.312 C  
HETATM    4  C   UNL     1      -7.925  10.710  65.840  1.00  0.00    -0.157 C  
HETATM    5  N   UNL     1     -10.144   9.587  65.941  1.00  0.00    -0.273 NA 
HETATM    6  H   UNL     1     -10.913   9.211  65.387  1.00  0.00     0.000 HD 
ENDROOT
BRANCH   5   7
HETATM    7  C   UNL     1      -9.830   8.686  67.056  1.00  0.00    -0.220 C  
BRANCH   7   8
HETATM    8  C   UNL     1     -10.552   9.077  68.364  1.00  0.00    -0.154 C  
HETATM    9  H   UNL     1     -10.084   9.296  70.270  1.00  0.00     0.000 HD 
HETATM   10  O   UNL     1      -9.640   9.055  69.466  1.00  0.00    -0.160 OA 
BRANCH   8  11
HETATM   11  C   UNL     1     -11.163  10.480  68.190  1.00  0.00    -0.293 C  
BRANCH  11  12
HETATM   12  O   UNL     1     -10.195  11.481  68.506  1.00  0.00    -0.201 OA 
BRANCH  12  13
HETATM   13  C   UNL     1     -10.555  12.805  68.484  1.00  0.00    -0.252 A  
HETATM   14  C   UNL     1     -10.051  13.461  67.344  1.00  0.00    -0.237 A  
HETATM   15  C   UNL     1     -10.385  14.784  67.052  1.00  0.00    -0.255 A  
HETATM   16  C   UNL     1     -11.276  15.458  67.875  1.00  0.00    -0.329 A  
HETATM   17  C   UNL     1     -11.805  14.815  68.995  1.00  0.00    -0.302 A  
HETATM   18  C   UNL     1     -11.426  13.500  69.350  1.00  0.00    -0.340 A  
HETATM   19  C   UNL     1     -12.107  12.893  70.548  1.00  0.00    -0.364 C  
HETATM   20  C   UNL     1     -12.698  13.893  71.525  1.00  0.00    -0.440 C  
HETATM   21  C   UNL     1     -13.399  15.026  70.845  1.00  0.00    -0.380 C  
HETATM   22  N   UNL     1     -12.804  15.491  69.705  1.00  0.00    -0.571 N  
HETATM   23  O   UNL     1     -14.373  15.591  71.335  1.00  0.00    -0.531 OA 
HETATM   24  H   UNL     1     -13.109  16.396  69.347  1.00  0.00     0.000 HD 
ENDBRANCH  12  13
ENDBRANCH  11  12
ENDBRANCH   8  11
ENDBRANCH   7   8
ENDBRANCH   5   7
TORSDOF 5
ENDMDL
MODEL      101
REMARK 921   NORMALIZED FREE ENERGY PREDICTED BY IDOCK:   -4.91 KCAL/MOL
REMARK 922        TOTAL FREE ENERGY PREDICTED BY IDOCK:   -6.97 KCAL/MOL
REMARK 923 INTER-LIGAND FREE ENERGY PREDICTED BY IDOCK:   -6.04 KCAL/MOL
REMARK 924 INTRA-LIGAND FREE ENERGY PREDICTED BY IDOCK:   -0.93 KCAL/MOL
REMARK 927      BINDING AFFINITY PREDICTED BY RF-SCORE:    0.00 PKD
ROOT
HETATM    1  C   UNL     1      -8.917   9.480  63.924  1.00  0.00    -0.217 C  
HETATM    2  C   UNL     1      -9.124  10.524  65.036  1.00  0.00    -0.201 C  
HETATM    3  C   UNL     1      -7.774  10.750  65.742  1.00  0.00    -0.094 C  
HETATM    4  C   UNL     1     -10.123   9.987  66.077  1.00  0.00    -0.318 C  
HETATM    5  N   UNL     1      -9.561  11.829  64.502  1.00  0.00    -0.428 NA 
HETATM    6  H   UNL     1      -8.817  12.254  63.948  1.00  0.00     0.000 HD 
ENDROOT
BRANCH   5   7
HETATM    7  C   UNL     1     -10.809  11.785  63.731  1.00  0.00    -0.424 C  
BRANCH   7   8
HETATM    8  C   UNL     1     -11.736  12.985  64.021  1.00  0.00    -0.436 C  
HETATM    9  H   UNL     1     -13.659  13.287  64.350  1.00  0.00     0.000 HD 
HETATM   10  O   UNL     1     -13.090  12.548  64.172  1.00  0.00    -0.751 OA 
BRANCH   8  11
HETATM   11  C   UNL     1     -11.244  13.692  65.298  1.00  0.00    -0.299 C  
BRANCH  11  12
HETATM   12  O   UNL     1     -10.131  14.534  64.996  1.00  0.00    -0.393 OA 
BRANCH  12  13
HETATM   13  C   UNL     1      -9.704  15.453  65.920  1.00  0.00    -0.357 A  
HETATM   14  C   UNL     1     -10.481  16.627  65.882  1.00  0.00    -0.324 A  
HETATM   15  C   UNL     1     -10.302  17.654  66.809  1.00  0.00    -0.331 A  
HETATM   16  C   UNL     1      -9.373  17.498  67.827  1.00  0.00    -0.257 A  
HETATM   17  C   UNL     1      -8.612  16.330  67.896  1.00  0.00    -0.173 A  
HETATM   18  C   UNL     1      -8.726  15.307  66.926  1.00  0.00    -0.288 A  
HETATM   19  C   UNL     1      -7.893  14.071  67.139  1.00  0.00    -0.049 C  
HETATM   20  C   UNL     1      -6.675  14.261  68.027  1.00  0.00    -0.154 C  
HETATM   21  C   UNL     1      -6.958  15.105  69.228  1.00  0.00    -0.161 C  
HETATM   22  N   UNL     1      -7.796  16.167  69.021  1.00  0.00    -0.218 N  
HETATM   23  O   UNL     1      -6.385  14.943  70.302  1.00  0.00    -0.163 OA 
HETATM   24  H   UNL     1      -7.828  16.892  69.738  1.00  0.00     0.000 HD 
ENDBRANCH  12  13
ENDBRANCH  11  12
ENDBRANCH   8  11
ENDBRANCH   7   8
ENDBRANCH   5   7
TORSDOF 5
ENDMDL
MODEL      102
REMARK 921   NORMALIZED FREE ENERGY PREDICTED BY IDOCK:   -4.91 KCAL/MOL
REMARK 922        TOTAL FREE ENERGY PREDICTED BY IDOCK:   -6.97 KCAL/MOL
REMARK 923 INTER-LIGAND FREE ENERGY PREDICTED BY IDOCK:   -6.26 KCAL/MOL
REMARK 924 INTRA-LIGAND FREE ENERGY PREDICTED BY IDOCK:   -0.71 KCAL/MOL
REMARK 927      BINDING AFFINITY PREDICTED BY RF-SCORE:    0.00 PKD
ROOT
HETATM    1  C   UNL     1     -12.366  14.583  71.365  1.00  0.00    -0.425 C  
HETATM    2  C   UNL     1     -11.575  14.455  70.051  1.00  0.00    -0.275 C  
HETATM    3  C   UNL     1     -10.508  15.564  70.020  1.00  0.00    -0.322 C  
HETATM    4  C   UNL     1     -12.518  14.666  68.851  1.00  0.00     0.069 C  
HETATM    5  N   UNL     1     -10.866  13.164  69.949  1.00  0.00    -0.164 NA 
HETATM    6  H   UNL     1     -10.125  13.109  70.648  1.00  0.00     0.000 HD 
ENDROOT
BRANCH   5   7
HETATM    7  C   UNL     1     -11.734  11.984  70.033  1.00  0.00    -0.267 C  
BRANCH   7   8
HETATM    8  C   UNL     1     -11.052  10.700  69.515  1.00  0.00    -0.274 C  
HETATM    9  H   UNL     1     -11.137   8.761  69.883  1.00  0.00     0.000 HD 
HETATM   10  O   UNL     1     -11.557   9.551  70.202  1.00  0.00    -0.215 OA 
BRANCH   8  11
HETATM   11  C   UNL     1     -11.301  10.584  68.000  1.00  0.00    -0.246 C  
BRANCH  11  12
HETATM   12  O   UNL     1     -10.129  10.964  67.278  1.00  0.00    -0.181 OA 
BRANCH  12  13
HETATM   13  C   UNL     1      -9.858  12.294  67.075  1.00  0.00    -0.205 A  
HETATM   14  C   UNL     1      -8.607  12.656  67.612  1.00  0.00    -0.180 A  
HETATM   15  C   UNL     1      -8.071  13.929  67.425  1.00  0.00    -0.190 A  
HETATM   16  C   UNL     1      -8.758  14.850  66.648  1.00  0.00    -0.262 A  
HETATM   17  C   UNL     1      -9.986  14.500  66.085  1.00  0.00    -0.311 A  
HETATM   18  C   UNL     1     -10.583  13.240  66.320  1.00  0.00    -0.294 A  
HETATM   19  C   UNL     1     -11.882  12.958  65.614  1.00  0.00    -0.464 C  
HETATM   20  C   UNL     1     -12.656  14.190  65.177  1.00  0.00    -0.426 C  
HETATM   21  C   UNL     1     -11.779  15.249  64.590  1.00  0.00    -0.308 C  
HETATM   22  N   UNL     1     -10.564  15.414  65.197  1.00  0.00    -0.420 N  
HETATM   23  O   UNL     1     -12.161  16.011  63.706  1.00  0.00    -0.895 OA 
HETATM   24  H   UNL     1     -10.042  16.266  64.988  1.00  0.00     0.000 HD 
ENDBRANCH  12  13
ENDBRANCH  11  12
ENDBRANCH   8  11
ENDBRANCH   7   8
ENDBRANCH   5   7
TORSDOF 5
ENDMDL
MODEL      103
REMARK 921   NORMALIZED FREE ENERGY PREDICTED BY IDOCK:   -4.89 KCAL/MOL
REMARK 922        TOTAL FREE ENERGY PREDICTED BY IDOCK:   -6.95 KCAL/MOL
REMARK 923 INTER-LIGAND FREE ENERGY PREDICTED BY IDOCK:   -5.98 KCAL/MOL
REMARK 924 INTRA-LIGAND FREE ENERGY PREDICTED BY IDOCK:   -0.97 KCAL/MOL
REMARK 927      BINDING AFFINITY PREDICTED BY RF-SCORE:    0.00 PKD
ROOT
HETATM    1  C   UNL     1      -7.706  15.938  69.279  1.00  0.00    -0.222 C  
HETATM    2  C   UNL     1      -7.929  15.634  67.787  1.00  0.00    -0.144 C  
HETATM    3  C   UNL     1      -7.767  16.946  66.997  1.00  0.00    -0.230 C  
HETATM    4  C   UNL     1      -9.364  15.119  67.568  1.00  0.00    -0.198 C  
HETATM    5  N   UNL     1      -6.934  14.680  67.257  1.00  0.00    -0.341 NA 
HETATM    6  H   UNL     1      -6.005  15.102  67.251  1.00  0.00     0.000 HD 
ENDROOT
BRANCH   5   7
HETATM    7  C   UNL     1      -6.902  13.386  67.948  1.00  0.00    -0.144 C  
BRANCH   7   8
HETATM    8  C   UNL     1      -6.732  12.194  66.983  1.00  0.00    -0.071 C  
HETATM    9  H   UNL     1      -5.267  11.350  65.962  1.00  0.00     0.000 HD 
HETATM   10  O   UNL     1      -5.371  12.084  66.556  1.00  0.00    -0.331 OA 
BRANCH   8  11
HETATM   11  C   UNL     1      -7.185  10.909  67.700  1.00  0.00    -0.093 C  
BRANCH  11  12
HETATM   12  O   UNL     1      -8.300  10.332  67.018  1.00  0.00    -0.124 OA 
BRANCH  12  13
HETATM   13  C   UNL     1      -9.540  10.908  67.134  1.00  0.00    -0.165 A  
HETATM   14  C   UNL     1      -9.983  10.919  68.470  1.00  0.00    -0.188 A  
HETATM   15  C   UNL     1     -11.166  11.557  68.844  1.00  0.00    -0.308 A  
HETATM   16  C   UNL     1     -11.902  12.242  67.888  1.00  0.00    -0.358 A  
HETATM   17  C   UNL     1     -11.463  12.264  66.563  1.00  0.00    -0.381 A  
HETATM   18  C   UNL     1     -10.306  11.565  66.148  1.00  0.00    -0.287 A  
HETATM   19  C   UNL     1      -9.903  11.709  64.705  1.00  0.00    -0.259 C  
HETATM   20  C   UNL     1     -11.021  12.124  63.764  1.00  0.00    -0.494 C  
HETATM   21  C   UNL     1     -11.895  13.194  64.336  1.00  0.00    -0.388 C  
HETATM   22  N   UNL     1     -12.164  13.086  65.673  1.00  0.00    -0.452 N  
HETATM   23  O   UNL     1     -12.443  14.044  63.640  1.00  0.00    -0.803 OA 
HETATM   24  H   UNL     1     -12.931  13.644  66.048  1.00  0.00     0.000 HD 
ENDBRANCH  12  13
ENDBRANCH  11  12
ENDBRANCH   8  11
ENDBRANCH   7   8
ENDBRANCH   5   7
TORSDOF 5
ENDMDL
MODEL      104
REMARK 921   NORMALIZED FREE ENERGY PREDICTED BY IDOCK:   -4.88 KCAL/MOL
REMARK 922        TOTAL FREE ENERGY PREDICTED BY IDOCK:   -6.94 KCAL/MOL
REMARK 923 INTER-LIGAND FREE ENERGY PREDICTED BY IDOCK:   -5.86 KCAL/MOL
REMARK 924 INTRA-LIGAND FREE ENERGY PREDICTED BY IDOCK:   -1.08 KCAL/MOL
REMARK 927      BINDING AFFINITY PREDICTED BY RF-SCORE:    0.00 PKD
ROOT
HETATM    1  C   UNL     1     -10.424   8.107  66.749  1.00  0.00    -0.316 C  
HETATM    2  C   UNL     1      -9.013   7.561  67.029  1.00  0.00    -0.130 C  
HETATM    3  C   UNL     1      -8.039   8.752  67.095  1.00  0.00    -0.100 C  
HETATM    4  C   UNL     1      -8.569   6.644  65.874  1.00  0.00    -0.153 C  
HETATM    5  N   UNL     1      -8.933   6.859  68.326  1.00  0.00    -0.125 NA 
HETATM    6  H   UNL     1      -9.062   7.518  69.095  1.00  0.00     0.000 HD 
ENDROOT
BRANCH   5   7
HETATM    7  C   UNL     1      -9.855   5.727  68.464  1.00  0.00    -0.141 C  
BRANCH   7   8
HETATM    8  C   UNL     1     -10.404   5.573  69.899  1.00  0.00    -0.298 C  
HETATM    9  H   UNL     1      -9.679   5.561  71.736  1.00  0.00     0.000 HD 
HETATM   10  O   UNL     1      -9.341   5.656  70.854  1.00  0.00    -0.155 OA 
BRANCH   8  11
HETATM   11  C   UNL     1     -11.451   6.674  70.150  1.00  0.00    -0.385 C  
BRANCH  11  12
HETATM   12  O   UNL     1     -10.802   7.906  70.466  1.00  0.00    -0.233 OA 
BRANCH  12  13
HETATM   13  C   UNL     1     -11.553   9.032  70.692  1.00  0.00    -0.224 A  
HETATM   14  C   UNL     1     -12.491   8.831  71.723  1.00  0.00    -0.407 A  
HETATM   15  C   UNL     1     -13.286   9.872  72.203  1.00  0.00    -0.511 A  
HETATM   16  C   UNL     1     -13.116  11.150  71.691  1.00  0.00    -0.529 A  
HETATM   17  C   UNL     1     -12.173  11.373  70.687  1.00  0.00    -0.389 A  
HETATM   18  C   UNL     1     -11.407  10.320  70.136  1.00  0.00    -0.388 A  
HETATM   19  C   UNL     1     -10.382  10.693  69.097  1.00  0.00    -0.242 C  
HETATM   20  C   UNL     1     -10.636  12.013  68.389  1.00  0.00    -0.236 C  
HETATM   21  C   UNL     1     -11.088  13.093  69.319  1.00  0.00    -0.145 C  
HETATM   22  N   UNL     1     -11.945  12.701  70.311  1.00  0.00    -0.502 N  
HETATM   23  O   UNL     1     -10.816  14.277  69.139  1.00  0.00    -0.249 OA 
HETATM   24  H   UNL     1     -12.455  13.429  70.811  1.00  0.00     0.000 HD 
ENDBRANCH  12  13
ENDBRANCH  11  12
ENDBRANCH   8  11
ENDBRANCH   7   8
ENDBRANCH   5   7
TORSDOF 5
ENDMDL
MODEL      105
REMARK 921   NORMALIZED FREE ENERGY PREDICTED BY IDOCK:   -4.87 KCAL/MOL
REMARK 922        TOTAL FREE ENERGY PREDICTED BY IDOCK:   -6.92 KCAL/MOL
REMARK 923 INTER-LIGAND FREE ENERGY PREDICTED BY IDOCK:   -5.97 KCAL/MOL
REMARK 924 INTRA-LIGAND FREE ENERGY PREDICTED BY IDOCK:   -0.96 KCAL/MOL
REMARK 927      BINDING AFFINITY PREDICTED BY RF-SCORE:    0.00 PKD
ROOT
HETATM    1  C   UNL     1     -11.920  13.693  68.328  1.00  0.00    -0.385 C  
HETATM    2  C   UNL     1     -10.890  13.842  67.194  1.00  0.00    -0.284 C  
HETATM    3  C   UNL     1      -9.497  13.513  67.761  1.00  0.00    -0.216 C  
HETATM    4  C   UNL     1     -10.870  15.299  66.694  1.00  0.00    -0.310 C  
HETATM    5  N   UNL     1     -11.142  12.902  66.083  1.00  0.00    -0.280 NA 
HETATM    6  H   UNL     1     -10.984  11.941  66.389  1.00  0.00     0.000 HD 
ENDROOT
BRANCH   5   7
HETATM    7  C   UNL     1     -12.467  13.030  65.466  1.00  0.00    -0.438 C  
BRANCH   7   8
HETATM    8  C   UNL     1     -12.409  13.068  63.924  1.00  0.00    -0.375 C  
HETATM    9  H   UNL     1     -12.609  14.419  62.498  1.00  0.00     0.000 HD 
HETATM   10  O   UNL     1     -12.646  14.396  63.447  1.00  0.00    -0.729 OA 
BRANCH   8  11
HETATM   11  C   UNL     1     -11.027  12.563  63.469  1.00  0.00    -0.420 C  
BRANCH  11  12
HETATM   12  O   UNL     1     -10.969  11.139  63.565  1.00  0.00    -0.336 OA 
BRANCH  12  13
HETATM   13  C   UNL     1      -9.753  10.515  63.695  1.00  0.00    -0.318 A  
HETATM   14  C   UNL     1      -8.876  10.866  62.650  1.00  0.00    -0.333 A  
HETATM   15  C   UNL     1      -7.547  10.443  62.636  1.00  0.00    -0.150 A  
HETATM   16  C   UNL     1      -7.058   9.701  63.702  1.00  0.00    -0.110 A  
HETATM   17  C   UNL     1      -7.906   9.366  64.758  1.00  0.00    -0.118 A  
HETATM   18  C   UNL     1      -9.274   9.723  64.759  1.00  0.00    -0.319 A  
HETATM   19  C   UNL     1     -10.075   9.355  65.980  1.00  0.00    -0.302 C  
HETATM   20  C   UNL     1      -9.498   8.219  66.807  1.00  0.00    -0.256 C  
HETATM   21  C   UNL     1      -8.014   8.312  66.969  1.00  0.00    -0.100 C  
HETATM   22  N   UNL     1      -7.325   8.742  65.868  1.00  0.00    -0.084 N  
HETATM   23  O   UNL     1      -7.431   7.912  67.973  1.00  0.00    -0.102 OA 
HETATM   24  H   UNL     1      -6.316   8.597  65.855  1.00  0.00     0.000 HD 
ENDBRANCH  12  13
ENDBRANCH  11  12
ENDBRANCH   8  11
ENDBRANCH   7   8
ENDBRANCH   5   7
TORSDOF 5
ENDMDL
MODEL      106
REMARK 921   NORMALIZED FREE ENERGY PREDICTED BY IDOCK:   -4.87 KCAL/MOL
REMARK 922        TOTAL FREE ENERGY PREDICTED BY IDOCK:   -6.92 KCAL/MOL
REMARK 923 INTER-LIGAND FREE ENERGY PREDICTED BY IDOCK:   -5.98 KCAL/MOL
REMARK 924 INTRA-LIGAND FREE ENERGY PREDICTED BY IDOCK:   -0.95 KCAL/MOL
REMARK 927      BINDING AFFINITY PREDICTED BY RF-SCORE:    0.00 PKD
ROOT
HETATM    1  C   UNL     1     -10.255  13.629  64.669  1.00  0.00    -0.338 C  
HETATM    2  C   UNL     1     -11.773  13.374  64.683  1.00  0.00    -0.372 C  
HETATM    3  C   UNL     1     -12.123  12.475  63.484  1.00  0.00    -0.653 C  
HETATM    4  C   UNL     1     -12.528  14.707  64.518  1.00  0.00    -0.312 C  
HETATM    5  N   UNL     1     -12.208  12.664  65.903  1.00  0.00    -0.597 NA 
HETATM    6  H   UNL     1     -11.834  11.715  65.914  1.00  0.00     0.000 HD 
ENDROOT
BRANCH   5   7
HETATM    7  C   UNL     1     -11.886  13.353  67.157  1.00  0.00    -0.382 C  
BRANCH   7   8
HETATM    8  C   UNL     1     -11.398  12.392  68.262  1.00  0.00    -0.284 C  
HETATM    9  H   UNL     1     -12.168  10.965  69.388  1.00  0.00     0.000 HD 
HETATM   10  O   UNL     1     -12.469  11.556  68.709  1.00  0.00    -0.331 OA 
BRANCH   8  11
HETATM   11  C   UNL     1     -10.241  11.544  67.702  1.00  0.00    -0.184 C  
BRANCH  11  12
HETATM   12  O   UNL     1     -10.755  10.474  66.907  1.00  0.00    -0.253 OA 
BRANCH  12  13
HETATM   13  C   UNL     1      -9.887   9.634  66.256  1.00  0.00    -0.256 A  
HETATM   14  C   UNL     1      -8.925  10.351  65.519  1.00  0.00    -0.199 A  
HETATM   15  C   UNL     1      -7.871   9.708  64.869  1.00  0.00    -0.123 A  
HETATM   16  C   UNL     1      -7.735   8.333  64.990  1.00  0.00    -0.105 A  
HETATM   17  C   UNL     1      -8.664   7.609  65.738  1.00  0.00    -0.125 A  
HETATM   18  C   UNL     1      -9.780   8.230  66.346  1.00  0.00    -0.300 A  
HETATM   19  C   UNL     1     -10.682   7.353  67.173  1.00  0.00    -0.400 C  
HETATM   20  C   UNL     1     -10.617   5.872  66.843  1.00  0.00    -0.384 C  
HETATM   21  C   UNL     1      -9.221   5.388  66.615  1.00  0.00    -0.132 C  
HETATM   22  N   UNL     1      -8.398   6.250  65.943  1.00  0.00    -0.135 N  
HETATM   23  O   UNL     1      -8.861   4.248  66.894  1.00  0.00    -0.111 OA 
HETATM   24  H   UNL     1      -7.528   5.876  65.564  1.00  0.00     0.000 HD 
ENDBRANCH  12  13
ENDBRANCH  11  12
ENDBRANCH   8  11
ENDBRANCH   7   8
ENDBRANCH   5   7
TORSDOF 5
ENDMDL
MODEL      107
REMARK 921   NORMALIZED FREE ENERGY PREDICTED BY IDOCK:   -4.84 KCAL/MOL
REMARK 922        TOTAL FREE ENERGY PREDICTED BY IDOCK:   -6.88 KCAL/MOL
REMARK 923 INTER-LIGAND FREE ENERGY PREDICTED BY IDOCK:   -6.42 KCAL/MOL
REMARK 924 INTRA-LIGAND FREE ENERGY PREDICTED BY IDOCK:   -0.47 KCAL/MOL
REMARK 927      BINDING AFFINITY PREDICTED BY RF-SCORE:    0.00 PKD
ROOT
HETATM    1  C   UNL     1      -8.172  18.001  67.475  1.00  0.00    -0.235 C  
HETATM    2  C   UNL     1      -9.611  18.373  67.075  1.00  0.00    -0.298 C  
HETATM    3  C   UNL     1      -9.691  19.904  66.934  1.00  0.00    -0.532 C  
HETATM    4  C   UNL     1     -10.589  17.943  68.184  1.00  0.00    -0.351 C  
HETATM    5  N   UNL     1      -9.995  17.794  65.772  1.00  0.00    -0.559 NA 
HETATM    6  H   UNL     1      -9.450  18.216  65.020  1.00  0.00     0.000 HD 
ENDROOT
BRANCH   5   7
HETATM    7  C   UNL     1      -9.906  16.331  65.706  1.00  0.00    -0.299 C  
BRANCH   7   8
HETATM    8  C   UNL     1     -11.107  15.689  64.978  1.00  0.00    -0.389 C  
HETATM    9  H   UNL     1     -12.283  16.128  63.453  1.00  0.00     0.000 HD 
HETATM   10  O   UNL     1     -11.544  16.523  63.900  1.00  0.00    -1.175 OA 
BRANCH   8  11
HETATM   11  C   UNL     1     -10.687  14.302  64.459  1.00  0.00    -0.259 C  
BRANCH  11  12
HETATM   12  O   UNL     1     -11.036  13.295  65.409  1.00  0.00    -0.281 OA 
BRANCH  12  13
HETATM   13  C   UNL     1     -10.308  12.133  65.468  1.00  0.00    -0.263 A  
HETATM   14  C   UNL     1     -10.588  11.290  64.375  1.00  0.00    -0.410 A  
HETATM   15  C   UNL     1      -9.882  10.106  64.164  1.00  0.00    -0.226 A  
HETATM   16  C   UNL     1      -8.843   9.771  65.020  1.00  0.00    -0.224 A  
HETATM   17  C   UNL     1      -8.534  10.608  66.093  1.00  0.00    -0.159 A  
HETATM   18  C   UNL     1      -9.282  11.776  66.368  1.00  0.00    -0.223 A  
HETATM   19  C   UNL     1      -8.819  12.627  67.520  1.00  0.00    -0.186 C  
HETATM   20  C   UNL     1      -7.973  11.904  68.554  1.00  0.00    -0.137 C  
HETATM   21  C   UNL     1      -6.967  10.984  67.940  1.00  0.00    -0.073 C  
HETATM   22  N   UNL     1      -7.390  10.296  66.836  1.00  0.00    -0.095 N  
HETATM   23  O   UNL     1      -5.876  10.756  68.456  1.00  0.00    -0.044 OA 
HETATM   24  H   UNL     1      -6.832   9.497  66.533  1.00  0.00     0.000 HD 
ENDBRANCH  12  13
ENDBRANCH  11  12
ENDBRANCH   8  11
ENDBRANCH   7   8
ENDBRANCH   5   7
TORSDOF 5
ENDMDL
MODEL      108
REMARK 921   NORMALIZED FREE ENERGY PREDICTED BY IDOCK:   -4.84 KCAL/MOL
REMARK 922        TOTAL FREE ENERGY PREDICTED BY IDOCK:   -6.88 KCAL/MOL
REMARK 923 INTER-LIGAND FREE ENERGY PREDICTED BY IDOCK:   -6.39 KCAL/MOL
REMARK 924 INTRA-LIGAND FREE ENERGY PREDICTED BY IDOCK:   -0.49 KCAL/MOL
REMARK 927      BINDING AFFINITY PREDICTED BY RF-SCORE:    0.00 PKD
ROOT
HETATM    1  C   UNL     1      -6.353  18.262  67.942  1.00  0.00    -0.190 C  
HETATM    2  C   UNL     1      -6.636  18.697  66.493  1.00  0.00    -0.193 C  
HETATM    3  C   UNL     1      -5.556  18.081  65.584  1.00  0.00    -0.216 C  
HETATM    4  C   UNL     1      -6.539  20.230  66.379  1.00  0.00    -0.259 C  
HETATM    5  N   UNL     1      -7.943  18.209  66.009  1.00  0.00    -0.510 NA 
HETATM    6  H   UNL     1      -7.935  17.192  65.927  1.00  0.00     0.000 HD 
ENDROOT
BRANCH   5   7
HETATM    7  C   UNL     1      -9.091  18.647  66.810  1.00  0.00    -0.301 C  
BRANCH   7   8
HETATM    8  C   UNL     1     -10.446  18.296  66.159  1.00  0.00    -0.383 C  
HETATM    9  H   UNL     1     -11.676  19.103  64.841  1.00  0.00     0.000 HD 
HETATM   10  O   UNL     1     -10.842  19.320  65.242  1.00  0.00    -0.503 OA 
BRANCH   8  11
HETATM   11  C   UNL     1     -10.312  16.941  65.439  1.00  0.00    -0.104 C  
BRANCH  11  12
HETATM   12  O   UNL     1     -10.388  15.873  66.384  1.00  0.00    -0.286 OA 
BRANCH  12  13
HETATM   13  C   UNL     1     -10.987  14.690  66.027  1.00  0.00    -0.325 A  
HETATM   14  C   UNL     1     -11.524  14.753  64.727  1.00  0.00    -0.410 A  
HETATM   15  C   UNL     1     -12.079  13.632  64.109  1.00  0.00    -0.484 A  
HETATM   16  C   UNL     1     -12.058  12.411  64.768  1.00  0.00    -0.483 A  
HETATM   17  C   UNL     1     -11.506  12.325  66.047  1.00  0.00    -0.381 A  
HETATM   18  C   UNL     1     -11.002  13.462  66.720  1.00  0.00    -0.298 A  
HETATM   19  C   UNL     1     -10.381  13.234  68.073  1.00  0.00    -0.243 C  
HETATM   20  C   UNL     1     -10.824  11.963  68.777  1.00  0.00    -0.270 C  
HETATM   21  C   UNL     1     -10.902  10.786  67.857  1.00  0.00    -0.264 C  
HETATM   22  N   UNL     1     -11.382  11.047  66.602  1.00  0.00    -0.054 N  
HETATM   23  O   UNL     1     -10.675   9.638  68.229  1.00  0.00    -0.231 OA 
HETATM   24  H   UNL     1     -11.671  10.252  66.032  1.00  0.00     0.000 HD 
ENDBRANCH  12  13
ENDBRANCH  11  12
ENDBRANCH   8  11
ENDBRANCH   7   8
ENDBRANCH   5   7
TORSDOF 5
ENDMDL
MODEL      109
REMARK 921   NORMALIZED FREE ENERGY PREDICTED BY IDOCK:   -4.84 KCAL/MOL
REMARK 922        TOTAL FREE ENERGY PREDICTED BY IDOCK:   -6.88 KCAL/MOL
REMARK 923 INTER-LIGAND FREE ENERGY PREDICTED BY IDOCK:   -6.26 KCAL/MOL
REMARK 924 INTRA-LIGAND FREE ENERGY PREDICTED BY IDOCK:   -0.61 KCAL/MOL
REMARK 927      BINDING AFFINITY PREDICTED BY RF-SCORE:    0.00 PKD
ROOT
HETATM    1  C   UNL     1     -10.386  12.705  64.168  1.00  0.00    -0.412 C  
HETATM    2  C   UNL     1     -11.898  12.860  64.406  1.00  0.00    -0.383 C  
HETATM    3  C   UNL     1     -12.641  12.031  63.342  1.00  0.00    -0.592 C  
HETATM    4  C   UNL     1     -12.307  14.335  64.234  1.00  0.00    -0.407 C  
HETATM    5  N   UNL     1     -12.311  12.344  65.727  1.00  0.00    -0.603 NA 
HETATM    6  H   UNL     1     -12.192  11.332  65.766  1.00  0.00     0.000 HD 
ENDROOT
BRANCH   5   7
HETATM    7  C   UNL     1     -11.640  12.981  66.866  1.00  0.00    -0.366 C  
BRANCH   7   8
HETATM    8  C   UNL     1     -11.200  11.968  67.945  1.00  0.00    -0.264 C  
HETATM    9  H   UNL     1     -11.688  10.138  68.503  1.00  0.00     0.000 HD 
HETATM   10  O   UNL     1     -11.959  10.760  67.838  1.00  0.00    -0.518 OA 
BRANCH   8  11
HETATM   11  C   UNL     1      -9.696  11.686  67.775  1.00  0.00    -0.173 C  
BRANCH  11  12
HETATM   12  O   UNL     1      -9.132  12.586  66.820  1.00  0.00    -0.211 OA 
BRANCH  12  13
HETATM   13  C   UNL     1      -8.190  13.500  67.222  1.00  0.00    -0.154 A  
HETATM   14  C   UNL     1      -7.145  12.887  67.939  1.00  0.00    -0.127 A  
HETATM   15  C   UNL     1      -6.019  13.602  68.347  1.00  0.00    -0.097 A  
HETATM   16  C   UNL     1      -5.898  14.939  67.996  1.00  0.00    -0.155 A  
HETATM   17  C   UNL     1      -6.912  15.556  67.263  1.00  0.00    -0.171 A  
HETATM   18  C   UNL     1      -8.094  14.870  66.900  1.00  0.00    -0.119 A  
HETATM   19  C   UNL     1      -9.091  15.626  66.063  1.00  0.00    -0.346 C  
HETATM   20  C   UNL     1      -8.986  17.138  66.146  1.00  0.00    -0.217 C  
HETATM   21  C   UNL     1      -7.571  17.624  66.123  1.00  0.00    -0.280 C  
HETATM   22  N   UNL     1      -6.672  16.861  66.817  1.00  0.00    -0.210 N  
HETATM   23  O   UNL     1      -7.248  18.700  65.628  1.00  0.00    -0.458 OA 
HETATM   24  H   UNL     1      -5.762  17.272  67.024  1.00  0.00     0.000 HD 
ENDBRANCH  12  13
ENDBRANCH  11  12
ENDBRANCH   8  11
ENDBRANCH   7   8
ENDBRANCH   5   7
TORSDOF 5
ENDMDL
MODEL      110
REMARK 921   NORMALIZED FREE ENERGY PREDICTED BY IDOCK:   -4.84 KCAL/MOL
REMARK 922        TOTAL FREE ENERGY PREDICTED BY IDOCK:   -6.88 KCAL/MOL
REMARK 923 INTER-LIGAND FREE ENERGY PREDICTED BY IDOCK:   -7.10 KCAL/MOL
REMARK 924 INTRA-LIGAND FREE ENERGY PREDICTED BY IDOCK:    0.23 KCAL/MOL
REMARK 927      BINDING AFFINITY PREDICTED BY RF-SCORE:    0.00 PKD
ROOT
HETATM    1  C   UNL     1     -12.027   6.878  71.038  1.00  0.00    -0.422 C  
HETATM    2  C   UNL     1     -10.862   7.319  70.134  1.00  0.00    -0.256 C  
HETATM    3  C   UNL     1     -10.742   6.311  68.977  1.00  0.00    -0.362 C  
HETATM    4  C   UNL     1      -9.544   7.291  70.930  1.00  0.00    -0.170 C  
HETATM    5  N   UNL     1     -11.093   8.648  69.534  1.00  0.00    -0.438 NA 
HETATM    6  H   UNL     1     -11.871   8.609  68.874  1.00  0.00     0.000 HD 
ENDROOT
BRANCH   5   7
HETATM    7  C   UNL     1     -11.302   9.727  70.505  1.00  0.00    -0.314 C  
BRANCH   7   8
HETATM    8  C   UNL     1     -12.110  10.908  69.925  1.00  0.00    -0.354 C  
HETATM    9  H   UNL     1     -13.129  12.449  70.621  1.00  0.00     0.000 HD 
HETATM   10  O   UNL     1     -12.632  11.723  70.979  1.00  0.00    -0.374 OA 
BRANCH   8  11
HETATM   11  C   UNL     1     -11.190  11.730  69.003  1.00  0.00    -0.265 C  
BRANCH  11  12
HETATM   12  O   UNL     1     -11.959  12.675  68.258  1.00  0.00    -0.320 OA 
BRANCH  12  13
HETATM   13  C   UNL     1     -11.779  12.780  66.902  1.00  0.00    -0.380 A  
HETATM   14  C   UNL     1     -12.384  13.942  66.386  1.00  0.00    -0.468 A  
HETATM   15  C   UNL     1     -12.233  14.316  65.051  1.00  0.00    -0.438 A  
HETATM   16  C   UNL     1     -11.425  13.555  64.218  1.00  0.00    -0.414 A  
HETATM   17  C   UNL     1     -10.796  12.415  64.719  1.00  0.00    -0.304 A  
HETATM   18  C   UNL     1     -10.992  11.977  66.050  1.00  0.00    -0.346 A  
HETATM   19  C   UNL     1     -10.216  10.764  66.490  1.00  0.00    -0.287 C  
HETATM   20  C   UNL     1      -9.745   9.859  65.365  1.00  0.00    -0.375 C  
HETATM   21  C   UNL     1      -9.212  10.619  64.192  1.00  0.00    -0.236 C  
HETATM   22  N   UNL     1      -9.884  11.769  63.877  1.00  0.00    -0.427 N  
HETATM   23  O   UNL     1      -8.313  10.187  63.476  1.00  0.00    -0.153 OA 
HETATM   24  H   UNL     1      -9.707  12.184  62.962  1.00  0.00     0.000 HD 
ENDBRANCH  12  13
ENDBRANCH  11  12
ENDBRANCH   8  11
ENDBRANCH   7   8
ENDBRANCH   5   7
TORSDOF 5
ENDMDL
MODEL      111
REMARK 921   NORMALIZED FREE ENERGY PREDICTED BY IDOCK:   -4.83 KCAL/MOL
REMARK 922        TOTAL FREE ENERGY PREDICTED BY IDOCK:   -6.87 KCAL/MOL
REMARK 923 INTER-LIGAND FREE ENERGY PREDICTED BY IDOCK:   -6.41 KCAL/MOL
REMARK 924 INTRA-LIGAND FREE ENERGY PREDICTED BY IDOCK:   -0.46 KCAL/MOL
REMARK 927      BINDING AFFINITY PREDICTED BY RF-SCORE:    0.00 PKD
ROOT
HETATM    1  C   UNL     1      -8.597  16.173  66.529  1.00  0.00    -0.341 C  
HETATM    2  C   UNL     1      -9.922  16.302  67.301  1.00  0.00    -0.250 C  
HETATM    3  C   UNL     1     -10.407  17.759  67.187  1.00  0.00    -0.354 C  
HETATM    4  C   UNL     1      -9.691  15.989  68.791  1.00  0.00    -0.226 C  
HETATM    5  N   UNL     1     -10.983  15.444  66.735  1.00  0.00    -0.308 NA 
HETATM    6  H   UNL     1     -11.246  15.771  65.805  1.00  0.00     0.000 HD 
ENDROOT
BRANCH   5   7
HETATM    7  C   UNL     1     -10.655  14.014  66.699  1.00  0.00    -0.274 C  
BRANCH   7   8
HETATM    8  C   UNL     1     -11.837  13.118  67.127  1.00  0.00    -0.369 C  
HETATM    9  H   UNL     1     -12.723  11.477  66.478  1.00  0.00     0.000 HD 
HETATM   10  O   UNL     1     -11.996  12.028  66.214  1.00  0.00    -0.596 OA 
BRANCH   8  11
HETATM   11  C   UNL     1     -11.574  12.601  68.554  1.00  0.00    -0.323 C  
BRANCH  11  12
HETATM   12  O   UNL     1     -12.282  11.380  68.772  1.00  0.00    -0.502 OA 
BRANCH  12  13
HETATM   13  C   UNL     1     -11.872  10.525  69.765  1.00  0.00    -0.257 A  
HETATM   14  C   UNL     1     -12.663  10.659  70.923  1.00  0.00    -0.498 A  
HETATM   15  C   UNL     1     -12.504   9.813  72.020  1.00  0.00    -0.390 A  
HETATM   16  C   UNL     1     -11.581   8.779  71.954  1.00  0.00    -0.432 A  
HETATM   17  C   UNL     1     -10.807   8.615  70.805  1.00  0.00    -0.230 A  
HETATM   18  C   UNL     1     -10.901   9.504  69.709  1.00  0.00    -0.264 A  
HETATM   19  C   UNL     1     -10.056   9.191  68.503  1.00  0.00    -0.212 C  
HETATM   20  C   UNL     1      -8.848   8.312  68.775  1.00  0.00    -0.137 C  
HETATM   21  C   UNL     1      -9.150   7.181  69.706  1.00  0.00    -0.141 C  
HETATM   22  N   UNL     1      -9.998   7.475  70.738  1.00  0.00    -0.182 N  
HETATM   23  O   UNL     1      -8.584   6.094  69.633  1.00  0.00    -0.125 OA 
HETATM   24  H   UNL     1     -10.044   6.816  71.515  1.00  0.00     0.000 HD 
ENDBRANCH  12  13
ENDBRANCH  11  12
ENDBRANCH   8  11
ENDBRANCH   7   8
ENDBRANCH   5   7
TORSDOF 5
ENDMDL
MODEL      112
REMARK 921   NORMALIZED FREE ENERGY PREDICTED BY IDOCK:   -4.82 KCAL/MOL
REMARK 922        TOTAL FREE ENERGY PREDICTED BY IDOCK:   -6.85 KCAL/MOL
REMARK 923 INTER-LIGAND FREE ENERGY PREDICTED BY IDOCK:   -6.44 KCAL/MOL
REMARK 924 INTRA-LIGAND FREE ENERGY PREDICTED BY IDOCK:   -0.42 KCAL/MOL
REMARK 927      BINDING AFFINITY PREDICTED BY RF-SCORE:    0.00 PKD
ROOT
HETATM    1  C   UNL     1     -11.004   6.313  67.466  1.00  0.00    -0.444 C  
HETATM    2  C   UNL     1     -10.042   6.132  68.654  1.00  0.00    -0.162 C  
HETATM    3  C   UNL     1      -8.721   5.550  68.119  1.00  0.00    -0.102 C  
HETATM    4  C   UNL     1     -10.635   5.127  69.659  1.00  0.00    -0.156 C  
HETATM    5  N   UNL     1      -9.719   7.414  69.312  1.00  0.00    -0.164 NA 
HETATM    6  H   UNL     1      -9.174   8.007  68.685  1.00  0.00     0.000 HD 
ENDROOT
BRANCH   5   7
HETATM    7  C   UNL     1     -10.883   8.146  69.823  1.00  0.00    -0.190 C  
BRANCH   7   8
HETATM    8  C   UNL     1     -10.764   9.673  69.628  1.00  0.00    -0.240 C  
HETATM    9  H   UNL     1      -9.551  11.120  70.205  1.00  0.00     0.000 HD 
HETATM   10  O   UNL     1      -9.624  10.181  70.326  1.00  0.00    -0.118 OA 
BRANCH   8  11
HETATM   11  C   UNL     1     -10.659   9.971  68.121  1.00  0.00    -0.227 C  
BRANCH  11  12
HETATM   12  O   UNL     1     -11.753  10.790  67.704  1.00  0.00    -0.538 OA 
BRANCH  12  13
HETATM   13  C   UNL     1     -11.620  12.156  67.709  1.00  0.00    -0.342 A  
HETATM   14  C   UNL     1     -11.301  12.650  66.430  1.00  0.00    -0.381 A  
HETATM   15  C   UNL     1     -11.230  14.019  66.170  1.00  0.00    -0.318 A  
HETATM   16  C   UNL     1     -11.531  14.920  67.181  1.00  0.00    -0.344 A  
HETATM   17  C   UNL     1     -11.875  14.448  68.449  1.00  0.00    -0.319 A  
HETATM   18  C   UNL     1     -11.884  13.067  68.753  1.00  0.00    -0.355 A  
HETATM   19  C   UNL     1     -12.326  12.677  70.139  1.00  0.00    -0.222 C  
HETATM   20  C   UNL     1     -12.201  13.771  71.185  1.00  0.00    -0.362 C  
HETATM   21  C   UNL     1     -12.641  15.109  70.681  1.00  0.00    -0.395 C  
HETATM   22  N   UNL     1     -12.306  15.393  69.386  1.00  0.00    -0.592 N  
HETATM   23  O   UNL     1     -13.157  15.953  71.409  1.00  0.00    -0.465 OA 
HETATM   24  H   UNL     1     -12.374  16.365  69.082  1.00  0.00     0.000 HD 
ENDBRANCH  12  13
ENDBRANCH  11  12
ENDBRANCH   8  11
ENDBRANCH   7   8
ENDBRANCH   5   7
TORSDOF 5
ENDMDL
MODEL      113
REMARK 921   NORMALIZED FREE ENERGY PREDICTED BY IDOCK:   -4.81 KCAL/MOL
REMARK 922        TOTAL FREE ENERGY PREDICTED BY IDOCK:   -6.85 KCAL/MOL
REMARK 923 INTER-LIGAND FREE ENERGY PREDICTED BY IDOCK:   -6.18 KCAL/MOL
REMARK 924 INTRA-LIGAND FREE ENERGY PREDICTED BY IDOCK:   -0.67 KCAL/MOL
REMARK 927      BINDING AFFINITY PREDICTED BY RF-SCORE:    0.00 PKD
ROOT
HETATM    1  C   UNL     1      -9.856   8.813  72.077  1.00  0.00    -0.376 C  
HETATM    2  C   UNL     1     -10.547   9.352  70.812  1.00  0.00    -0.303 C  
HETATM    3  C   UNL     1     -11.712  10.259  71.248  1.00  0.00    -0.378 C  
HETATM    4  C   UNL     1     -11.132   8.182  69.998  1.00  0.00    -0.146 C  
HETATM    5  N   UNL     1      -9.640  10.173  69.986  1.00  0.00    -0.403 NA 
HETATM    6  H   UNL     1      -9.394  11.033  70.476  1.00  0.00     0.000 HD 
ENDROOT
BRANCH   5   7
HETATM    7  C   UNL     1      -8.428   9.478  69.538  1.00  0.00    -0.155 C  
BRANCH   7   8
HETATM    8  C   UNL     1      -7.285  10.447  69.163  1.00  0.00    -0.089 C  
HETATM    9  H   UNL     1      -5.331  10.555  69.424  1.00  0.00     0.000 HD 
HETATM   10  O   UNL     1      -6.033   9.959  69.655  1.00  0.00    -0.040 OA 
BRANCH   8  11
HETATM   11  C   UNL     1      -7.248  10.598  67.631  1.00  0.00    -0.089 C  
BRANCH  11  12
HETATM   12  O   UNL     1      -8.383   9.957  67.046  1.00  0.00    -0.120 OA 
BRANCH  12  13
HETATM   13  C   UNL     1      -8.698  10.199  65.733  1.00  0.00    -0.152 A  
HETATM   14  C   UNL     1      -7.801   9.557  64.857  1.00  0.00    -0.119 A  
HETATM   15  C   UNL     1      -7.993   9.568  63.475  1.00  0.00    -0.139 A  
HETATM   16  C   UNL     1      -9.120  10.181  62.949  1.00  0.00    -0.299 A  
HETATM   17  C   UNL     1     -10.034  10.799  63.804  1.00  0.00    -0.351 A  
HETATM   18  C   UNL     1      -9.823  10.863  65.201  1.00  0.00    -0.329 A  
HETATM   19  C   UNL     1     -10.906  11.508  66.025  1.00  0.00    -0.330 C  
HETATM   20  C   UNL     1     -11.812  12.460  65.263  1.00  0.00    -0.451 C  
HETATM   21  C   UNL     1     -12.201  11.940  63.916  1.00  0.00    -0.392 C  
HETATM   22  N   UNL     1     -11.220  11.275  63.233  1.00  0.00    -0.832 N  
HETATM   23  O   UNL     1     -13.282  12.196  63.394  1.00  0.00    -0.689 OA 
HETATM   24  H   UNL     1     -11.363  11.114  62.236  1.00  0.00     0.000 HD 
ENDBRANCH  12  13
ENDBRANCH  11  12
ENDBRANCH   8  11
ENDBRANCH   7   8
ENDBRANCH   5   7
TORSDOF 5
ENDMDL
MODEL      114
REMARK 921   NORMALIZED FREE ENERGY PREDICTED BY IDOCK:   -4.81 KCAL/MOL
REMARK 922        TOTAL FREE ENERGY PREDICTED BY IDOCK:   -6.84 KCAL/MOL
REMARK 923 INTER-LIGAND FREE ENERGY PREDICTED BY IDOCK:   -6.05 KCAL/MOL
REMARK 924 INTRA-LIGAND FREE ENERGY PREDICTED BY IDOCK:   -0.79 KCAL/MOL
REMARK 927      BINDING AFFINITY PREDICTED BY RF-SCORE:    0.00 PKD
ROOT
HETATM    1  C   UNL     1     -12.663  13.476  65.729  1.00  0.00    -0.433 C  
HETATM    2  C   UNL     1     -11.693  13.854  64.595  1.00  0.00    -0.397 C  
HETATM    3  C   UNL     1     -12.077  15.252  64.078  1.00  0.00    -0.031 C  
HETATM    4  C   UNL     1     -11.837  12.857  63.430  1.00  0.00    -0.576 C  
HETATM    5  N   UNL     1     -10.294  13.930  65.061  1.00  0.00    -0.433 NA 
HETATM    6  H   UNL     1     -10.177  14.709  65.709  1.00  0.00     0.000 HD 
ENDROOT
BRANCH   5   7
HETATM    7  C   UNL     1      -9.781  12.690  65.655  1.00  0.00    -0.139 C  
BRANCH   7   8
HETATM    8  C   UNL     1      -9.328  12.871  67.120  1.00  0.00    -0.229 C  
HETATM    9  H   UNL     1      -8.228  11.885  68.431  1.00  0.00     0.000 HD 
HETATM   10  O   UNL     1      -8.507  11.773  67.530  1.00  0.00    -0.141 OA 
BRANCH   8  11
HETATM   11  C   UNL     1      -8.560  14.201  67.239  1.00  0.00    -0.218 C  
BRANCH  11  12
HETATM   12  O   UNL     1      -9.312  15.135  68.014  1.00  0.00    -0.184 OA 
BRANCH  12  13
HETATM   13  C   UNL     1      -9.169  16.480  67.784  1.00  0.00    -0.202 A  
HETATM   14  C   UNL     1     -10.214  16.984  66.985  1.00  0.00    -0.303 A  
HETATM   15  C   UNL     1     -10.338  18.347  66.716  1.00  0.00    -0.420 A  
HETATM   16  C   UNL     1      -9.444  19.239  67.290  1.00  0.00    -0.380 A  
HETATM   17  C   UNL     1      -8.418  18.760  68.106  1.00  0.00    -0.306 A  
HETATM   18  C   UNL     1      -8.229  17.377  68.334  1.00  0.00    -0.262 A  
HETATM   19  C   UNL     1      -7.122  16.986  69.277  1.00  0.00    -0.177 C  
HETATM   20  C   UNL     1      -6.030  18.027  69.453  1.00  0.00    -0.240 C  
HETATM   21  C   UNL     1      -6.567  19.417  69.573  1.00  0.00    -0.311 C  
HETATM   22  N   UNL     1      -7.635  19.711  68.770  1.00  0.00    -0.339 N  
HETATM   23  O   UNL     1      -6.017  20.283  70.248  1.00  0.00    -0.331 OA 
HETATM   24  H   UNL     1      -7.878  20.694  68.646  1.00  0.00     0.000 HD 
ENDBRANCH  12  13
ENDBRANCH  11  12
ENDBRANCH   8  11
ENDBRANCH   7   8
ENDBRANCH   5   7
TORSDOF 5
ENDMDL
MODEL      115
REMARK 921   NORMALIZED FREE ENERGY PREDICTED BY IDOCK:   -4.80 KCAL/MOL
REMARK 922        TOTAL FREE ENERGY PREDICTED BY IDOCK:   -6.83 KCAL/MOL
REMARK 923 INTER-LIGAND FREE ENERGY PREDICTED BY IDOCK:   -6.19 KCAL/MOL
REMARK 924 INTRA-LIGAND FREE ENERGY PREDICTED BY IDOCK:   -0.64 KCAL/MOL
REMARK 927      BINDING AFFINITY PREDICTED BY RF-SCORE:    0.00 PKD
ROOT
HETATM    1  C   UNL     1     -10.877   6.755  67.040  1.00  0.00    -0.453 C  
HETATM    2  C   UNL     1      -9.585   7.470  67.474  1.00  0.00    -0.142 C  
HETATM    3  C   UNL     1      -8.498   6.404  67.705  1.00  0.00    -0.117 C  
HETATM    4  C   UNL     1      -9.819   8.210  68.805  1.00  0.00    -0.181 C  
HETATM    5  N   UNL     1      -9.080   8.390  66.435  1.00  0.00    -0.175 NA 
HETATM    6  H   UNL     1      -8.768   7.866  65.618  1.00  0.00     0.000 HD 
ENDROOT
BRANCH   5   7
HETATM    7  C   UNL     1     -10.026   9.438  66.038  1.00  0.00    -0.281 C  
BRANCH   7   8
HETATM    8  C   UNL     1      -9.346  10.612  65.302  1.00  0.00    -0.214 C  
HETATM    9  H   UNL     1      -7.694  10.911  64.262  1.00  0.00     0.000 HD 
HETATM   10  O   UNL     1      -8.112  10.189  64.715  1.00  0.00    -0.146 OA 
BRANCH   8  11
HETATM   11  C   UNL     1     -10.309  11.144  64.225  1.00  0.00    -0.351 C  
BRANCH  11  12
HETATM   12  O   UNL     1     -11.392  11.845  64.836  1.00  0.00    -0.316 OA 
BRANCH  12  13
HETATM   13  C   UNL     1     -11.140  12.968  65.584  1.00  0.00    -0.276 A  
HETATM   14  C   UNL     1     -10.793  14.065  64.773  1.00  0.00    -0.430 A  
HETATM   15  C   UNL     1     -10.605  15.340  65.306  1.00  0.00    -0.438 A  
HETATM   16  C   UNL     1     -10.814  15.549  66.661  1.00  0.00    -0.285 A  
HETATM   17  C   UNL     1     -11.184  14.478  67.477  1.00  0.00    -0.321 A  
HETATM   18  C   UNL     1     -11.311  13.164  66.971  1.00  0.00    -0.349 A  
HETATM   19  C   UNL     1     -11.770  12.103  67.936  1.00  0.00    -0.403 C  
HETATM   20  C   UNL     1     -11.538  12.425  69.402  1.00  0.00    -0.371 C  
HETATM   21  C   UNL     1     -11.864  13.843  69.745  1.00  0.00    -0.329 C  
HETATM   22  N   UNL     1     -11.520  14.774  68.803  1.00  0.00    -0.285 N  
HETATM   23  O   UNL     1     -12.295  14.176  70.845  1.00  0.00    -0.323 OA 
HETATM   24  H   UNL     1     -11.506  15.753  69.088  1.00  0.00     0.000 HD 
ENDBRANCH  12  13
ENDBRANCH  11  12
ENDBRANCH   8  11
ENDBRANCH   7   8
ENDBRANCH   5   7
TORSDOF 5
ENDMDL
MODEL      116
REMARK 921   NORMALIZED FREE ENERGY PREDICTED BY IDOCK:   -4.79 KCAL/MOL
REMARK 922        TOTAL FREE ENERGY PREDICTED BY IDOCK:   -6.82 KCAL/MOL
REMARK 923 INTER-LIGAND FREE ENERGY PREDICTED BY IDOCK:   -6.37 KCAL/MOL
REMARK 924 INTRA-LIGAND FREE ENERGY PREDICTED BY IDOCK:   -0.45 KCAL/MOL
REMARK 927      BINDING AFFINITY PREDICTED BY RF-SCORE:    0.00 PKD
ROOT
HETATM    1  C   UNL     1      -7.798  11.248  66.713  1.00  0.00    -0.155 C  
HETATM    2  C   UNL     1      -7.927  12.098  67.989  1.00  0.00    -0.152 C  
HETATM    3  C   UNL     1      -8.187  13.557  67.572  1.00  0.00    -0.186 C  
HETATM    4  C   UNL     1      -6.607  12.055  68.781  1.00  0.00    -0.082 C  
HETATM    5  N   UNL     1      -9.066  11.675  68.829  1.00  0.00    -0.374 NA 
HETATM    6  H   UNL     1      -9.948  11.869  68.355  1.00  0.00     0.000 HD 
ENDROOT
BRANCH   5   7
HETATM    7  C   UNL     1      -9.016  10.274  69.261  1.00  0.00    -0.179 C  
BRANCH   7   8
HETATM    8  C   UNL     1     -10.227   9.452  68.771  1.00  0.00    -0.203 C  
HETATM    9  H   UNL     1     -11.689   8.399  69.578  1.00  0.00     0.000 HD 
HETATM   10  O   UNL     1     -10.944   8.904  69.881  1.00  0.00    -0.235 OA 
BRANCH   8  11
HETATM   11  C   UNL     1     -11.137  10.366  67.930  1.00  0.00    -0.299 C  
BRANCH  11  12
HETATM   12  O   UNL     1     -12.011  11.108  68.782  1.00  0.00    -0.451 OA 
BRANCH  12  13
HETATM   13  C   UNL     1     -11.995  12.479  68.745  1.00  0.00    -0.238 A  
HETATM   14  C   UNL     1     -12.049  13.034  70.039  1.00  0.00    -0.367 A  
HETATM   15  C   UNL     1     -11.930  14.407  70.253  1.00  0.00    -0.388 A  
HETATM   16  C   UNL     1     -11.699  15.247  69.173  1.00  0.00    -0.355 A  
HETATM   17  C   UNL     1     -11.616  14.712  67.886  1.00  0.00    -0.348 A  
HETATM   18  C   UNL     1     -11.806  13.332  67.638  1.00  0.00    -0.400 A  
HETATM   19  C   UNL     1     -11.637  12.866  66.216  1.00  0.00    -0.424 C  
HETATM   20  C   UNL     1     -11.808  13.945  65.161  1.00  0.00    -0.370 C  
HETATM   21  C   UNL     1     -11.151  15.235  65.537  1.00  0.00    -0.327 C  
HETATM   22  N   UNL     1     -11.242  15.583  66.857  1.00  0.00    -0.226 N  
HETATM   23  O   UNL     1     -10.671  16.000  64.705  1.00  0.00    -0.611 OA 
HETATM   24  H   UNL     1     -11.021  16.546  67.109  1.00  0.00     0.000 HD 
ENDBRANCH  12  13
ENDBRANCH  11  12
ENDBRANCH   8  11
ENDBRANCH   7   8
ENDBRANCH   5   7
TORSDOF 5
ENDMDL
MODEL      117
REMARK 921   NORMALIZED FREE ENERGY PREDICTED BY IDOCK:   -4.77 KCAL/MOL
REMARK 922        TOTAL FREE ENERGY PREDICTED BY IDOCK:   -6.79 KCAL/MOL
REMARK 923 INTER-LIGAND FREE ENERGY PREDICTED BY IDOCK:   -5.76 KCAL/MOL
REMARK 924 INTRA-LIGAND FREE ENERGY PREDICTED BY IDOCK:   -1.04 KCAL/MOL
REMARK 927      BINDING AFFINITY PREDICTED BY RF-SCORE:    0.00 PKD
ROOT
HETATM    1  C   UNL     1     -11.197  11.374  67.003  1.00  0.00    -0.350 C  
HETATM    2  C   UNL     1     -10.090  10.428  66.505  1.00  0.00    -0.228 C  
HETATM    3  C   UNL     1     -10.065  10.483  64.967  1.00  0.00    -0.390 C  
HETATM    4  C   UNL     1     -10.410   8.982  66.926  1.00  0.00    -0.324 C  
HETATM    5  N   UNL     1      -8.752  10.837  66.978  1.00  0.00    -0.134 NA 
HETATM    6  H   UNL     1      -8.480  11.723  66.554  1.00  0.00     0.000 HD 
ENDROOT
BRANCH   5   7
HETATM    7  C   UNL     1      -8.618  10.908  68.438  1.00  0.00    -0.146 C  
BRANCH   7   8
HETATM    8  C   UNL     1      -7.265  10.362  68.943  1.00  0.00    -0.082 C  
HETATM    9  H   UNL     1      -6.133  10.549  70.550  1.00  0.00     0.000 HD 
HETATM   10  O   UNL     1      -6.966  10.885  70.240  1.00  0.00    -0.213 OA 
BRANCH   8  11
HETATM   11  C   UNL     1      -7.335   8.824  68.977  1.00  0.00    -0.073 C  
BRANCH  11  12
HETATM   12  O   UNL     1      -7.975   8.388  70.177  1.00  0.00    -0.096 OA 
BRANCH  12  13
HETATM   13  C   UNL     1      -9.193   7.759  70.108  1.00  0.00    -0.153 A  
HETATM   14  C   UNL     1      -9.072   6.445  69.616  1.00  0.00    -0.143 A  
HETATM   15  C   UNL     1     -10.163   5.578  69.567  1.00  0.00    -0.331 A  
HETATM   16  C   UNL     1     -11.389   5.998  70.061  1.00  0.00    -0.354 A  
HETATM   17  C   UNL     1     -11.522   7.288  70.576  1.00  0.00    -0.279 A  
HETATM   18  C   UNL     1     -10.448   8.208  70.570  1.00  0.00    -0.222 A  
HETATM   19  C   UNL     1     -10.697   9.551  71.204  1.00  0.00    -0.408 C  
HETATM   20  C   UNL     1     -12.158   9.959  71.292  1.00  0.00    -0.485 C  
HETATM   21  C   UNL     1     -13.051   8.834  71.708  1.00  0.00    -0.363 C  
HETATM   22  N   UNL     1     -12.739   7.608  71.189  1.00  0.00    -0.511 N  
HETATM   23  O   UNL     1     -14.072   9.009  72.367  1.00  0.00    -0.469 OA 
HETATM   24  H   UNL     1     -13.444   6.873  71.252  1.00  0.00     0.000 HD 
ENDBRANCH  12  13
ENDBRANCH  11  12
ENDBRANCH   8  11
ENDBRANCH   7   8
ENDBRANCH   5   7
TORSDOF 5
ENDMDL
MODEL      118
REMARK 921   NORMALIZED FREE ENERGY PREDICTED BY IDOCK:   -4.76 KCAL/MOL
REMARK 922        TOTAL FREE ENERGY PREDICTED BY IDOCK:   -6.79 KCAL/MOL
REMARK 923 INTER-LIGAND FREE ENERGY PREDICTED BY IDOCK:   -6.70 KCAL/MOL
REMARK 924 INTRA-LIGAND FREE ENERGY PREDICTED BY IDOCK:   -0.08 KCAL/MOL
REMARK 927      BINDING AFFINITY PREDICTED BY RF-SCORE:    0.00 PKD
ROOT
HETATM    1  C   UNL     1     -11.891  15.345  72.350  1.00  0.00    -0.558 C  
HETATM    2  C   UNL     1     -13.099  14.768  71.590  1.00  0.00    -0.337 C  
HETATM    3  C   UNL     1     -14.371  15.467  72.104  1.00  0.00    -0.642 C  
HETATM    4  C   UNL     1     -13.229  13.261  71.884  1.00  0.00    -0.523 C  
HETATM    5  N   UNL     1     -13.018  15.022  70.138  1.00  0.00    -0.630 NA 
HETATM    6  H   UNL     1     -13.104  16.020  69.946  1.00  0.00     0.000 HD 
ENDROOT
BRANCH   5   7
HETATM    7  C   UNL     1     -11.817  14.480  69.491  1.00  0.00    -0.329 C  
BRANCH   7   8
HETATM    8  C   UNL     1     -11.890  14.535  67.950  1.00  0.00    -0.336 C  
HETATM    9  H   UNL     1     -10.829  15.308  66.474  1.00  0.00     0.000 HD 
HETATM   10  O   UNL     1     -10.784  15.274  67.422  1.00  0.00    -0.280 OA 
BRANCH   8  11
HETATM   11  C   UNL     1     -11.895  13.096  67.404  1.00  0.00    -0.361 C  
BRANCH  11  12
HETATM   12  O   UNL     1     -10.638  12.796  66.795  1.00  0.00    -0.249 OA 
BRANCH  12  13
HETATM   13  C   UNL     1      -9.731  12.008  67.460  1.00  0.00    -0.187 A  
HETATM   14  C   UNL     1      -8.411  12.281  67.053  1.00  0.00    -0.168 A  
HETATM   15  C   UNL     1      -7.315  11.682  67.675  1.00  0.00    -0.108 A  
HETATM   16  C   UNL     1      -7.523  10.836  68.754  1.00  0.00    -0.109 A  
HETATM   17  C   UNL     1      -8.823  10.575  69.187  1.00  0.00    -0.151 A  
HETATM   18  C   UNL     1      -9.952  11.114  68.528  1.00  0.00    -0.204 A  
HETATM   19  C   UNL     1     -11.301  10.805  69.122  1.00  0.00    -0.348 C  
HETATM   20  C   UNL     1     -11.348   9.567  70.001  1.00  0.00    -0.204 C  
HETATM   21  C   UNL     1     -10.163   9.451  70.906  1.00  0.00    -0.303 C  
HETATM   22  N   UNL     1      -8.966   9.831  70.364  1.00  0.00    -0.344 N  
HETATM   23  O   UNL     1     -10.227   8.934  72.017  1.00  0.00    -0.334 OA 
HETATM   24  H   UNL     1      -8.115   9.551  70.853  1.00  0.00     0.000 HD 
ENDBRANCH  12  13
ENDBRANCH  11  12
ENDBRANCH   8  11
ENDBRANCH   7   8
ENDBRANCH   5   7
TORSDOF 5
ENDMDL
MODEL      119
REMARK 921   NORMALIZED FREE ENERGY PREDICTED BY IDOCK:   -4.76 KCAL/MOL
REMARK 922        TOTAL FREE ENERGY PREDICTED BY IDOCK:   -6.78 KCAL/MOL
REMARK 923 INTER-LIGAND FREE ENERGY PREDICTED BY IDOCK:   -5.92 KCAL/MOL
REMARK 924 INTRA-LIGAND FREE ENERGY PREDICTED BY IDOCK:   -0.86 KCAL/MOL
REMARK 927      BINDING AFFINITY PREDICTED BY RF-SCORE:    0.00 PKD
ROOT
HETATM    1  C   UNL     1      -6.988  13.273  68.583  1.00  0.00    -0.101 C  
HETATM    2  C   UNL     1      -7.805  11.981  68.405  1.00  0.00    -0.147 C  
HETATM    3  C   UNL     1      -7.163  10.881  69.271  1.00  0.00    -0.128 C  
HETATM    4  C   UNL     1      -7.749  11.524  66.935  1.00  0.00    -0.157 C  
HETATM    5  N   UNL     1      -9.201  12.135  68.861  1.00  0.00    -0.383 NA 
HETATM    6  H   UNL     1      -9.232  12.269  69.872  1.00  0.00     0.000 HD 
ENDROOT
BRANCH   5   7
HETATM    7  C   UNL     1      -9.949  13.201  68.183  1.00  0.00    -0.234 C  
BRANCH   7   8
HETATM    8  C   UNL     1     -11.334  13.456  68.814  1.00  0.00    -0.292 C  
HETATM    9  H   UNL     1     -13.005  14.384  68.319  1.00  0.00     0.000 HD 
HETATM   10  O   UNL     1     -12.153  14.228  67.930  1.00  0.00    -0.345 OA 
BRANCH   8  11
HETATM   11  C   UNL     1     -11.993  12.099  69.124  1.00  0.00    -0.255 C  
BRANCH  11  12
HETATM   12  O   UNL     1     -11.550  11.616  70.393  1.00  0.00    -0.257 OA 
BRANCH  12  13
HETATM   13  C   UNL     1     -11.926  10.365  70.813  1.00  0.00    -0.363 A  
HETATM   14  C   UNL     1     -13.014  10.422  71.705  1.00  0.00    -0.581 A  
HETATM   15  C   UNL     1     -13.639   9.266  72.172  1.00  0.00    -0.536 A  
HETATM   16  C   UNL     1     -13.215   8.028  71.711  1.00  0.00    -0.367 A  
HETATM   17  C   UNL     1     -12.155   7.954  70.806  1.00  0.00    -0.084 A  
HETATM   18  C   UNL     1     -11.460   9.107  70.373  1.00  0.00    -0.228 A  
HETATM   19  C   UNL     1     -10.371   8.906  69.354  1.00  0.00    -0.217 C  
HETATM   20  C   UNL     1      -9.792   7.503  69.302  1.00  0.00    -0.170 C  
HETATM   21  C   UNL     1     -10.837   6.438  69.400  1.00  0.00    -0.321 C  
HETATM   22  N   UNL     1     -11.864   6.696  70.267  1.00  0.00    -0.559 N  
HETATM   23  O   UNL     1     -10.728   5.349  68.844  1.00  0.00    -0.187 OA 
HETATM   24  H   UNL     1     -12.461   5.915  70.539  1.00  0.00     0.000 HD 
ENDBRANCH  12  13
ENDBRANCH  11  12
ENDBRANCH   8  11
ENDBRANCH   7   8
ENDBRANCH   5   7
TORSDOF 5
ENDMDL
MODEL      120
REMARK 921   NORMALIZED FREE ENERGY PREDICTED BY IDOCK:   -4.76 KCAL/MOL
REMARK 922        TOTAL FREE ENERGY PREDICTED BY IDOCK:   -6.78 KCAL/MOL
REMARK 923 INTER-LIGAND FREE ENERGY PREDICTED BY IDOCK:   -6.18 KCAL/MOL
REMARK 924 INTRA-LIGAND FREE ENERGY PREDICTED BY IDOCK:   -0.60 KCAL/MOL
REMARK 927      BINDING AFFINITY PREDICTED BY RF-SCORE:    0.00 PKD
ROOT
HETATM    1  C   UNL     1     -12.072  12.737  65.877  1.00  0.00    -0.485 C  
HETATM    2  C   UNL     1     -11.183  13.050  64.660  1.00  0.00    -0.326 C  
HETATM    3  C   UNL     1     -10.631  14.478  64.822  1.00  0.00    -0.401 C  
HETATM    4  C   UNL     1     -12.027  13.007  63.372  1.00  0.00    -0.592 C  
HETATM    5  N   UNL     1     -10.023  12.141  64.567  1.00  0.00    -0.423 NA 
HETATM    6  H   UNL     1      -9.382  12.302  65.345  1.00  0.00     0.000 HD 
ENDROOT
BRANCH   5   7
HETATM    7  C   UNL     1     -10.370  10.718  64.478  1.00  0.00    -0.331 C  
BRANCH   7   8
HETATM    8  C   UNL     1      -9.682   9.865  65.565  1.00  0.00    -0.302 C  
HETATM    9  H   UNL     1      -8.344   8.414  65.640  1.00  0.00     0.000 HD 
HETATM   10  O   UNL     1      -8.767   8.939  64.971  1.00  0.00    -0.182 OA 
BRANCH   8  11
HETATM   11  C   UNL     1      -8.951  10.804  66.542  1.00  0.00    -0.156 C  
BRANCH  11  12
HETATM   12  O   UNL     1      -8.525  10.078  67.696  1.00  0.00    -0.115 OA 
BRANCH  12  13
HETATM   13  C   UNL     1      -9.459   9.502  68.520  1.00  0.00    -0.141 A  
HETATM   14  C   UNL     1      -9.197   8.134  68.724  1.00  0.00    -0.144 A  
HETATM   15  C   UNL     1      -9.948   7.369  69.617  1.00  0.00    -0.182 A  
HETATM   16  C   UNL     1     -10.946   7.979  70.363  1.00  0.00    -0.248 A  
HETATM   17  C   UNL     1     -11.203   9.340  70.193  1.00  0.00    -0.208 A  
HETATM   18  C   UNL     1     -10.502  10.119  69.242  1.00  0.00    -0.246 A  
HETATM   19  C   UNL     1     -10.828  11.588  69.190  1.00  0.00    -0.241 C  
HETATM   20  C   UNL     1     -12.188  11.964  69.752  1.00  0.00    -0.241 C  
HETATM   21  C   UNL     1     -12.515  11.239  71.018  1.00  0.00    -0.400 C  
HETATM   22  N   UNL     1     -12.119   9.931  71.070  1.00  0.00    -0.332 N  
HETATM   23  O   UNL     1     -13.203  11.735  71.907  1.00  0.00    -0.482 OA 
HETATM   24  H   UNL     1     -12.521   9.343  71.800  1.00  0.00     0.000 HD 
ENDBRANCH  12  13
ENDBRANCH  11  12
ENDBRANCH   8  11
ENDBRANCH   7   8
ENDBRANCH   5   7
TORSDOF 5
ENDMDL
MODEL      121
REMARK 921   NORMALIZED FREE ENERGY PREDICTED BY IDOCK:   -4.72 KCAL/MOL
REMARK 922        TOTAL FREE ENERGY PREDICTED BY IDOCK:   -6.73 KCAL/MOL
REMARK 923 INTER-LIGAND FREE ENERGY PREDICTED BY IDOCK:   -6.54 KCAL/MOL
REMARK 924 INTRA-LIGAND FREE ENERGY PREDICTED BY IDOCK:   -0.19 KCAL/MOL
REMARK 927      BINDING AFFINITY PREDICTED BY RF-SCORE:    0.00 PKD
ROOT
HETATM    1  C   UNL     1      -7.945   9.744  67.052  1.00  0.00    -0.105 C  
HETATM    2  C   UNL     1      -9.261   8.950  66.961  1.00  0.00    -0.137 C  
HETATM    3  C   UNL     1      -9.017   7.713  66.076  1.00  0.00    -0.178 C  
HETATM    4  C   UNL     1     -10.346   9.812  66.289  1.00  0.00    -0.235 C  
HETATM    5  N   UNL     1      -9.710   8.461  68.280  1.00  0.00    -0.151 NA 
HETATM    6  H   UNL     1      -9.062   7.759  68.638  1.00  0.00     0.000 HD 
ENDROOT
BRANCH   5   7
HETATM    7  C   UNL     1      -9.923   9.514  69.279  1.00  0.00    -0.187 C  
BRANCH   7   8
HETATM    8  C   UNL     1     -10.788   9.044  70.469  1.00  0.00    -0.251 C  
HETATM    9  H   UNL     1     -10.494   8.419  72.319  1.00  0.00     0.000 HD 
HETATM   10  O   UNL     1      -9.961   8.707  71.587  1.00  0.00    -0.226 OA 
BRANCH   8  11
HETATM   11  C   UNL     1     -11.773  10.169  70.838  1.00  0.00    -0.378 C  
BRANCH  11  12
HETATM   12  O   UNL     1     -12.154  10.892  69.667  1.00  0.00    -0.319 OA 
BRANCH  12  13
HETATM   13  C   UNL     1     -12.035  12.259  69.643  1.00  0.00    -0.279 A  
HETATM   14  C   UNL     1     -11.479  12.710  68.430  1.00  0.00    -0.350 A  
HETATM   15  C   UNL     1     -11.370  14.069  68.135  1.00  0.00    -0.320 A  
HETATM   16  C   UNL     1     -11.865  15.003  69.033  1.00  0.00    -0.330 A  
HETATM   17  C   UNL     1     -12.443  14.573  70.229  1.00  0.00    -0.348 A  
HETATM   18  C   UNL     1     -12.500  13.204  70.581  1.00  0.00    -0.363 A  
HETATM   19  C   UNL     1     -13.197  12.860  71.870  1.00  0.00    -0.521 C  
HETATM   20  C   UNL     1     -13.283  13.994  72.876  1.00  0.00    -0.502 C  
HETATM   21  C   UNL     1     -13.628  15.306  72.246  1.00  0.00    -0.481 C  
HETATM   22  N   UNL     1     -13.052  15.547  71.028  1.00  0.00    -0.499 N  
HETATM   23  O   UNL     1     -14.280  16.169  72.827  1.00  0.00    -0.375 OA 
HETATM   24  H   UNL     1     -13.068  16.505  70.678  1.00  0.00     0.000 HD 
ENDBRANCH  12  13
ENDBRANCH  11  12
ENDBRANCH   8  11
ENDBRANCH   7   8
ENDBRANCH   5   7
TORSDOF 5
ENDMDL
MODEL      122
REMARK 921   NORMALIZED FREE ENERGY PREDICTED BY IDOCK:   -4.69 KCAL/MOL
REMARK 922        TOTAL FREE ENERGY PREDICTED BY IDOCK:   -6.69 KCAL/MOL
REMARK 923 INTER-LIGAND FREE ENERGY PREDICTED BY IDOCK:   -5.81 KCAL/MOL
REMARK 924 INTRA-LIGAND FREE ENERGY PREDICTED BY IDOCK:   -0.88 KCAL/MOL
REMARK 927      BINDING AFFINITY PREDICTED BY RF-SCORE:    0.00 PKD
ROOT
HETATM    1  C   UNL     1     -11.425  12.228  66.525  1.00  0.00    -0.438 C  
HETATM    2  C   UNL     1     -10.200  12.462  65.622  1.00  0.00    -0.262 C  
HETATM    3  C   UNL     1     -10.586  13.491  64.544  1.00  0.00    -0.439 C  
HETATM    4  C   UNL     1      -9.814  11.150  64.914  1.00  0.00    -0.316 C  
HETATM    5  N   UNL     1      -9.055  13.021  66.369  1.00  0.00    -0.434 NA 
HETATM    6  H   UNL     1      -9.267  13.966  66.689  1.00  0.00     0.000 HD 
ENDROOT
BRANCH   5   7
HETATM    7  C   UNL     1      -8.597  12.193  67.490  1.00  0.00    -0.171 C  
BRANCH   7   8
HETATM    8  C   UNL     1      -7.215  12.622  68.026  1.00  0.00    -0.112 C  
HETATM    9  H   UNL     1      -5.400  12.903  67.300  1.00  0.00     0.000 HD 
HETATM   10  O   UNL     1      -6.251  12.639  66.969  1.00  0.00    -0.250 OA 
BRANCH   8  11
HETATM   11  C   UNL     1      -7.344  14.015  68.670  1.00  0.00    -0.120 C  
BRANCH  11  12
HETATM   12  O   UNL     1      -7.012  15.028  67.720  1.00  0.00    -0.140 OA 
BRANCH  12  13
HETATM   13  C   UNL     1      -7.402  16.325  67.945  1.00  0.00    -0.127 A  
HETATM   14  C   UNL     1      -6.515  16.991  68.811  1.00  0.00    -0.181 A  
HETATM   15  C   UNL     1      -6.647  18.351  69.092  1.00  0.00    -0.280 A  
HETATM   16  C   UNL     1      -7.646  19.081  68.464  1.00  0.00    -0.364 A  
HETATM   17  C   UNL     1      -8.518  18.443  67.581  1.00  0.00    -0.255 A  
HETATM   18  C   UNL     1      -8.447  17.052  67.337  1.00  0.00    -0.208 A  
HETATM   19  C   UNL     1      -9.407  16.488  66.322  1.00  0.00    -0.334 C  
HETATM   20  C   UNL     1     -10.650  17.325  66.079  1.00  0.00    -0.217 C  
HETATM   21  C   UNL     1     -10.358  18.790  65.998  1.00  0.00    -0.422 C  
HETATM   22  N   UNL     1      -9.411  19.253  66.870  1.00  0.00    -0.312 N  
HETATM   23  O   UNL     1     -11.007  19.556  65.292  1.00  0.00    -0.426 OA 
HETATM   24  H   UNL     1      -9.352  20.261  67.013  1.00  0.00     0.000 HD 
ENDBRANCH  12  13
ENDBRANCH  11  12
ENDBRANCH   8  11
ENDBRANCH   7   8
ENDBRANCH   5   7
TORSDOF 5
ENDMDL
MODEL      123
REMARK 921   NORMALIZED FREE ENERGY PREDICTED BY IDOCK:   -4.69 KCAL/MOL
REMARK 922        TOTAL FREE ENERGY PREDICTED BY IDOCK:   -6.69 KCAL/MOL
REMARK 923 INTER-LIGAND FREE ENERGY PREDICTED BY IDOCK:   -5.70 KCAL/MOL
REMARK 924 INTRA-LIGAND FREE ENERGY PREDICTED BY IDOCK:   -0.99 KCAL/MOL
REMARK 927      BINDING AFFINITY PREDICTED BY RF-SCORE:    0.00 PKD
ROOT
HETATM    1  C   UNL     1     -10.328   9.098  67.265  1.00  0.00    -0.338 C  
HETATM    2  C   UNL     1      -8.810   9.070  67.514  1.00  0.00    -0.123 C  
HETATM    3  C   UNL     1      -8.400  10.413  68.146  1.00  0.00    -0.117 C  
HETATM    4  C   UNL     1      -8.063   8.925  66.174  1.00  0.00    -0.114 C  
HETATM    5  N   UNL     1      -8.418   8.005  68.459  1.00  0.00    -0.127 NA 
HETATM    6  H   UNL     1      -8.782   8.206  69.391  1.00  0.00     0.000 HD 
ENDROOT
BRANCH   5   7
HETATM    7  C   UNL     1      -8.800   6.651  68.043  1.00  0.00    -0.115 C  
BRANCH   7   8
HETATM    8  C   UNL     1      -9.288   5.778  69.219  1.00  0.00    -0.124 C  
HETATM    9  H   UNL     1      -8.741   5.412  71.081  1.00  0.00     0.000 HD 
HETATM   10  O   UNL     1      -8.439   5.950  70.357  1.00  0.00    -0.126 OA 
BRANCH   8  11
HETATM   11  C   UNL     1     -10.739   6.170  69.555  1.00  0.00    -0.320 C  
BRANCH  11  12
HETATM   12  O   UNL     1     -10.758   7.106  70.634  1.00  0.00    -0.226 OA 
BRANCH  12  13
HETATM   13  C   UNL     1     -11.948   7.663  71.030  1.00  0.00    -0.273 A  
HETATM   14  C   UNL     1     -12.856   6.683  71.477  1.00  0.00    -0.202 A  
HETATM   15  C   UNL     1     -14.087   7.026  72.035  1.00  0.00    -0.251 A  
HETATM   16  C   UNL     1     -14.410   8.364  72.203  1.00  0.00    -0.520 A  
HETATM   17  C   UNL     1     -13.511   9.349  71.790  1.00  0.00    -0.412 A  
HETATM   18  C   UNL     1     -12.288   9.026  71.157  1.00  0.00    -0.306 A  
HETATM   19  C   UNL     1     -11.377  10.172  70.807  1.00  0.00    -0.436 C  
HETATM   20  C   UNL     1     -12.063  11.522  70.680  1.00  0.00    -0.450 C  
HETATM   21  C   UNL     1     -13.078  11.762  71.751  1.00  0.00    -0.375 C  
HETATM   22  N   UNL     1     -13.825  10.674  72.113  1.00  0.00    -0.230 N  
HETATM   23  O   UNL     1     -13.322  12.881  72.194  1.00  0.00    -0.512 OA 
HETATM   24  H   UNL     1     -14.671  10.841  72.657  1.00  0.00     0.000 HD 
ENDBRANCH  12  13
ENDBRANCH  11  12
ENDBRANCH   8  11
ENDBRANCH   7   8
ENDBRANCH   5   7
TORSDOF 5
ENDMDL
MODEL      124
REMARK 921   NORMALIZED FREE ENERGY PREDICTED BY IDOCK:   -4.69 KCAL/MOL
REMARK 922        TOTAL FREE ENERGY PREDICTED BY IDOCK:   -6.68 KCAL/MOL
REMARK 923 INTER-LIGAND FREE ENERGY PREDICTED BY IDOCK:   -5.92 KCAL/MOL
REMARK 924 INTRA-LIGAND FREE ENERGY PREDICTED BY IDOCK:   -0.76 KCAL/MOL
REMARK 927      BINDING AFFINITY PREDICTED BY RF-SCORE:    0.00 PKD
ROOT
HETATM    1  C   UNL     1      -9.264   9.052  70.972  1.00  0.00    -0.331 C  
HETATM    2  C   UNL     1     -10.127   9.773  69.922  1.00  0.00    -0.251 C  
HETATM    3  C   UNL     1     -11.429  10.234  70.603  1.00  0.00    -0.435 C  
HETATM    4  C   UNL     1     -10.500   8.796  68.791  1.00  0.00    -0.214 C  
HETATM    5  N   UNL     1      -9.465  10.979  69.387  1.00  0.00    -0.419 NA 
HETATM    6  H   UNL     1      -9.377  11.689  70.115  1.00  0.00     0.000 HD 
ENDROOT
BRANCH   5   7
HETATM    7  C   UNL     1      -8.162  10.730  68.759  1.00  0.00    -0.145 C  
BRANCH   7   8
HETATM    8  C   UNL     1      -7.207  11.939  68.860  1.00  0.00    -0.098 C  
HETATM    9  H   UNL     1      -5.344  12.274  69.422  1.00  0.00     0.000 HD 
HETATM   10  O   UNL     1      -5.931  11.530  69.361  1.00  0.00    -0.061 OA 
BRANCH   8  11
HETATM   11  C   UNL     1      -7.068  12.577  67.466  1.00  0.00    -0.151 C  
BRANCH  11  12
HETATM   12  O   UNL     1      -7.718  13.848  67.439  1.00  0.00    -0.171 OA 
BRANCH  12  13
HETATM   13  C   UNL     1      -9.081  13.912  67.290  1.00  0.00    -0.228 A  
HETATM   14  C   UNL     1      -9.518  13.153  66.188  1.00  0.00    -0.156 A  
HETATM   15  C   UNL     1     -10.874  12.978  65.911  1.00  0.00    -0.291 A  
HETATM   16  C   UNL     1     -11.820  13.520  66.769  1.00  0.00    -0.450 A  
HETATM   17  C   UNL     1     -11.404  14.253  67.882  1.00  0.00    -0.297 A  
HETATM   18  C   UNL     1     -10.037  14.504  68.142  1.00  0.00    -0.227 A  
HETATM   19  C   UNL     1      -9.710  15.260  69.402  1.00  0.00    -0.248 C  
HETATM   20  C   UNL     1     -10.843  16.105  69.957  1.00  0.00    -0.349 C  
HETATM   21  C   UNL     1     -12.166  15.410  69.904  1.00  0.00    -0.334 C  
HETATM   22  N   UNL     1     -12.393  14.654  68.787  1.00  0.00    -0.588 N  
HETATM   23  O   UNL     1     -13.047  15.599  70.738  1.00  0.00    -0.477 OA 
HETATM   24  H   UNL     1     -13.352  14.361  68.600  1.00  0.00     0.000 HD 
ENDBRANCH  12  13
ENDBRANCH  11  12
ENDBRANCH   8  11
ENDBRANCH   7   8
ENDBRANCH   5   7
TORSDOF 5
ENDMDL
MODEL      125
REMARK 921   NORMALIZED FREE ENERGY PREDICTED BY IDOCK:   -4.68 KCAL/MOL
REMARK 922        TOTAL FREE ENERGY PREDICTED BY IDOCK:   -6.68 KCAL/MOL
REMARK 923 INTER-LIGAND FREE ENERGY PREDICTED BY IDOCK:   -6.34 KCAL/MOL
REMARK 924 INTRA-LIGAND FREE ENERGY PREDICTED BY IDOCK:   -0.34 KCAL/MOL
REMARK 927      BINDING AFFINITY PREDICTED BY RF-SCORE:    0.00 PKD
ROOT
HETATM    1  C   UNL     1     -10.061  15.833  67.893  1.00  0.00    -0.230 C  
HETATM    2  C   UNL     1      -9.606  15.971  66.429  1.00  0.00    -0.283 C  
HETATM    3  C   UNL     1      -8.157  16.490  66.421  1.00  0.00    -0.362 C  
HETATM    4  C   UNL     1     -10.488  17.005  65.704  1.00  0.00    -0.229 C  
HETATM    5  N   UNL     1      -9.610  14.676  65.718  1.00  0.00    -0.494 NA 
HETATM    6  H   UNL     1      -8.897  14.057  66.104  1.00  0.00     0.000 HD 
ENDROOT
BRANCH   5   7
HETATM    7  C   UNL     1     -10.912  14.001  65.691  1.00  0.00    -0.300 C  
BRANCH   7   8
HETATM    8  C   UNL     1     -11.078  12.974  66.832  1.00  0.00    -0.277 C  
HETATM    9  H   UNL     1     -12.251  11.440  67.244  1.00  0.00     0.000 HD 
HETATM   10  O   UNL     1     -12.149  12.071  66.542  1.00  0.00    -0.617 OA 
BRANCH   8  11
HETATM   11  C   UNL     1      -9.753  12.211  67.007  1.00  0.00    -0.202 C  
BRANCH  11  12
HETATM   12  O   UNL     1      -9.542  11.901  68.385  1.00  0.00    -0.203 OA 
BRANCH  12  13
HETATM   13  C   UNL     1      -9.816  10.638  68.848  1.00  0.00    -0.201 A  
HETATM   14  C   UNL     1      -8.814   9.721  68.477  1.00  0.00    -0.121 A  
HETATM   15  C   UNL     1      -8.823   8.403  68.933  1.00  0.00    -0.143 A  
HETATM   16  C   UNL     1      -9.813   7.994  69.815  1.00  0.00    -0.183 A  
HETATM   17  C   UNL     1     -10.799   8.897  70.214  1.00  0.00    -0.239 A  
HETATM   18  C   UNL     1     -10.851  10.217  69.709  1.00  0.00    -0.320 A  
HETATM   19  C   UNL     1     -11.929  11.114  70.256  1.00  0.00    -0.460 C  
HETATM   20  C   UNL     1     -13.123  10.393  70.855  1.00  0.00    -0.412 C  
HETATM   21  C   UNL     1     -12.732   9.214  71.688  1.00  0.00    -0.358 C  
HETATM   22  N   UNL     1     -11.685   8.473  71.210  1.00  0.00    -0.277 N  
HETATM   23  O   UNL     1     -13.378   8.851  72.667  1.00  0.00    -0.433 OA 
HETATM   24  H   UNL     1     -11.541   7.546  71.610  1.00  0.00     0.000 HD 
ENDBRANCH  12  13
ENDBRANCH  11  12
ENDBRANCH   8  11
ENDBRANCH   7   8
ENDBRANCH   5   7
TORSDOF 5
ENDMDL
MODEL      126
REMARK 921   NORMALIZED FREE ENERGY PREDICTED BY IDOCK:   -4.67 KCAL/MOL
REMARK 922        TOTAL FREE ENERGY PREDICTED BY IDOCK:   -6.66 KCAL/MOL
REMARK 923 INTER-LIGAND FREE ENERGY PREDICTED BY IDOCK:   -5.64 KCAL/MOL
REMARK 924 INTRA-LIGAND FREE ENERGY PREDICTED BY IDOCK:   -1.02 KCAL/MOL
REMARK 927      BINDING AFFINITY PREDICTED BY RF-SCORE:    0.00 PKD
ROOT
HETATM    1  C   UNL     1      -7.809   8.780  71.173  1.00  0.00    -0.161 C  
HETATM    2  C   UNL     1      -8.489   7.590  71.875  1.00  0.00    -0.107 C  
HETATM    3  C   UNL     1      -9.076   8.089  73.208  1.00  0.00    -0.349 C  
HETATM    4  C   UNL     1      -7.444   6.503  72.190  1.00  0.00    -0.092 C  
HETATM    5  N   UNL     1      -9.608   7.040  71.084  1.00  0.00    -0.166 NA 
HETATM    6  H   UNL     1     -10.369   7.716  71.028  1.00  0.00     0.000 HD 
ENDROOT
BRANCH   5   7
HETATM    7  C   UNL     1      -9.235   6.578  69.742  1.00  0.00    -0.145 C  
BRANCH   7   8
HETATM    8  C   UNL     1     -10.458   6.334  68.831  1.00  0.00    -0.232 C  
HETATM    9  H   UNL     1     -12.383   5.956  69.056  1.00  0.00     0.000 HD 
HETATM   10  O   UNL     1     -11.631   6.106  69.617  1.00  0.00    -0.407 OA 
BRANCH   8  11
HETATM   11  C   UNL     1     -10.644   7.559  67.916  1.00  0.00    -0.185 C  
BRANCH  11  12
HETATM   12  O   UNL     1     -10.019   8.705  68.496  1.00  0.00    -0.172 OA 
BRANCH  12  13
HETATM   13  C   UNL     1     -10.761   9.835  68.735  1.00  0.00    -0.215 A  
HETATM   14  C   UNL     1     -11.183   9.904  70.077  1.00  0.00    -0.327 A  
HETATM   15  C   UNL     1     -11.853  11.020  70.577  1.00  0.00    -0.464 A  
HETATM   16  C   UNL     1     -12.066  12.114  69.751  1.00  0.00    -0.306 A  
HETATM   17  C   UNL     1     -11.631  12.074  68.425  1.00  0.00    -0.311 A  
HETATM   18  C   UNL     1     -11.013  10.926  67.877  1.00  0.00    -0.325 A  
HETATM   19  C   UNL     1     -10.537  11.022  66.452  1.00  0.00    -0.308 C  
HETATM   20  C   UNL     1     -11.218  12.094  65.618  1.00  0.00    -0.381 C  
HETATM   21  C   UNL     1     -11.404  13.378  66.362  1.00  0.00    -0.313 C  
HETATM   22  N   UNL     1     -11.743  13.254  67.681  1.00  0.00    -0.348 N  
HETATM   23  O   UNL     1     -11.381  14.474  65.808  1.00  0.00    -0.328 OA 
HETATM   24  H   UNL     1     -12.106  14.080  68.157  1.00  0.00     0.000 HD 
ENDBRANCH  12  13
ENDBRANCH  11  12
ENDBRANCH   8  11
ENDBRANCH   7   8
ENDBRANCH   5   7
TORSDOF 5
ENDMDL
MODEL      127
REMARK 921   NORMALIZED FREE ENERGY PREDICTED BY IDOCK:   -4.67 KCAL/MOL
REMARK 922        TOTAL FREE ENERGY PREDICTED BY IDOCK:   -6.66 KCAL/MOL
REMARK 923 INTER-LIGAND FREE ENERGY PREDICTED BY IDOCK:   -5.89 KCAL/MOL
REMARK 924 INTRA-LIGAND FREE ENERGY PREDICTED BY IDOCK:   -0.77 KCAL/MOL
REMARK 927      BINDING AFFINITY PREDICTED BY RF-SCORE:    0.00 PKD
ROOT
HETATM    1  C   UNL     1     -11.144  11.135  67.211  1.00  0.00    -0.366 C  
HETATM    2  C   UNL     1     -10.318  10.895  68.487  1.00  0.00    -0.187 C  
HETATM    3  C   UNL     1      -8.938  11.552  68.299  1.00  0.00    -0.177 C  
HETATM    4  C   UNL     1     -10.104   9.384  68.695  1.00  0.00    -0.208 C  
HETATM    5  N   UNL     1     -10.937  11.514  69.677  1.00  0.00    -0.449 NA 
HETATM    6  H   UNL     1     -10.917  12.531  69.599  1.00  0.00     0.000 HD 
ENDROOT
BRANCH   5   7
HETATM    7  C   UNL     1     -12.298  11.051  69.965  1.00  0.00    -0.305 C  
BRANCH   7   8
HETATM    8  C   UNL     1     -12.514  10.717  71.457  1.00  0.00    -0.366 C  
HETATM    9  H   UNL     1     -13.451  11.514  73.002  1.00  0.00     0.000 HD 
HETATM   10  O   UNL     1     -13.319  11.720  72.084  1.00  0.00    -0.497 OA 
BRANCH   8  11
HETATM   11  C   UNL     1     -13.186   9.335  71.562  1.00  0.00    -0.367 C  
BRANCH  11  12
HETATM   12  O   UNL     1     -12.463   8.505  72.473  1.00  0.00    -0.383 OA 
BRANCH  12  13
HETATM   13  C   UNL     1     -11.724   7.452  71.994  1.00  0.00    -0.289 A  
HETATM   14  C   UNL     1     -12.145   7.066  70.707  1.00  0.00    -0.374 A  
HETATM   15  C   UNL     1     -11.464   6.093  69.975  1.00  0.00    -0.369 A  
HETATM   16  C   UNL     1     -10.314   5.525  70.503  1.00  0.00    -0.342 A  
HETATM   17  C   UNL     1      -9.867   5.915  71.766  1.00  0.00    -0.163 A  
HETATM   18  C   UNL     1     -10.580   6.847  72.555  1.00  0.00    -0.251 A  
HETATM   19  C   UNL     1      -9.970   7.230  73.877  1.00  0.00    -0.324 C  
HETATM   20  C   UNL     1      -8.983   6.224  74.444  1.00  0.00    -0.159 C  
HETATM   21  C   UNL     1      -8.063   5.664  73.407  1.00  0.00    -0.113 C  
HETATM   22  N   UNL     1      -8.629   5.416  72.186  1.00  0.00    -0.126 N  
HETATM   23  O   UNL     1      -6.909   5.326  73.657  1.00  0.00    -0.076 OA 
HETATM   24  H   UNL     1      -8.111   4.825  71.535  1.00  0.00     0.000 HD 
ENDBRANCH  12  13
ENDBRANCH  11  12
ENDBRANCH   8  11
ENDBRANCH   7   8
ENDBRANCH   5   7
TORSDOF 5
ENDMDL
MODEL      128
REMARK 921   NORMALIZED FREE ENERGY PREDICTED BY IDOCK:   -4.65 KCAL/MOL
REMARK 922        TOTAL FREE ENERGY PREDICTED BY IDOCK:   -6.64 KCAL/MOL
REMARK 923 INTER-LIGAND FREE ENERGY PREDICTED BY IDOCK:   -6.25 KCAL/MOL
REMARK 924 INTRA-LIGAND FREE ENERGY PREDICTED BY IDOCK:   -0.39 KCAL/MOL
REMARK 927      BINDING AFFINITY PREDICTED BY RF-SCORE:    0.00 PKD
ROOT
HETATM    1  C   UNL     1     -10.033  16.889  68.081  1.00  0.00    -0.285 C  
HETATM    2  C   UNL     1      -8.812  15.988  67.824  1.00  0.00    -0.176 C  
HETATM    3  C   UNL     1      -7.943  15.979  69.095  1.00  0.00    -0.238 C  
HETATM    4  C   UNL     1      -7.968  16.566  66.673  1.00  0.00    -0.320 C  
HETATM    5  N   UNL     1      -9.199  14.589  67.550  1.00  0.00    -0.189 NA 
HETATM    6  H   UNL     1      -9.606  14.163  68.383  1.00  0.00     0.000 HD 
ENDROOT
BRANCH   5   7
HETATM    7  C   UNL     1     -10.095  14.419  66.401  1.00  0.00    -0.286 C  
BRANCH   7   8
HETATM    8  C   UNL     1     -10.870  13.084  66.437  1.00  0.00    -0.278 C  
HETATM    9  H   UNL     1     -10.969  11.434  65.357  1.00  0.00     0.000 HD 
HETATM   10  O   UNL     1     -10.492  12.255  65.334  1.00  0.00    -0.255 OA 
BRANCH   8  11
HETATM   11  C   UNL     1     -10.578  12.380  67.775  1.00  0.00    -0.217 C  
BRANCH  11  12
HETATM   12  O   UNL     1     -11.685  11.560  68.151  1.00  0.00    -0.426 OA 
BRANCH  12  13
HETATM   13  C   UNL     1     -12.241  11.698  69.398  1.00  0.00    -0.182 A  
HETATM   14  C   UNL     1     -12.415  10.452  70.030  1.00  0.00    -0.186 A  
HETATM   15  C   UNL     1     -12.858  10.355  71.349  1.00  0.00    -0.556 A  
HETATM   16  C   UNL     1     -13.085  11.513  72.078  1.00  0.00    -0.430 A  
HETATM   17  C   UNL     1     -12.892  12.758  71.476  1.00  0.00    -0.270 A  
HETATM   18  C   UNL     1     -12.513  12.880  70.119  1.00  0.00    -0.144 A  
HETATM   19  C   UNL     1     -12.282  14.274  69.598  1.00  0.00    -0.371 C  
HETATM   20  C   UNL     1     -12.971  15.375  70.385  1.00  0.00    -0.295 C  
HETATM   21  C   UNL     1     -12.879  15.178  71.864  1.00  0.00    -0.349 C  
HETATM   22  N   UNL     1     -12.998  13.886  72.297  1.00  0.00    -0.364 N  
HETATM   23  O   UNL     1     -12.828  16.115  72.656  1.00  0.00    -0.436 OA 
HETATM   24  H   UNL     1     -13.176  13.733  73.290  1.00  0.00     0.000 HD 
ENDBRANCH  12  13
ENDBRANCH  11  12
ENDBRANCH   8  11
ENDBRANCH   7   8
ENDBRANCH   5   7
TORSDOF 5
ENDMDL
MODEL      129
REMARK 921   NORMALIZED FREE ENERGY PREDICTED BY IDOCK:   -4.64 KCAL/MOL
REMARK 922        TOTAL FREE ENERGY PREDICTED BY IDOCK:   -6.63 KCAL/MOL
REMARK 923 INTER-LIGAND FREE ENERGY PREDICTED BY IDOCK:   -5.86 KCAL/MOL
REMARK 924 INTRA-LIGAND FREE ENERGY PREDICTED BY IDOCK:   -0.77 KCAL/MOL
REMARK 927      BINDING AFFINITY PREDICTED BY RF-SCORE:    0.00 PKD
ROOT
HETATM    1  C   UNL     1      -6.775   7.932  67.647  1.00  0.00    -0.068 C  
HETATM    2  C   UNL     1      -8.260   7.717  67.304  1.00  0.00    -0.119 C  
HETATM    3  C   UNL     1      -8.389   6.396  66.525  1.00  0.00    -0.115 C  
HETATM    4  C   UNL     1      -8.757   8.858  66.397  1.00  0.00    -0.148 C  
HETATM    5  N   UNL     1      -9.100   7.594  68.513  1.00  0.00    -0.132 NA 
HETATM    6  H   UNL     1      -8.872   6.738  69.018  1.00  0.00     0.000 HD 
ENDROOT
BRANCH   5   7
HETATM    7  C   UNL     1      -9.040   8.750  69.416  1.00  0.00    -0.145 C  
BRANCH   7   8
HETATM    8  C   UNL     1      -9.750   8.495  70.762  1.00  0.00    -0.183 C  
HETATM    9  H   UNL     1      -9.475   8.967  72.660  1.00  0.00     0.000 HD 
HETATM   10  O   UNL     1      -9.038   9.124  71.832  1.00  0.00    -0.354 OA 
BRANCH   8  11
HETATM   11  C   UNL     1     -11.189   9.037  70.672  1.00  0.00    -0.270 C  
BRANCH  11  12
HETATM   12  O   UNL     1     -11.370   9.750  69.448  1.00  0.00    -0.166 OA 
BRANCH  12  13
HETATM   13  C   UNL     1     -11.800  11.053  69.478  1.00  0.00    -0.333 A  
HETATM   14  C   UNL     1     -12.133  11.460  70.784  1.00  0.00    -0.433 A  
HETATM   15  C   UNL     1     -12.485  12.779  71.073  1.00  0.00    -0.369 A  
HETATM   16  C   UNL     1     -12.460  13.727  70.061  1.00  0.00    -0.301 A  
HETATM   17  C   UNL     1     -12.107  13.347  68.765  1.00  0.00    -0.246 A  
HETATM   18  C   UNL     1     -11.815  12.003  68.435  1.00  0.00    -0.360 A  
HETATM   19  C   UNL     1     -11.394  11.726  67.017  1.00  0.00    -0.387 C  
HETATM   20  C   UNL     1     -11.827  12.770  66.002  1.00  0.00    -0.495 C  
HETATM   21  C   UNL     1     -11.659  14.170  66.500  1.00  0.00    -0.375 C  
HETATM   22  N   UNL     1     -11.960  14.368  67.820  1.00  0.00    -0.532 N  
HETATM   23  O   UNL     1     -11.393  15.110  65.756  1.00  0.00    -0.324 OA 
HETATM   24  H   UNL     1     -12.086  15.329  68.137  1.00  0.00     0.000 HD 
ENDBRANCH  12  13
ENDBRANCH  11  12
ENDBRANCH   8  11
ENDBRANCH   7   8
ENDBRANCH   5   7
TORSDOF 5
ENDMDL
MODEL      130
REMARK 921   NORMALIZED FREE ENERGY PREDICTED BY IDOCK:   -4.63 KCAL/MOL
REMARK 922        TOTAL FREE ENERGY PREDICTED BY IDOCK:   -6.62 KCAL/MOL
REMARK 923 INTER-LIGAND FREE ENERGY PREDICTED BY IDOCK:   -6.19 KCAL/MOL
REMARK 924 INTRA-LIGAND FREE ENERGY PREDICTED BY IDOCK:   -0.42 KCAL/MOL
REMARK 927      BINDING AFFINITY PREDICTED BY RF-SCORE:    0.00 PKD
ROOT
HETATM    1  C   UNL     1      -9.029   5.912  70.211  1.00  0.00    -0.152 C  
HETATM    2  C   UNL     1     -10.283   6.735  69.866  1.00  0.00    -0.190 C  
HETATM    3  C   UNL     1     -11.247   6.671  71.065  1.00  0.00    -0.349 C  
HETATM    4  C   UNL     1     -10.995   6.118  68.648  1.00  0.00    -0.415 C  
HETATM    5  N   UNL     1      -9.970   8.160  69.634  1.00  0.00    -0.189 NA 
HETATM    6  H   UNL     1      -9.658   8.600  70.500  1.00  0.00     0.000 HD 
ENDROOT
BRANCH   5   7
HETATM    7  C   UNL     1      -9.000   8.402  68.560  1.00  0.00    -0.136 C  
BRANCH   7   8
HETATM    8  C   UNL     1      -9.443   9.523  67.595  1.00  0.00    -0.131 C  
HETATM    9  H   UNL     1     -11.094  10.532  67.203  1.00  0.00     0.000 HD 
HETATM   10  O   UNL     1     -10.822   9.843  67.797  1.00  0.00    -0.268 OA 
BRANCH   8  11
HETATM   11  C   UNL     1      -8.555  10.758  67.831  1.00  0.00    -0.125 C  
BRANCH  11  12
HETATM   12  O   UNL     1      -9.347  11.850  68.301  1.00  0.00    -0.186 OA 
BRANCH  12  13
HETATM   13  C   UNL     1      -9.425  13.002  67.559  1.00  0.00    -0.198 A  
HETATM   14  C   UNL     1      -8.299  13.824  67.756  1.00  0.00    -0.180 A  
HETATM   15  C   UNL     1      -8.107  14.993  67.019  1.00  0.00    -0.225 A  
HETATM   16  C   UNL     1      -9.019  15.331  66.030  1.00  0.00    -0.151 A  
HETATM   17  C   UNL     1     -10.128  14.514  65.803  1.00  0.00    -0.342 A  
HETATM   18  C   UNL     1     -10.380  13.363  66.586  1.00  0.00    -0.269 A  
HETATM   19  C   UNL     1     -11.577  12.532  66.209  1.00  0.00    -0.449 C  
HETATM   20  C   UNL     1     -12.646  13.265  65.418  1.00  0.00    -0.526 C  
HETATM   21  C   UNL     1     -12.077  14.156  64.360  1.00  0.00    -0.463 C  
HETATM   22  N   UNL     1     -10.934  14.826  64.703  1.00  0.00    -0.596 N  
HETATM   23  O   UNL     1     -12.656  14.379  63.300  1.00  0.00    -0.655 OA 
HETATM   24  H   UNL     1     -10.650  15.608  64.114  1.00  0.00     0.000 HD 
ENDBRANCH  12  13
ENDBRANCH  11  12
ENDBRANCH   8  11
ENDBRANCH   7   8
ENDBRANCH   5   7
TORSDOF 5
ENDMDL
MODEL      131
REMARK 921   NORMALIZED FREE ENERGY PREDICTED BY IDOCK:   -4.62 KCAL/MOL
REMARK 922        TOTAL FREE ENERGY PREDICTED BY IDOCK:   -6.60 KCAL/MOL
REMARK 923 INTER-LIGAND FREE ENERGY PREDICTED BY IDOCK:   -6.11 KCAL/MOL
REMARK 924 INTRA-LIGAND FREE ENERGY PREDICTED BY IDOCK:   -0.49 KCAL/MOL
REMARK 927      BINDING AFFINITY PREDICTED BY RF-SCORE:    0.00 PKD
ROOT
HETATM    1  C   UNL     1     -10.392   7.689  67.951  1.00  0.00    -0.270 C  
HETATM    2  C   UNL     1      -9.093   8.370  68.418  1.00  0.00    -0.135 C  
HETATM    3  C   UNL     1      -7.923   7.401  68.163  1.00  0.00    -0.123 C  
HETATM    4  C   UNL     1      -9.163   8.646  69.932  1.00  0.00    -0.155 C  
HETATM    5  N   UNL     1      -8.808   9.607  67.664  1.00  0.00    -0.125 NA 
HETATM    6  H   UNL     1      -8.595   9.388  66.691  1.00  0.00     0.000 HD 
ENDROOT
BRANCH   5   7
HETATM    7  C   UNL     1      -9.864  10.623  67.740  1.00  0.00    -0.165 C  
BRANCH   7   8
HETATM    8  C   UNL     1     -10.150  11.292  66.378  1.00  0.00    -0.220 C  
HETATM    9  H   UNL     1     -10.444  10.717  64.512  1.00  0.00     0.000 HD 
HETATM   10  O   UNL     1     -10.268  10.305  65.349  1.00  0.00    -0.297 OA 
BRANCH   8  11
HETATM   11  C   UNL     1     -11.446  12.116  66.495  1.00  0.00    -0.369 C  
BRANCH  11  12
HETATM   12  O   UNL     1     -11.147  13.512  66.451  1.00  0.00    -0.298 OA 
BRANCH  12  13
HETATM   13  C   UNL     1     -11.394  14.295  67.550  1.00  0.00    -0.326 A  
HETATM   14  C   UNL     1     -11.972  13.552  68.598  1.00  0.00    -0.378 A  
HETATM   15  C   UNL     1     -12.206  14.114  69.853  1.00  0.00    -0.416 A  
HETATM   16  C   UNL     1     -11.813  15.422  70.096  1.00  0.00    -0.362 A  
HETATM   17  C   UNL     1     -11.214  16.166  69.078  1.00  0.00    -0.347 A  
HETATM   18  C   UNL     1     -11.033  15.640  67.778  1.00  0.00    -0.316 A  
HETATM   19  C   UNL     1     -10.325  16.517  66.780  1.00  0.00    -0.296 C  
HETATM   20  C   UNL     1     -10.360  18.003  67.092  1.00  0.00    -0.382 C  
HETATM   21  C   UNL     1     -10.132  18.298  68.540  1.00  0.00    -0.398 C  
HETATM   22  N   UNL     1     -10.711  17.426  69.420  1.00  0.00    -0.335 N  
HETATM   23  O   UNL     1      -9.573  19.321  68.927  1.00  0.00    -0.396 OA 
HETATM   24  H   UNL     1     -10.781  17.714  70.396  1.00  0.00     0.000 HD 
ENDBRANCH  12  13
ENDBRANCH  11  12
ENDBRANCH   8  11
ENDBRANCH   7   8
ENDBRANCH   5   7
TORSDOF 5
ENDMDL
MODEL      132
REMARK 921   NORMALIZED FREE ENERGY PREDICTED BY IDOCK:   -4.62 KCAL/MOL
REMARK 922        TOTAL FREE ENERGY PREDICTED BY IDOCK:   -6.59 KCAL/MOL
REMARK 923 INTER-LIGAND FREE ENERGY PREDICTED BY IDOCK:   -5.96 KCAL/MOL
REMARK 924 INTRA-LIGAND FREE ENERGY PREDICTED BY IDOCK:   -0.63 KCAL/MOL
REMARK 927      BINDING AFFINITY PREDICTED BY RF-SCORE:    0.00 PKD
ROOT
HETATM    1  C   UNL     1     -12.036  15.763  72.301  1.00  0.00    -0.574 C  
HETATM    2  C   UNL     1     -12.883  15.053  71.231  1.00  0.00    -0.367 C  
HETATM    3  C   UNL     1     -14.368  15.212  71.607  1.00  0.00    -0.685 C  
HETATM    4  C   UNL     1     -12.553  13.548  71.216  1.00  0.00    -0.427 C  
HETATM    5  N   UNL     1     -12.706  15.650  69.892  1.00  0.00    -0.556 NA 
HETATM    6  H   UNL     1     -13.088  16.596  69.871  1.00  0.00     0.000 HD 
ENDROOT
BRANCH   5   7
HETATM    7  C   UNL     1     -11.323  15.647  69.402  1.00  0.00    -0.330 C  
BRANCH   7   8
HETATM    8  C   UNL     1     -11.221  15.959  67.894  1.00  0.00    -0.297 C  
HETATM    9  H   UNL     1      -9.951  16.865  66.682  1.00  0.00     0.000 HD 
HETATM   10  O   UNL     1     -10.014  16.674  67.610  1.00  0.00    -0.252 OA 
BRANCH   8  11
HETATM   11  C   UNL     1     -11.267  14.634  67.111  1.00  0.00    -0.344 C  
BRANCH  11  12
HETATM   12  O   UNL     1     -10.012  13.959  67.211  1.00  0.00    -0.237 OA 
BRANCH  12  13
HETATM   13  C   UNL     1      -9.975  12.654  67.633  1.00  0.00    -0.216 A  
HETATM   14  C   UNL     1     -11.237  12.215  68.076  1.00  0.00    -0.319 A  
HETATM   15  C   UNL     1     -11.464  10.888  68.443  1.00  0.00    -0.374 A  
HETATM   16  C   UNL     1     -10.437   9.963  68.321  1.00  0.00    -0.246 A  
HETATM   17  C   UNL     1      -9.187  10.375  67.858  1.00  0.00    -0.139 A  
HETATM   18  C   UNL     1      -8.914  11.727  67.548  1.00  0.00    -0.168 A  
HETATM   19  C   UNL     1      -7.545  12.040  67.005  1.00  0.00    -0.111 C  
HETATM   20  C   UNL     1      -6.473  11.017  67.338  1.00  0.00    -0.067 C  
HETATM   21  C   UNL     1      -6.952   9.607  67.205  1.00  0.00    -0.085 C  
HETATM   22  N   UNL     1      -8.235   9.377  67.620  1.00  0.00    -0.114 N  
HETATM   23  O   UNL     1      -6.214   8.686  66.867  1.00  0.00    -0.057 OA 
HETATM   24  H   UNL     1      -8.518   8.408  67.767  1.00  0.00     0.000 HD 
ENDBRANCH  12  13
ENDBRANCH  11  12
ENDBRANCH   8  11
ENDBRANCH   7   8
ENDBRANCH   5   7
TORSDOF 5
ENDMDL
MODEL      133
REMARK 921   NORMALIZED FREE ENERGY PREDICTED BY IDOCK:   -4.61 KCAL/MOL
REMARK 922        TOTAL FREE ENERGY PREDICTED BY IDOCK:   -6.59 KCAL/MOL
REMARK 923 INTER-LIGAND FREE ENERGY PREDICTED BY IDOCK:   -6.01 KCAL/MOL
REMARK 924 INTRA-LIGAND FREE ENERGY PREDICTED BY IDOCK:   -0.58 KCAL/MOL
REMARK 927      BINDING AFFINITY PREDICTED BY RF-SCORE:    0.00 PKD
ROOT
HETATM    1  C   UNL     1     -12.051  14.905  72.964  1.00  0.00    -0.369 C  
HETATM    2  C   UNL     1     -12.895  14.751  71.686  1.00  0.00    -0.332 C  
HETATM    3  C   UNL     1     -12.326  15.698  70.615  1.00  0.00    -0.457 C  
HETATM    4  C   UNL     1     -14.351  15.168  71.968  1.00  0.00    -0.682 C  
HETATM    5  N   UNL     1     -12.831  13.381  71.137  1.00  0.00    -0.320 NA 
HETATM    6  H   UNL     1     -11.891  13.179  70.796  1.00  0.00     0.000 HD 
ENDROOT
BRANCH   5   7
HETATM    7  C   UNL     1     -13.274  12.333  72.062  1.00  0.00    -0.403 C  
BRANCH   7   8
HETATM    8  C   UNL     1     -12.830  10.920  71.624  1.00  0.00    -0.449 C  
HETATM    9  H   UNL     1     -13.453   9.062  71.868  1.00  0.00     0.000 HD 
HETATM   10  O   UNL     1     -13.727   9.931  72.138  1.00  0.00    -0.359 OA 
BRANCH   8  11
HETATM   11  C   UNL     1     -12.786  10.871  70.086  1.00  0.00    -0.161 C  
BRANCH  11  12
HETATM   12  O   UNL     1     -11.431  10.848  69.633  1.00  0.00    -0.251 OA 
BRANCH  12  13
HETATM   13  C   UNL     1     -10.884   9.671  69.185  1.00  0.00    -0.190 A  
HETATM   14  C   UNL     1     -10.818   9.632  67.779  1.00  0.00    -0.278 A  
HETATM   15  C   UNL     1     -10.194   8.583  67.105  1.00  0.00    -0.355 A  
HETATM   16  C   UNL     1      -9.577   7.576  67.833  1.00  0.00    -0.161 A  
HETATM   17  C   UNL     1      -9.610   7.612  69.228  1.00  0.00    -0.159 A  
HETATM   18  C   UNL     1     -10.298   8.628  69.932  1.00  0.00    -0.213 A  
HETATM   19  C   UNL     1     -10.216   8.591  71.435  1.00  0.00    -0.303 C  
HETATM   20  C   UNL     1      -9.879   7.234  72.027  1.00  0.00    -0.183 C  
HETATM   21  C   UNL     1      -8.805   6.520  71.269  1.00  0.00    -0.137 C  
HETATM   22  N   UNL     1      -8.853   6.652  69.909  1.00  0.00    -0.143 N  
HETATM   23  O   UNL     1      -8.006   5.760  71.810  1.00  0.00    -0.110 OA 
HETATM   24  H   UNL     1      -8.297   6.005  69.350  1.00  0.00     0.000 HD 
ENDBRANCH  12  13
ENDBRANCH  11  12
ENDBRANCH   8  11
ENDBRANCH   7   8
ENDBRANCH   5   7
TORSDOF 5
ENDMDL
MODEL      134
REMARK 921   NORMALIZED FREE ENERGY PREDICTED BY IDOCK:   -4.61 KCAL/MOL
REMARK 922        TOTAL FREE ENERGY PREDICTED BY IDOCK:   -6.58 KCAL/MOL
REMARK 923 INTER-LIGAND FREE ENERGY PREDICTED BY IDOCK:   -5.80 KCAL/MOL
REMARK 924 INTRA-LIGAND FREE ENERGY PREDICTED BY IDOCK:   -0.78 KCAL/MOL
REMARK 927      BINDING AFFINITY PREDICTED BY RF-SCORE:    0.00 PKD
ROOT
HETATM    1  C   UNL     1      -5.663   9.729  70.459  1.00  0.00    -0.057 C  
HETATM    2  C   UNL     1      -6.208  10.367  69.168  1.00  0.00    -0.041 C  
HETATM    3  C   UNL     1      -5.276   9.978  68.007  1.00  0.00    -0.035 C  
HETATM    4  C   UNL     1      -6.195  11.902  69.298  1.00  0.00    -0.094 C  
HETATM    5  N   UNL     1      -7.558   9.873  68.828  1.00  0.00    -0.079 NA 
HETATM    6  H   UNL     1      -7.522   8.885  68.578  1.00  0.00     0.000 HD 
ENDROOT
BRANCH   5   7
HETATM    7  C   UNL     1      -8.569  10.100  69.867  1.00  0.00    -0.072 C  
BRANCH   7   8
HETATM    8  C   UNL     1      -9.996  10.240  69.295  1.00  0.00    -0.227 C  
HETATM    9  H   UNL     1     -11.848  10.117  69.969  1.00  0.00     0.000 HD 
HETATM   10  O   UNL     1     -10.970  10.031  70.321  1.00  0.00    -0.271 OA 
BRANCH   8  11
HETATM   11  C   UNL     1     -10.145  11.643  68.678  1.00  0.00    -0.198 C  
BRANCH  11  12
HETATM   12  O   UNL     1      -9.224  11.806  67.599  1.00  0.00    -0.172 OA 
BRANCH  12  13
HETATM   13  C   UNL     1      -9.696  11.973  66.322  1.00  0.00    -0.235 A  
HETATM   14  C   UNL     1      -9.807  10.743  65.645  1.00  0.00    -0.299 A  
HETATM   15  C   UNL     1     -10.373  10.656  64.373  1.00  0.00    -0.347 A  
HETATM   16  C   UNL     1     -10.887  11.798  63.777  1.00  0.00    -0.490 A  
HETATM   17  C   UNL     1     -10.809  13.022  64.444  1.00  0.00    -0.388 A  
HETATM   18  C   UNL     1     -10.176  13.146  65.702  1.00  0.00    -0.294 A  
HETATM   19  C   UNL     1     -10.203  14.506  66.348  1.00  0.00    -0.293 C  
HETATM   20  C   UNL     1     -10.417  15.667  65.391  1.00  0.00    -0.435 C  
HETATM   21  C   UNL     1     -11.459  15.383  64.357  1.00  0.00    -0.255 C  
HETATM   22  N   UNL     1     -11.468  14.109  63.859  1.00  0.00    -0.573 N  
HETATM   23  O   UNL     1     -12.179  16.259  63.886  1.00  0.00    -0.945 OA 
HETATM   24  H   UNL     1     -11.992  13.940  63.001  1.00  0.00     0.000 HD 
ENDBRANCH  12  13
ENDBRANCH  11  12
ENDBRANCH   8  11
ENDBRANCH   7   8
ENDBRANCH   5   7
TORSDOF 5
ENDMDL
MODEL      135
REMARK 921   NORMALIZED FREE ENERGY PREDICTED BY IDOCK:   -4.61 KCAL/MOL
REMARK 922        TOTAL FREE ENERGY PREDICTED BY IDOCK:   -6.58 KCAL/MOL
REMARK 923 INTER-LIGAND FREE ENERGY PREDICTED BY IDOCK:   -5.70 KCAL/MOL
REMARK 924 INTRA-LIGAND FREE ENERGY PREDICTED BY IDOCK:   -0.88 KCAL/MOL
REMARK 927      BINDING AFFINITY PREDICTED BY RF-SCORE:    0.00 PKD
ROOT
HETATM    1  C   UNL     1      -6.917   7.635  65.971  1.00  0.00    -0.065 C  
HETATM    2  C   UNL     1      -7.317   8.747  66.957  1.00  0.00    -0.080 C  
HETATM    3  C   UNL     1      -6.073   9.132  67.779  1.00  0.00    -0.050 C  
HETATM    4  C   UNL     1      -8.389   8.221  67.930  1.00  0.00    -0.128 C  
HETATM    5  N   UNL     1      -7.778   9.967  66.265  1.00  0.00    -0.102 NA 
HETATM    6  H   UNL     1      -7.006  10.401  65.757  1.00  0.00     0.000 HD 
ENDROOT
BRANCH   5   7
HETATM    7  C   UNL     1      -8.925   9.765  65.373  1.00  0.00    -0.190 C  
BRANCH   7   8
HETATM    8  C   UNL     1      -9.765  11.045  65.177  1.00  0.00    -0.254 C  
HETATM    9  H   UNL     1     -10.993  11.781  63.816  1.00  0.00     0.000 HD 
HETATM   10  O   UNL     1     -10.476  10.993  63.936  1.00  0.00    -0.357 OA 
BRANCH   8  11
HETATM   11  C   UNL     1     -10.741  11.182  66.360  1.00  0.00    -0.247 C  
BRANCH  11  12
HETATM   12  O   UNL     1     -10.038  11.600  67.531  1.00  0.00    -0.188 OA 
BRANCH  12  13
HETATM   13  C   UNL     1     -10.739  12.068  68.614  1.00  0.00    -0.236 A  
HETATM   14  C   UNL     1     -10.982  13.452  68.516  1.00  0.00    -0.292 A  
HETATM   15  C   UNL     1     -11.776  14.124  69.446  1.00  0.00    -0.361 A  
HETATM   16  C   UNL     1     -12.385  13.406  70.465  1.00  0.00    -0.401 A  
HETATM   17  C   UNL     1     -12.177  12.030  70.562  1.00  0.00    -0.325 A  
HETATM   18  C   UNL     1     -11.320  11.340  69.674  1.00  0.00    -0.359 A  
HETATM   19  C   UNL     1     -11.219   9.847  69.844  1.00  0.00    -0.298 C  
HETATM   20  C   UNL     1     -11.600   9.331  71.220  1.00  0.00    -0.419 C  
HETATM   21  C   UNL     1     -12.819   9.998  71.774  1.00  0.00    -0.446 C  
HETATM   22  N   UNL     1     -12.927  11.337  71.520  1.00  0.00    -0.445 N  
HETATM   23  O   UNL     1     -13.609   9.422  72.516  1.00  0.00    -0.459 OA 
HETATM   24  H   UNL     1     -13.603  11.870  72.067  1.00  0.00     0.000 HD 
ENDBRANCH  12  13
ENDBRANCH  11  12
ENDBRANCH   8  11
ENDBRANCH   7   8
ENDBRANCH   5   7
TORSDOF 5
ENDMDL
MODEL      136
REMARK 921   NORMALIZED FREE ENERGY PREDICTED BY IDOCK:   -4.60 KCAL/MOL
REMARK 922        TOTAL FREE ENERGY PREDICTED BY IDOCK:   -6.57 KCAL/MOL
REMARK 923 INTER-LIGAND FREE ENERGY PREDICTED BY IDOCK:   -5.84 KCAL/MOL
REMARK 924 INTRA-LIGAND FREE ENERGY PREDICTED BY IDOCK:   -0.73 KCAL/MOL
REMARK 927      BINDING AFFINITY PREDICTED BY RF-SCORE:    0.00 PKD
ROOT
HETATM    1  C   UNL     1      -9.826   8.792  66.092  1.00  0.00    -0.297 C  
HETATM    2  C   UNL     1      -8.673   9.540  65.400  1.00  0.00    -0.164 C  
HETATM    3  C   UNL     1      -9.225  10.206  64.126  1.00  0.00    -0.314 C  
HETATM    4  C   UNL     1      -7.578   8.541  64.980  1.00  0.00    -0.093 C  
HETATM    5  N   UNL     1      -8.116  10.614  66.247  1.00  0.00    -0.146 NA 
HETATM    6  H   UNL     1      -8.804  11.357  66.377  1.00  0.00     0.000 HD 
ENDROOT
BRANCH   5   7
HETATM    7  C   UNL     1      -7.603  10.162  67.545  1.00  0.00    -0.091 C  
BRANCH   7   8
HETATM    8  C   UNL     1      -7.792  11.210  68.663  1.00  0.00    -0.138 C  
HETATM    9  H   UNL     1      -6.918  11.686  70.368  1.00  0.00     0.000 HD 
HETATM   10  O   UNL     1      -6.801  11.041  69.681  1.00  0.00    -0.120 OA 
BRANCH   8  11
HETATM   11  C   UNL     1      -7.702  12.616  68.041  1.00  0.00    -0.139 C  
BRANCH  11  12
HETATM   12  O   UNL     1      -8.779  13.430  68.508  1.00  0.00    -0.157 OA 
BRANCH  12  13
HETATM   13  C   UNL     1      -9.413  14.282  67.640  1.00  0.00    -0.211 A  
HETATM   14  C   UNL     1      -8.960  15.607  67.789  1.00  0.00    -0.176 A  
HETATM   15  C   UNL     1      -9.381  16.626  66.935  1.00  0.00    -0.246 A  
HETATM   16  C   UNL     1     -10.227  16.322  65.878  1.00  0.00    -0.384 A  
HETATM   17  C   UNL     1     -10.665  15.009  65.698  1.00  0.00    -0.354 A  
HETATM   18  C   UNL     1     -10.309  13.974  66.594  1.00  0.00    -0.278 A  
HETATM   19  C   UNL     1     -10.798  12.589  66.265  1.00  0.00    -0.299 C  
HETATM   20  C   UNL     1     -12.011  12.535  65.354  1.00  0.00    -0.492 C  
HETATM   21  C   UNL     1     -11.936  13.516  64.227  1.00  0.00    -0.432 C  
HETATM   22  N   UNL     1     -11.398  14.735  64.538  1.00  0.00    -0.611 N  
HETATM   23  O   UNL     1     -12.435  13.300  63.126  1.00  0.00    -0.696 OA 
HETATM   24  H   UNL     1     -11.542  15.498  63.878  1.00  0.00     0.000 HD 
ENDBRANCH  12  13
ENDBRANCH  11  12
ENDBRANCH   8  11
ENDBRANCH   7   8
ENDBRANCH   5   7
TORSDOF 5
ENDMDL
MODEL      137
REMARK 921   NORMALIZED FREE ENERGY PREDICTED BY IDOCK:   -4.59 KCAL/MOL
REMARK 922        TOTAL FREE ENERGY PREDICTED BY IDOCK:   -6.56 KCAL/MOL
REMARK 923 INTER-LIGAND FREE ENERGY PREDICTED BY IDOCK:   -5.87 KCAL/MOL
REMARK 924 INTRA-LIGAND FREE ENERGY PREDICTED BY IDOCK:   -0.69 KCAL/MOL
REMARK 927      BINDING AFFINITY PREDICTED BY RF-SCORE:    0.00 PKD
ROOT
HETATM    1  C   UNL     1     -11.768  12.386  66.177  1.00  0.00    -0.460 C  
HETATM    2  C   UNL     1     -10.415  12.113  65.495  1.00  0.00    -0.265 C  
HETATM    3  C   UNL     1     -10.539  12.498  64.009  1.00  0.00    -0.451 C  
HETATM    4  C   UNL     1     -10.085  10.611  65.573  1.00  0.00    -0.343 C  
HETATM    5  N   UNL     1      -9.326  12.929  66.067  1.00  0.00    -0.453 NA 
HETATM    6  H   UNL     1      -9.473  13.916  65.858  1.00  0.00     0.000 HD 
ENDROOT
BRANCH   5   7
HETATM    7  C   UNL     1      -9.115  12.738  67.507  1.00  0.00    -0.193 C  
BRANCH   7   8
HETATM    8  C   UNL     1      -7.681  13.093  67.954  1.00  0.00    -0.147 C  
HETATM    9  H   UNL     1      -5.845  12.857  67.265  1.00  0.00     0.000 HD 
HETATM   10  O   UNL     1      -6.727  12.639  66.989  1.00  0.00    -0.084 OA 
BRANCH   8  11
HETATM   11  C   UNL     1      -7.584  14.618  68.141  1.00  0.00    -0.122 C  
BRANCH  11  12
HETATM   12  O   UNL     1      -8.384  15.285  67.163  1.00  0.00    -0.183 OA 
BRANCH  12  13
HETATM   13  C   UNL     1      -8.764  16.587  67.369  1.00  0.00    -0.182 A  
HETATM   14  C   UNL     1      -9.861  16.675  68.248  1.00  0.00    -0.253 A  
HETATM   15  C   UNL     1     -10.347  17.904  68.693  1.00  0.00    -0.342 A  
HETATM   16  C   UNL     1      -9.705  19.071  68.303  1.00  0.00    -0.419 A  
HETATM   17  C   UNL     1      -8.601  19.002  67.453  1.00  0.00    -0.278 A  
HETATM   18  C   UNL     1      -8.135  17.772  66.933  1.00  0.00    -0.251 A  
HETATM   19  C   UNL     1      -6.901  17.820  66.071  1.00  0.00    -0.327 C  
HETATM   20  C   UNL     1      -6.614  19.168  65.434  1.00  0.00    -0.303 C  
HETATM   21  C   UNL     1      -6.834  20.312  66.372  1.00  0.00    -0.237 C  
HETATM   22  N   UNL     1      -7.909  20.194  67.208  1.00  0.00    -0.301 N  
HETATM   23  O   UNL     1      -6.177  21.349  66.317  1.00  0.00    -0.278 OA 
HETATM   24  H   UNL     1      -8.231  21.035  67.688  1.00  0.00     0.000 HD 
ENDBRANCH  12  13
ENDBRANCH  11  12
ENDBRANCH   8  11
ENDBRANCH   7   8
ENDBRANCH   5   7
TORSDOF 5
ENDMDL
MODEL      138
REMARK 921   NORMALIZED FREE ENERGY PREDICTED BY IDOCK:   -4.58 KCAL/MOL
REMARK 922        TOTAL FREE ENERGY PREDICTED BY IDOCK:   -6.55 KCAL/MOL
REMARK 923 INTER-LIGAND FREE ENERGY PREDICTED BY IDOCK:   -6.09 KCAL/MOL
REMARK 924 INTRA-LIGAND FREE ENERGY PREDICTED BY IDOCK:   -0.46 KCAL/MOL
REMARK 927      BINDING AFFINITY PREDICTED BY RF-SCORE:    0.00 PKD
ROOT
HETATM    1  C   UNL     1      -5.859  18.633  67.143  1.00  0.00    -0.158 C  
HETATM    2  C   UNL     1      -6.510  19.181  68.425  1.00  0.00    -0.238 C  
HETATM    3  C   UNL     1      -6.147  20.672  68.551  1.00  0.00    -0.372 C  
HETATM    4  C   UNL     1      -5.944  18.446  69.654  1.00  0.00    -0.261 C  
HETATM    5  N   UNL     1      -7.984  19.093  68.384  1.00  0.00    -0.327 NA 
HETATM    6  H   UNL     1      -8.357  19.720  67.671  1.00  0.00     0.000 HD 
ENDROOT
BRANCH   5   7
HETATM    7  C   UNL     1      -8.507  17.736  68.194  1.00  0.00    -0.262 C  
BRANCH   7   8
HETATM    8  C   UNL     1     -10.041  17.658  68.351  1.00  0.00    -0.368 C  
HETATM    9  H   UNL     1     -11.612  17.455  67.171  1.00  0.00     0.000 HD 
HETATM   10  O   UNL     1     -10.668  17.503  67.074  1.00  0.00    -0.276 OA 
BRANCH   8  11
HETATM   11  C   UNL     1     -10.384  16.475  69.275  1.00  0.00    -0.318 C  
BRANCH  11  12
HETATM   12  O   UNL     1     -11.524  15.774  68.775  1.00  0.00    -0.347 OA 
BRANCH  12  13
HETATM   13  C   UNL     1     -11.527  14.402  68.763  1.00  0.00    -0.289 A  
HETATM   14  C   UNL     1     -12.154  13.875  69.908  1.00  0.00    -0.406 A  
HETATM   15  C   UNL     1     -12.375  12.506  70.058  1.00  0.00    -0.154 A  
HETATM   16  C   UNL     1     -12.017  11.643  69.033  1.00  0.00    -0.368 A  
HETATM   17  C   UNL     1     -11.418  12.150  67.879  1.00  0.00    -0.328 A  
HETATM   18  C   UNL     1     -11.119  13.525  67.736  1.00  0.00    -0.291 A  
HETATM   19  C   UNL     1     -10.523  13.961  66.424  1.00  0.00    -0.284 C  
HETATM   20  C   UNL     1      -9.835  12.861  65.634  1.00  0.00    -0.185 C  
HETATM   21  C   UNL     1     -10.599  11.575  65.641  1.00  0.00    -0.274 C  
HETATM   22  N   UNL     1     -11.208  11.256  66.823  1.00  0.00    -0.258 N  
HETATM   23  O   UNL     1     -10.582  10.790  64.697  1.00  0.00    -0.328 OA 
HETATM   24  H   UNL     1     -11.533  10.296  66.944  1.00  0.00     0.000 HD 
ENDBRANCH  12  13
ENDBRANCH  11  12
ENDBRANCH   8  11
ENDBRANCH   7   8
ENDBRANCH   5   7
TORSDOF 5
ENDMDL
MODEL      139
REMARK 921   NORMALIZED FREE ENERGY PREDICTED BY IDOCK:   -4.57 KCAL/MOL
REMARK 922        TOTAL FREE ENERGY PREDICTED BY IDOCK:   -6.54 KCAL/MOL
REMARK 923 INTER-LIGAND FREE ENERGY PREDICTED BY IDOCK:   -5.84 KCAL/MOL
REMARK 924 INTRA-LIGAND FREE ENERGY PREDICTED BY IDOCK:   -0.70 KCAL/MOL
REMARK 927      BINDING AFFINITY PREDICTED BY RF-SCORE:    0.00 PKD
ROOT
HETATM    1  C   UNL     1     -10.346  13.154  64.419  1.00  0.00    -0.390 C  
HETATM    2  C   UNL     1     -11.876  13.201  64.575  1.00  0.00    -0.377 C  
HETATM    3  C   UNL     1     -12.500  12.306  63.489  1.00  0.00    -0.642 C  
HETATM    4  C   UNL     1     -12.380  14.640  64.356  1.00  0.00    -0.420 C  
HETATM    5  N   UNL     1     -12.321  12.676  65.882  1.00  0.00    -0.595 NA 
HETATM    6  H   UNL     1     -12.132  11.675  65.945  1.00  0.00     0.000 HD 
ENDROOT
BRANCH   5   7
HETATM    7  C   UNL     1     -11.758  13.375  67.042  1.00  0.00    -0.381 C  
BRANCH   7   8
HETATM    8  C   UNL     1     -11.313  12.413  68.165  1.00  0.00    -0.291 C  
HETATM    9  H   UNL     1     -11.753  10.585  68.768  1.00  0.00     0.000 HD 
HETATM   10  O   UNL     1     -12.027  11.176  68.077  1.00  0.00    -0.625 OA 
BRANCH   8  11
HETATM   11  C   UNL     1      -9.796  12.178  68.042  1.00  0.00    -0.202 C  
BRANCH  11  12
HETATM   12  O   UNL     1      -9.537  11.104  67.137  1.00  0.00    -0.171 OA 
BRANCH  12  13
HETATM   13  C   UNL     1      -8.777  10.038  67.547  1.00  0.00    -0.125 A  
HETATM   14  C   UNL     1      -7.503  10.447  67.985  1.00  0.00    -0.090 A  
HETATM   15  C   UNL     1      -6.600   9.549  68.554  1.00  0.00    -0.053 A  
HETATM   16  C   UNL     1      -6.982   8.228  68.743  1.00  0.00    -0.067 A  
HETATM   17  C   UNL     1      -8.250   7.810  68.339  1.00  0.00    -0.124 A  
HETATM   18  C   UNL     1      -9.155   8.687  67.695  1.00  0.00    -0.145 A  
HETATM   19  C   UNL     1     -10.514   8.135  67.356  1.00  0.00    -0.356 C  
HETATM   20  C   UNL     1     -10.586   6.622  67.250  1.00  0.00    -0.387 C  
HETATM   21  C   UNL     1      -9.820   5.927  68.331  1.00  0.00    -0.134 C  
HETATM   22  N   UNL     1      -8.632   6.508  68.681  1.00  0.00    -0.124 N  
HETATM   23  O   UNL     1     -10.160   4.840  68.790  1.00  0.00    -0.142 OA 
HETATM   24  H   UNL     1      -7.977   5.953  69.232  1.00  0.00     0.000 HD 
ENDBRANCH  12  13
ENDBRANCH  11  12
ENDBRANCH   8  11
ENDBRANCH   7   8
ENDBRANCH   5   7
TORSDOF 5
ENDMDL
MODEL      140
REMARK 921   NORMALIZED FREE ENERGY PREDICTED BY IDOCK:   -4.56 KCAL/MOL
REMARK 922        TOTAL FREE ENERGY PREDICTED BY IDOCK:   -6.52 KCAL/MOL
REMARK 923 INTER-LIGAND FREE ENERGY PREDICTED BY IDOCK:   -5.90 KCAL/MOL
REMARK 924 INTRA-LIGAND FREE ENERGY PREDICTED BY IDOCK:   -0.62 KCAL/MOL
REMARK 927      BINDING AFFINITY PREDICTED BY RF-SCORE:    0.00 PKD
ROOT
HETATM    1  C   UNL     1     -11.543  11.812  63.474  1.00  0.00    -0.487 C  
HETATM    2  C   UNL     1     -11.211  12.589  64.760  1.00  0.00    -0.306 C  
HETATM    3  C   UNL     1     -12.530  13.098  65.370  1.00  0.00    -0.535 C  
HETATM    4  C   UNL     1     -10.338  13.812  64.421  1.00  0.00    -0.168 C  
HETATM    5  N   UNL     1     -10.561  11.737  65.775  1.00  0.00    -0.259 NA 
HETATM    6  H   UNL     1     -11.213  11.030  66.116  1.00  0.00     0.000 HD 
ENDROOT
BRANCH   5   7
HETATM    7  C   UNL     1      -9.313  11.106  65.332  1.00  0.00    -0.219 C  
BRANCH   7   8
HETATM    8  C   UNL     1      -9.319   9.573  65.512  1.00  0.00    -0.255 C  
HETATM    9  H   UNL     1      -8.157   8.051  65.030  1.00  0.00     0.000 HD 
HETATM   10  O   UNL     1      -8.153   8.994  64.919  1.00  0.00    -0.121 OA 
BRANCH   8  11
HETATM   11  C   UNL     1      -9.382   9.253  67.017  1.00  0.00    -0.144 C  
BRANCH  11  12
HETATM   12  O   UNL     1     -10.731   9.331  67.480  1.00  0.00    -0.277 OA 
BRANCH  12  13
HETATM   13  C   UNL     1     -10.983   9.675  68.785  1.00  0.00    -0.117 A  
HETATM   14  C   UNL     1     -11.644  10.916  68.875  1.00  0.00    -0.378 A  
HETATM   15  C   UNL     1     -12.103  11.414  70.094  1.00  0.00    -0.439 A  
HETATM   16  C   UNL     1     -11.953  10.649  71.242  1.00  0.00    -0.344 A  
HETATM   17  C   UNL     1     -11.324   9.406  71.167  1.00  0.00    -0.351 A  
HETATM   18  C   UNL     1     -10.787   8.912  69.955  1.00  0.00    -0.219 A  
HETATM   19  C   UNL     1     -10.182   7.534  69.988  1.00  0.00    -0.215 C  
HETATM   20  C   UNL     1      -9.741   7.059  71.362  1.00  0.00    -0.169 C  
HETATM   21  C   UNL     1     -10.724   7.396  72.437  1.00  0.00    -0.253 C  
HETATM   22  N   UNL     1     -11.328   8.619  72.324  1.00  0.00    -0.363 N  
HETATM   23  O   UNL     1     -10.893   6.689  73.426  1.00  0.00    -0.279 OA 
HETATM   24  H   UNL     1     -11.816   8.983  73.142  1.00  0.00     0.000 HD 
ENDBRANCH  12  13
ENDBRANCH  11  12
ENDBRANCH   8  11
ENDBRANCH   7   8
ENDBRANCH   5   7
TORSDOF 5
ENDMDL
MODEL      141
REMARK 921   NORMALIZED FREE ENERGY PREDICTED BY IDOCK:   -4.54 KCAL/MOL
REMARK 922        TOTAL FREE ENERGY PREDICTED BY IDOCK:   -6.50 KCAL/MOL
REMARK 923 INTER-LIGAND FREE ENERGY PREDICTED BY IDOCK:   -6.29 KCAL/MOL
REMARK 924 INTRA-LIGAND FREE ENERGY PREDICTED BY IDOCK:   -0.21 KCAL/MOL
REMARK 927      BINDING AFFINITY PREDICTED BY RF-SCORE:    0.00 PKD
ROOT
HETATM    1  C   UNL     1     -10.044  13.349  64.933  1.00  0.00    -0.256 C  
HETATM    2  C   UNL     1     -11.183  14.382  65.005  1.00  0.00    -0.375 C  
HETATM    3  C   UNL     1     -12.012  14.276  63.712  1.00  0.00    -0.077 C  
HETATM    4  C   UNL     1     -10.595  15.803  65.080  1.00  0.00    -0.436 C  
HETATM    5  N   UNL     1     -12.099  14.124  66.134  1.00  0.00    -0.424 NA 
HETATM    6  H   UNL     1     -12.611  13.254  65.985  1.00  0.00     0.000 HD 
ENDROOT
BRANCH   5   7
HETATM    7  C   UNL     1     -11.455  14.117  67.452  1.00  0.00    -0.345 C  
BRANCH   7   8
HETATM    8  C   UNL     1     -11.632  12.778  68.199  1.00  0.00    -0.336 C  
HETATM    9  H   UNL     1     -12.136  10.922  67.752  1.00  0.00     0.000 HD 
HETATM   10  O   UNL     1     -12.027  11.746  67.291  1.00  0.00    -0.618 OA 
BRANCH   8  11
HETATM   11  C   UNL     1     -10.305  12.419  68.892  1.00  0.00    -0.049 C  
BRANCH  11  12
HETATM   12  O   UNL     1     -10.000  11.039  68.684  1.00  0.00    -0.185 OA 
BRANCH  12  13
HETATM   13  C   UNL     1     -10.075  10.161  69.736  1.00  0.00    -0.231 A  
HETATM   14  C   UNL     1      -8.801   9.705  70.124  1.00  0.00    -0.266 A  
HETATM   15  C   UNL     1      -8.622   8.893  71.244  1.00  0.00    -0.259 A  
HETATM   16  C   UNL     1      -9.719   8.566  72.029  1.00  0.00    -0.377 A  
HETATM   17  C   UNL     1     -10.986   9.031  71.675  1.00  0.00    -0.365 A  
HETATM   18  C   UNL     1     -11.200   9.795  70.504  1.00  0.00    -0.381 A  
HETATM   19  C   UNL     1     -12.602  10.286  70.257  1.00  0.00    -0.212 C  
HETATM   20  C   UNL     1     -13.692   9.497  70.962  1.00  0.00    -0.083 C  
HETATM   21  C   UNL     1     -13.334   9.140  72.369  1.00  0.00    -0.463 C  
HETATM   22  N   UNL     1     -12.028   8.790  72.577  1.00  0.00    -0.304 N  
HETATM   23  O   UNL     1     -14.173   9.040  73.261  1.00  0.00    -0.244 OA 
HETATM   24  H   UNL     1     -11.797   8.320  73.453  1.00  0.00     0.000 HD 
ENDBRANCH  12  13
ENDBRANCH  11  12
ENDBRANCH   8  11
ENDBRANCH   7   8
ENDBRANCH   5   7
TORSDOF 5
ENDMDL
MODEL      142
REMARK 921   NORMALIZED FREE ENERGY PREDICTED BY IDOCK:   -4.53 KCAL/MOL
REMARK 922        TOTAL FREE ENERGY PREDICTED BY IDOCK:   -6.48 KCAL/MOL
REMARK 923 INTER-LIGAND FREE ENERGY PREDICTED BY IDOCK:   -5.95 KCAL/MOL
REMARK 924 INTRA-LIGAND FREE ENERGY PREDICTED BY IDOCK:   -0.53 KCAL/MOL
REMARK 927      BINDING AFFINITY PREDICTED BY RF-SCORE:    0.00 PKD
ROOT
HETATM    1  C   UNL     1     -11.830  15.224  72.126  1.00  0.00    -0.526 C  
HETATM    2  C   UNL     1     -13.158  14.659  71.591  1.00  0.00    -0.346 C  
HETATM    3  C   UNL     1     -14.296  15.592  72.044  1.00  0.00    -0.600 C  
HETATM    4  C   UNL     1     -13.414  13.265  72.195  1.00  0.00    -0.655 C  
HETATM    5  N   UNL     1     -13.192  14.614  70.116  1.00  0.00    -0.481 NA 
HETATM    6  H   UNL     1     -13.193  15.559  69.731  1.00  0.00     0.000 HD 
ENDROOT
BRANCH   5   7
HETATM    7  C   UNL     1     -12.121  13.817  69.506  1.00  0.00    -0.334 C  
BRANCH   7   8
HETATM    8  C   UNL     1     -11.299  14.611  68.469  1.00  0.00    -0.284 C  
HETATM    9  H   UNL     1     -11.205  16.469  67.806  1.00  0.00     0.000 HD 
HETATM   10  O   UNL     1     -11.711  15.981  68.444  1.00  0.00    -0.346 OA 
BRANCH   8  11
HETATM   11  C   UNL     1      -9.806  14.497  68.829  1.00  0.00    -0.220 C  
BRANCH  11  12
HETATM   12  O   UNL     1      -9.012  14.499  67.642  1.00  0.00    -0.180 OA 
BRANCH  12  13
HETATM   13  C   UNL     1      -8.238  13.406  67.340  1.00  0.00    -0.183 A  
HETATM   14  C   UNL     1      -6.895  13.603  67.715  1.00  0.00    -0.175 A  
HETATM   15  C   UNL     1      -5.948  12.584  67.609  1.00  0.00    -0.136 A  
HETATM   16  C   UNL     1      -6.346  11.328  67.173  1.00  0.00    -0.096 A  
HETATM   17  C   UNL     1      -7.678  11.108  66.822  1.00  0.00    -0.153 A  
HETATM   18  C   UNL     1      -8.640  12.145  66.853  1.00  0.00    -0.191 A  
HETATM   19  C   UNL     1     -10.056  11.772  66.505  1.00  0.00    -0.232 C  
HETATM   20  C   UNL     1     -10.203  10.510  65.673  1.00  0.00    -0.315 C  
HETATM   21  C   UNL     1      -9.301   9.407  66.126  1.00  0.00    -0.205 C  
HETATM   22  N   UNL     1      -8.050   9.792  66.526  1.00  0.00    -0.116 N  
HETATM   23  O   UNL     1      -9.605   8.221  66.031  1.00  0.00    -0.180 OA 
HETATM   24  H   UNL     1      -7.338   9.067  66.615  1.00  0.00     0.000 HD 
ENDBRANCH  12  13
ENDBRANCH  11  12
ENDBRANCH   8  11
ENDBRANCH   7   8
ENDBRANCH   5   7
TORSDOF 5
ENDMDL
MODEL      143
REMARK 921   NORMALIZED FREE ENERGY PREDICTED BY IDOCK:   -4.52 KCAL/MOL
REMARK 922        TOTAL FREE ENERGY PREDICTED BY IDOCK:   -6.47 KCAL/MOL
REMARK 923 INTER-LIGAND FREE ENERGY PREDICTED BY IDOCK:   -5.61 KCAL/MOL
REMARK 924 INTRA-LIGAND FREE ENERGY PREDICTED BY IDOCK:   -0.86 KCAL/MOL
REMARK 927      BINDING AFFINITY PREDICTED BY RF-SCORE:    0.00 PKD
ROOT
HETATM    1  C   UNL     1      -7.854   8.480  71.886  1.00  0.00    -0.157 C  
HETATM    2  C   UNL     1      -7.995   7.369  72.941  1.00  0.00    -0.100 C  
HETATM    3  C   UNL     1      -8.033   8.027  74.332  1.00  0.00    -0.299 C  
HETATM    4  C   UNL     1      -6.770   6.437  72.886  1.00  0.00    -0.069 C  
HETATM    5  N   UNL     1      -9.251   6.607  72.785  1.00  0.00    -0.136 NA 
HETATM    6  H   UNL     1     -10.055   7.200  72.992  1.00  0.00     0.000 HD 
ENDROOT
BRANCH   5   7
HETATM    7  C   UNL     1      -9.415   5.965  71.476  1.00  0.00    -0.152 C  
BRANCH   7   8
HETATM    8  C   UNL     1     -10.883   5.605  71.164  1.00  0.00    -0.218 C  
HETATM    9  H   UNL     1     -12.594   5.512  72.146  1.00  0.00     0.000 HD 
HETATM   10  O   UNL     1     -11.691   5.733  72.338  1.00  0.00    -0.301 OA 
BRANCH   8  11
HETATM   11  C   UNL     1     -11.393   6.533  70.046  1.00  0.00    -0.410 C  
BRANCH  11  12
HETATM   12  O   UNL     1     -10.636   7.743  70.028  1.00  0.00    -0.230 OA 
BRANCH  12  13
HETATM   13  C   UNL     1     -11.274   8.947  70.191  1.00  0.00    -0.160 A  
HETATM   14  C   UNL     1     -12.134   8.931  71.306  1.00  0.00    -0.360 A  
HETATM   15  C   UNL     1     -12.800  10.080  71.734  1.00  0.00    -0.546 A  
HETATM   16  C   UNL     1     -12.574  11.282  71.079  1.00  0.00    -0.495 A  
HETATM   17  C   UNL     1     -11.704  11.322  69.988  1.00  0.00    -0.346 A  
HETATM   18  C   UNL     1     -11.073  10.156  69.493  1.00  0.00    -0.295 A  
HETATM   19  C   UNL     1     -10.114  10.335  68.346  1.00  0.00    -0.178 C  
HETATM   20  C   UNL     1     -10.322  11.596  67.525  1.00  0.00    -0.220 C  
HETATM   21  C   UNL     1     -10.606  12.798  68.368  1.00  0.00    -0.248 C  
HETATM   22  N   UNL     1     -11.405  12.581  69.458  1.00  0.00    -0.452 N  
HETATM   23  O   UNL     1     -10.258  13.930  68.045  1.00  0.00    -0.234 OA 
HETATM   24  H   UNL     1     -11.811  13.397  69.916  1.00  0.00     0.000 HD 
ENDBRANCH  12  13
ENDBRANCH  11  12
ENDBRANCH   8  11
ENDBRANCH   7   8
ENDBRANCH   5   7
TORSDOF 5
ENDMDL
MODEL      144
REMARK 921   NORMALIZED FREE ENERGY PREDICTED BY IDOCK:   -4.52 KCAL/MOL
REMARK 922        TOTAL FREE ENERGY PREDICTED BY IDOCK:   -6.46 KCAL/MOL
REMARK 923 INTER-LIGAND FREE ENERGY PREDICTED BY IDOCK:   -6.21 KCAL/MOL
REMARK 924 INTRA-LIGAND FREE ENERGY PREDICTED BY IDOCK:   -0.25 KCAL/MOL
REMARK 927      BINDING AFFINITY PREDICTED BY RF-SCORE:    0.00 PKD
ROOT
HETATM    1  C   UNL     1      -7.906  18.202  67.958  1.00  0.00    -0.266 C  
HETATM    2  C   UNL     1      -9.202  18.802  67.384  1.00  0.00    -0.282 C  
HETATM    3  C   UNL     1      -8.954  20.293  67.091  1.00  0.00    -0.469 C  
HETATM    4  C   UNL     1     -10.331  18.701  68.427  1.00  0.00    -0.356 C  
HETATM    5  N   UNL     1      -9.595  18.166  66.110  1.00  0.00    -0.494 NA 
HETATM    6  H   UNL     1      -8.918  18.385  65.380  1.00  0.00     0.000 HD 
ENDROOT
BRANCH   5   7
HETATM    7  C   UNL     1      -9.805  16.716  66.193  1.00  0.00    -0.318 C  
BRANCH   7   8
HETATM    8  C   UNL     1     -11.058  16.247  65.424  1.00  0.00    -0.087 C  
HETATM    9  H   UNL     1     -12.199  16.920  63.959  1.00  0.00     0.000 HD 
HETATM   10  O   UNL     1     -11.428  17.210  64.432  1.00  0.00    -1.013 OA 
BRANCH   8  11
HETATM   11  C   UNL     1     -10.759  14.883  64.776  1.00  0.00    -0.341 C  
BRANCH  11  12
HETATM   12  O   UNL     1      -9.683  14.239  65.460  1.00  0.00    -0.266 OA 
BRANCH  12  13
HETATM   13  C   UNL     1      -9.946  13.450  66.551  1.00  0.00    -0.286 A  
HETATM   14  C   UNL     1     -11.286  13.017  66.568  1.00  0.00    -0.335 A  
HETATM   15  C   UNL     1     -11.751  12.111  67.521  1.00  0.00    -0.385 A  
HETATM   16  C   UNL     1     -10.864  11.581  68.447  1.00  0.00    -0.250 A  
HETATM   17  C   UNL     1      -9.526  11.978  68.429  1.00  0.00    -0.181 A  
HETATM   18  C   UNL     1      -9.048  12.948  67.517  1.00  0.00    -0.191 A  
HETATM   19  C   UNL     1      -7.574  13.254  67.558  1.00  0.00    -0.169 C  
HETATM   20  C   UNL     1      -6.883  12.911  68.866  1.00  0.00    -0.095 C  
HETATM   21  C   UNL     1      -7.321  11.596  69.427  1.00  0.00     0.097 C  
HETATM   22  N   UNL     1      -8.650  11.307  69.289  1.00  0.00    -0.373 N  
HETATM   23  O   UNL     1      -6.574  10.874  70.082  1.00  0.00    -0.154 OA 
HETATM   24  H   UNL     1      -9.031  10.548  69.854  1.00  0.00     0.000 HD 
ENDBRANCH  12  13
ENDBRANCH  11  12
ENDBRANCH   8  11
ENDBRANCH   7   8
ENDBRANCH   5   7
TORSDOF 5
ENDMDL
MODEL      145
REMARK 921   NORMALIZED FREE ENERGY PREDICTED BY IDOCK:   -4.51 KCAL/MOL
REMARK 922        TOTAL FREE ENERGY PREDICTED BY IDOCK:   -6.46 KCAL/MOL
REMARK 923 INTER-LIGAND FREE ENERGY PREDICTED BY IDOCK:   -5.57 KCAL/MOL
REMARK 924 INTRA-LIGAND FREE ENERGY PREDICTED BY IDOCK:   -0.89 KCAL/MOL
REMARK 927      BINDING AFFINITY PREDICTED BY RF-SCORE:    0.00 PKD
ROOT
HETATM    1  C   UNL     1      -6.921   9.893  69.116  1.00  0.00    -0.057 C  
HETATM    2  C   UNL     1      -7.454   8.615  69.788  1.00  0.00    -0.060 C  
HETATM    3  C   UNL     1      -7.956   8.984  71.196  1.00  0.00    -0.169 C  
HETATM    4  C   UNL     1      -6.315   7.590  69.939  1.00  0.00    -0.027 C  
HETATM    5  N   UNL     1      -8.598   8.036  69.055  1.00  0.00    -0.136 NA 
HETATM    6  H   UNL     1      -9.406   8.657  69.108  1.00  0.00     0.000 HD 
ENDROOT
BRANCH   5   7
HETATM    7  C   UNL     1      -8.313   7.688  67.658  1.00  0.00    -0.118 C  
BRANCH   7   8
HETATM    8  C   UNL     1      -9.567   7.219  66.889  1.00  0.00    -0.174 C  
HETATM    9  H   UNL     1     -11.115   6.038  67.220  1.00  0.00     0.000 HD 
HETATM   10  O   UNL     1     -10.343   6.326  67.693  1.00  0.00    -0.148 OA 
BRANCH   8  11
HETATM   11  C   UNL     1     -10.395   8.456  66.493  1.00  0.00    -0.129 C  
BRANCH  11  12
HETATM   12  O   UNL     1      -9.811   9.636  67.046  1.00  0.00    -0.174 OA 
BRANCH  12  13
HETATM   13  C   UNL     1     -10.604  10.722  67.320  1.00  0.00    -0.257 A  
HETATM   14  C   UNL     1     -10.690  10.966  68.704  1.00  0.00    -0.238 A  
HETATM   15  C   UNL     1     -11.348  12.087  69.211  1.00  0.00    -0.330 A  
HETATM   16  C   UNL     1     -11.889  13.014  68.333  1.00  0.00    -0.370 A  
HETATM   17  C   UNL     1     -11.791  12.802  66.957  1.00  0.00    -0.361 A  
HETATM   18  C   UNL     1     -11.191  11.638  66.422  1.00  0.00    -0.349 A  
HETATM   19  C   UNL     1     -11.094  11.549  64.922  1.00  0.00    -0.282 C  
HETATM   20  C   UNL     1     -12.084  12.414  64.162  1.00  0.00    -0.539 C  
HETATM   21  C   UNL     1     -12.238  13.779  64.753  1.00  0.00    -0.406 C  
HETATM   22  N   UNL     1     -12.226  13.836  66.120  1.00  0.00    -0.448 N  
HETATM   23  O   UNL     1     -12.486  14.771  64.074  1.00  0.00    -0.803 OA 
HETATM   24  H   UNL     1     -12.559  14.693  66.561  1.00  0.00     0.000 HD 
ENDBRANCH  12  13
ENDBRANCH  11  12
ENDBRANCH   8  11
ENDBRANCH   7   8
ENDBRANCH   5   7
TORSDOF 5
ENDMDL
MODEL      146
REMARK 921   NORMALIZED FREE ENERGY PREDICTED BY IDOCK:   -4.51 KCAL/MOL
REMARK 922        TOTAL FREE ENERGY PREDICTED BY IDOCK:   -6.46 KCAL/MOL
REMARK 923 INTER-LIGAND FREE ENERGY PREDICTED BY IDOCK:   -5.25 KCAL/MOL
REMARK 924 INTRA-LIGAND FREE ENERGY PREDICTED BY IDOCK:   -1.21 KCAL/MOL
REMARK 927      BINDING AFFINITY PREDICTED BY RF-SCORE:    0.00 PKD
ROOT
HETATM    1  C   UNL     1     -10.243  13.438  64.960  1.00  0.00    -0.325 C  
HETATM    2  C   UNL     1     -11.744  13.094  64.964  1.00  0.00    -0.337 C  
HETATM    3  C   UNL     1     -12.029  12.169  63.767  1.00  0.00    -0.607 C  
HETATM    4  C   UNL     1     -12.575  14.378  64.785  1.00  0.00    -0.282 C  
HETATM    5  N   UNL     1     -12.146  12.365  66.184  1.00  0.00    -0.641 NA 
HETATM    6  H   UNL     1     -11.716  11.440  66.203  1.00  0.00     0.000 HD 
ENDROOT
BRANCH   5   7
HETATM    7  C   UNL     1     -11.876  13.079  67.437  1.00  0.00    -0.357 C  
BRANCH   7   8
HETATM    8  C   UNL     1     -11.593  12.129  68.620  1.00  0.00    -0.321 C  
HETATM    9  H   UNL     1     -12.299  10.418  69.309  1.00  0.00     0.000 HD 
HETATM   10  O   UNL     1     -12.474  11.003  68.581  1.00  0.00    -0.462 OA 
BRANCH   8  11
HETATM   11  C   UNL     1     -10.123  11.674  68.547  1.00  0.00    -0.206 C  
BRANCH  11  12
HETATM   12  O   UNL     1      -9.912  10.877  67.381  1.00  0.00    -0.180 OA 
BRANCH  12  13
HETATM   13  C   UNL     1      -8.693  10.902  66.752  1.00  0.00    -0.147 A  
HETATM   14  C   UNL     1      -7.708  11.510  67.553  1.00  0.00    -0.132 A  
HETATM   15  C   UNL     1      -6.368  11.546  67.166  1.00  0.00    -0.124 A  
HETATM   16  C   UNL     1      -5.983  10.922  65.989  1.00  0.00    -0.133 A  
HETATM   17  C   UNL     1      -6.942  10.290  65.195  1.00  0.00    -0.122 A  
HETATM   18  C   UNL     1      -8.315  10.304  65.531  1.00  0.00    -0.165 A  
HETATM   19  C   UNL     1      -9.246   9.541  64.626  1.00  0.00    -0.247 C  
HETATM   20  C   UNL     1      -8.724   9.303  63.220  1.00  0.00    -0.190 C  
HETATM   21  C   UNL     1      -7.280   8.913  63.195  1.00  0.00    -0.093 C  
HETATM   22  N   UNL     1      -6.478   9.558  64.097  1.00  0.00    -0.095 N  
HETATM   23  O   UNL     1      -6.812   8.162  62.344  1.00  0.00    -0.086 OA 
HETATM   24  H   UNL     1      -5.469   9.500  63.958  1.00  0.00     0.000 HD 
ENDBRANCH  12  13
ENDBRANCH  11  12
ENDBRANCH   8  11
ENDBRANCH   7   8
ENDBRANCH   5   7
TORSDOF 5
ENDMDL
MODEL      147
REMARK 921   NORMALIZED FREE ENERGY PREDICTED BY IDOCK:   -4.50 KCAL/MOL
REMARK 922        TOTAL FREE ENERGY PREDICTED BY IDOCK:   -6.44 KCAL/MOL
REMARK 923 INTER-LIGAND FREE ENERGY PREDICTED BY IDOCK:   -6.12 KCAL/MOL
REMARK 924 INTRA-LIGAND FREE ENERGY PREDICTED BY IDOCK:   -0.32 KCAL/MOL
REMARK 927      BINDING AFFINITY PREDICTED BY RF-SCORE:    0.00 PKD
ROOT
HETATM    1  C   UNL     1      -6.897   8.077  72.752  1.00  0.00    -0.095 C  
HETATM    2  C   UNL     1      -7.834   7.096  72.026  1.00  0.00    -0.091 C  
HETATM    3  C   UNL     1      -7.464   5.665  72.460  1.00  0.00    -0.097 C  
HETATM    4  C   UNL     1      -7.625   7.202  70.504  1.00  0.00    -0.089 C  
HETATM    5  N   UNL     1      -9.251   7.307  72.385  1.00  0.00    -0.133 NA 
HETATM    6  H   UNL     1      -9.410   7.068  73.363  1.00  0.00     0.000 HD 
ENDROOT
BRANCH   5   7
HETATM    7  C   UNL     1      -9.756   8.656  72.102  1.00  0.00    -0.313 C  
BRANCH   7   8
HETATM    8  C   UNL     1     -10.748   8.689  70.919  1.00  0.00    -0.219 C  
HETATM    9  H   UNL     1     -12.654   8.274  70.612  1.00  0.00     0.000 HD 
HETATM   10  O   UNL     1     -12.044   8.253  71.340  1.00  0.00    -0.291 OA 
BRANCH   8  11
HETATM   11  C   UNL     1     -10.807  10.124  70.364  1.00  0.00    -0.301 C  
BRANCH  11  12
HETATM   12  O   UNL     1     -12.166  10.525  70.182  1.00  0.00    -0.292 OA 
BRANCH  12  13
HETATM   13  C   UNL     1     -12.549  11.799  70.517  1.00  0.00    -0.150 A  
HETATM   14  C   UNL     1     -13.170  11.840  71.780  1.00  0.00    -0.434 A  
HETATM   15  C   UNL     1     -13.539  13.045  72.377  1.00  0.00    -0.628 A  
HETATM   16  C   UNL     1     -13.243  14.240  71.737  1.00  0.00    -0.444 A  
HETATM   17  C   UNL     1     -12.604  14.220  70.496  1.00  0.00    -0.353 A  
HETATM   18  C   UNL     1     -12.285  13.009  69.840  1.00  0.00    -0.271 A  
HETATM   19  C   UNL     1     -11.547  13.115  68.532  1.00  0.00    -0.361 C  
HETATM   20  C   UNL     1     -11.692  14.448  67.819  1.00  0.00    -0.407 C  
HETATM   21  C   UNL     1     -11.603  15.617  68.748  1.00  0.00    -0.384 C  
HETATM   22  N   UNL     1     -12.203  15.452  69.966  1.00  0.00    -0.412 N  
HETATM   23  O   UNL     1     -11.138  16.701  68.406  1.00  0.00    -0.359 OA 
HETATM   24  H   UNL     1     -12.371  16.286  70.528  1.00  0.00     0.000 HD 
ENDBRANCH  12  13
ENDBRANCH  11  12
ENDBRANCH   8  11
ENDBRANCH   7   8
ENDBRANCH   5   7
TORSDOF 5
ENDMDL
MODEL      148
REMARK 921   NORMALIZED FREE ENERGY PREDICTED BY IDOCK:   -4.49 KCAL/MOL
REMARK 922        TOTAL FREE ENERGY PREDICTED BY IDOCK:   -6.43 KCAL/MOL
REMARK 923 INTER-LIGAND FREE ENERGY PREDICTED BY IDOCK:   -5.46 KCAL/MOL
REMARK 924 INTRA-LIGAND FREE ENERGY PREDICTED BY IDOCK:   -0.98 KCAL/MOL
REMARK 927      BINDING AFFINITY PREDICTED BY RF-SCORE:    0.00 PKD
ROOT
HETATM    1  C   UNL     1     -11.949  13.224  66.015  1.00  0.00    -0.473 C  
HETATM    2  C   UNL     1     -10.785  13.231  65.009  1.00  0.00    -0.333 C  
HETATM    3  C   UNL     1     -10.411  14.696  64.714  1.00  0.00    -0.343 C  
HETATM    4  C   UNL     1     -11.231  12.577  63.688  1.00  0.00    -0.545 C  
HETATM    5  N   UNL     1      -9.577  12.574  65.548  1.00  0.00    -0.445 NA 
HETATM    6  H   UNL     1      -9.193  13.116  66.322  1.00  0.00     0.000 HD 
ENDROOT
BRANCH   5   7
HETATM    7  C   UNL     1      -9.774  11.177  65.952  1.00  0.00    -0.229 C  
BRANCH   7   8
HETATM    8  C   UNL     1      -9.793  10.993  67.484  1.00  0.00    -0.169 C  
HETATM    9  H   UNL     1      -9.504   9.525  68.774  1.00  0.00     0.000 HD 
HETATM   10  O   UNL     1      -9.492   9.638  67.831  1.00  0.00    -0.132 OA 
BRANCH   8  11
HETATM   11  C   UNL     1      -8.768  11.957  68.110  1.00  0.00    -0.173 C  
BRANCH  11  12
HETATM   12  O   UNL     1      -9.358  13.242  68.307  1.00  0.00    -0.212 OA 
BRANCH  12  13
HETATM   13  C   UNL     1      -8.561  14.359  68.333  1.00  0.00    -0.174 A  
HETATM   14  C   UNL     1      -7.218  14.045  68.049  1.00  0.00    -0.146 A  
HETATM   15  C   UNL     1      -6.248  15.038  67.908  1.00  0.00    -0.174 A  
HETATM   16  C   UNL     1      -6.620  16.371  67.996  1.00  0.00    -0.146 A  
HETATM   17  C   UNL     1      -7.952  16.702  68.250  1.00  0.00    -0.192 A  
HETATM   18  C   UNL     1      -8.938  15.712  68.468  1.00  0.00    -0.192 A  
HETATM   19  C   UNL     1     -10.350  16.191  68.678  1.00  0.00    -0.252 C  
HETATM   20  C   UNL     1     -10.477  17.628  69.153  1.00  0.00    -0.128 C  
HETATM   21  C   UNL     1      -9.541  18.557  68.448  1.00  0.00    -0.354 C  
HETATM   22  N   UNL     1      -8.295  18.057  68.188  1.00  0.00    -0.261 N  
HETATM   23  O   UNL     1      -9.817  19.733  68.228  1.00  0.00    -0.388 OA 
HETATM   24  H   UNL     1      -7.563  18.719  67.929  1.00  0.00     0.000 HD 
ENDBRANCH  12  13
ENDBRANCH  11  12
ENDBRANCH   8  11
ENDBRANCH   7   8
ENDBRANCH   5   7
TORSDOF 5
ENDMDL
MODEL      149
REMARK 921   NORMALIZED FREE ENERGY PREDICTED BY IDOCK:   -4.49 KCAL/MOL
REMARK 922        TOTAL FREE ENERGY PREDICTED BY IDOCK:   -6.43 KCAL/MOL
REMARK 923 INTER-LIGAND FREE ENERGY PREDICTED BY IDOCK:   -5.25 KCAL/MOL
REMARK 924 INTRA-LIGAND FREE ENERGY PREDICTED BY IDOCK:   -1.18 KCAL/MOL
REMARK 927      BINDING AFFINITY PREDICTED BY RF-SCORE:    0.00 PKD
ROOT
HETATM    1  C   UNL     1     -11.949  14.371  66.672  1.00  0.00    -0.414 C  
HETATM    2  C   UNL     1     -10.954  14.444  65.500  1.00  0.00    -0.329 C  
HETATM    3  C   UNL     1     -10.830  15.915  65.063  1.00  0.00    -0.444 C  
HETATM    4  C   UNL     1     -11.492  13.633  64.306  1.00  0.00    -0.393 C  
HETATM    5  N   UNL     1      -9.603  13.989  65.887  1.00  0.00    -0.496 NA 
HETATM    6  H   UNL     1      -9.188  14.636  66.558  1.00  0.00     0.000 HD 
ENDROOT
BRANCH   5   7
HETATM    7  C   UNL     1      -9.547  12.616  66.401  1.00  0.00    -0.248 C  
BRANCH   7   8
HETATM    8  C   UNL     1      -8.926  12.529  67.812  1.00  0.00    -0.184 C  
HETATM    9  H   UNL     1      -8.064  11.153  68.936  1.00  0.00     0.000 HD 
HETATM   10  O   UNL     1      -8.446  11.206  68.068  1.00  0.00    -0.126 OA 
BRANCH   8  11
HETATM   11  C   UNL     1      -7.782  13.554  67.912  1.00  0.00    -0.153 C  
BRANCH  11  12
HETATM   12  O   UNL     1      -7.965  14.385  69.059  1.00  0.00    -0.127 OA 
BRANCH  12  13
HETATM   13  C   UNL     1      -8.936  15.355  69.048  1.00  0.00    -0.230 A  
HETATM   14  C   UNL     1      -8.615  16.400  68.161  1.00  0.00    -0.193 A  
HETATM   15  C   UNL     1      -9.508  17.439  67.899  1.00  0.00    -0.265 A  
HETATM   16  C   UNL     1     -10.765  17.420  68.486  1.00  0.00    -0.279 A  
HETATM   17  C   UNL     1     -11.110  16.378  69.347  1.00  0.00    -0.300 A  
HETATM   18  C   UNL     1     -10.196  15.353  69.683  1.00  0.00    -0.283 A  
HETATM   19  C   UNL     1     -10.702  14.253  70.578  1.00  0.00     0.667 C  
HETATM   20  C   UNL     1     -11.908  14.620  71.426  1.00  0.00    -0.362 C  
HETATM   21  C   UNL     1     -12.931  15.409  70.672  1.00  0.00    -0.398 C  
HETATM   22  N   UNL     1     -12.435  16.334  69.796  1.00  0.00    -0.371 N  
HETATM   23  O   UNL     1     -14.133  15.330  70.908  1.00  0.00    -0.328 OA 
HETATM   24  H   UNL     1     -13.078  17.044  69.443  1.00  0.00     0.000 HD 
ENDBRANCH  12  13
ENDBRANCH  11  12
ENDBRANCH   8  11
ENDBRANCH   7   8
ENDBRANCH   5   7
TORSDOF 5
ENDMDL
MODEL      150
REMARK 921   NORMALIZED FREE ENERGY PREDICTED BY IDOCK:   -4.49 KCAL/MOL
REMARK 922        TOTAL FREE ENERGY PREDICTED BY IDOCK:   -6.43 KCAL/MOL
REMARK 923 INTER-LIGAND FREE ENERGY PREDICTED BY IDOCK:   -5.55 KCAL/MOL
REMARK 924 INTRA-LIGAND FREE ENERGY PREDICTED BY IDOCK:   -0.88 KCAL/MOL
REMARK 927      BINDING AFFINITY PREDICTED BY RF-SCORE:    0.00 PKD
ROOT
HETATM    1  C   UNL     1      -5.198   9.669  69.014  1.00  0.00    -0.036 C  
HETATM    2  C   UNL     1      -6.610  10.241  68.790  1.00  0.00    -0.052 C  
HETATM    3  C   UNL     1      -6.627  11.695  69.297  1.00  0.00    -0.111 C  
HETATM    4  C   UNL     1      -7.636   9.436  69.609  1.00  0.00    -0.095 C  
HETATM    5  N   UNL     1      -6.978  10.274  67.360  1.00  0.00    -0.081 NA 
HETATM    6  H   UNL     1      -6.395  10.944  66.858  1.00  0.00     0.000 HD 
ENDROOT
BRANCH   5   7
HETATM    7  C   UNL     1      -6.943   8.968  66.692  1.00  0.00    -0.081 C  
BRANCH   7   8
HETATM    8  C   UNL     1      -7.412   9.034  65.222  1.00  0.00    -0.093 C  
HETATM    9  H   UNL     1      -8.410   7.884  63.965  1.00  0.00     0.000 HD 
HETATM   10  O   UNL     1      -8.122   7.843  64.869  1.00  0.00    -0.139 OA 
BRANCH   8  11
HETATM   11  C   UNL     1      -8.304  10.276  65.043  1.00  0.00    -0.168 C  
BRANCH  11  12
HETATM   12  O   UNL     1      -9.635   9.991  65.475  1.00  0.00    -0.223 OA 
BRANCH  12  13
HETATM   13  C   UNL     1     -10.392  10.983  66.047  1.00  0.00    -0.254 A  
HETATM   14  C   UNL     1     -10.359  10.915  67.453  1.00  0.00    -0.248 A  
HETATM   15  C   UNL     1     -10.961  11.889  68.248  1.00  0.00    -0.273 A  
HETATM   16  C   UNL     1     -11.565  12.983  67.644  1.00  0.00    -0.403 A  
HETATM   17  C   UNL     1     -11.584  13.081  66.252  1.00  0.00    -0.360 A  
HETATM   18  C   UNL     1     -11.042  12.069  65.425  1.00  0.00    -0.369 A  
HETATM   19  C   UNL     1     -11.072  12.314  63.940  1.00  0.00    -0.475 C  
HETATM   20  C   UNL     1     -12.114  13.317  63.475  1.00  0.00    -0.550 C  
HETATM   21  C   UNL     1     -12.204  14.516  64.364  1.00  0.00    -0.458 C  
HETATM   22  N   UNL     1     -12.077  14.270  65.704  1.00  0.00    -0.393 N  
HETATM   23  O   UNL     1     -12.498  15.632  63.943  1.00  0.00    -0.693 OA 
HETATM   24  H   UNL     1     -12.363  15.006  66.349  1.00  0.00     0.000 HD 
ENDBRANCH  12  13
ENDBRANCH  11  12
ENDBRANCH   8  11
ENDBRANCH   7   8
ENDBRANCH   5   7
TORSDOF 5
ENDMDL
MODEL      151
REMARK 921   NORMALIZED FREE ENERGY PREDICTED BY IDOCK:   -4.49 KCAL/MOL
REMARK 922        TOTAL FREE ENERGY PREDICTED BY IDOCK:   -6.43 KCAL/MOL
REMARK 923 INTER-LIGAND FREE ENERGY PREDICTED BY IDOCK:   -5.54 KCAL/MOL
REMARK 924 INTRA-LIGAND FREE ENERGY PREDICTED BY IDOCK:   -0.89 KCAL/MOL
REMARK 927      BINDING AFFINITY PREDICTED BY RF-SCORE:    0.00 PKD
ROOT
HETATM    1  C   UNL     1     -10.782  14.842  67.373  1.00  0.00    -0.292 C  
HETATM    2  C   UNL     1      -9.958  15.473  66.236  1.00  0.00    -0.293 C  
HETATM    3  C   UNL     1      -8.495  15.578  66.702  1.00  0.00    -0.314 C  
HETATM    4  C   UNL     1     -10.471  16.896  65.946  1.00  0.00    -0.294 C  
HETATM    5  N   UNL     1      -9.969  14.644  65.013  1.00  0.00    -0.474 NA 
HETATM    6  H   UNL     1      -9.473  13.767  65.174  1.00  0.00     0.000 HD 
ENDROOT
BRANCH   5   7
HETATM    7  C   UNL     1     -11.305  14.381  64.468  1.00  0.00    -0.321 C  
BRANCH   7   8
HETATM    8  C   UNL     1     -11.457  12.946  63.920  1.00  0.00    -0.446 C  
HETATM    9  H   UNL     1     -10.364  11.661  62.893  1.00  0.00     0.000 HD 
HETATM   10  O   UNL     1     -10.270  12.544  63.230  1.00  0.00    -0.370 OA 
BRANCH   8  11
HETATM   11  C   UNL     1     -11.752  11.997  65.096  1.00  0.00    -0.255 C  
BRANCH  11  12
HETATM   12  O   UNL     1     -10.568  11.783  65.865  1.00  0.00    -0.253 OA 
BRANCH  12  13
HETATM   13  C   UNL     1     -10.332  10.552  66.423  1.00  0.00    -0.221 A  
HETATM   14  C   UNL     1     -11.026  10.391  67.638  1.00  0.00    -0.374 A  
HETATM   15  C   UNL     1     -11.027   9.177  68.325  1.00  0.00    -0.010 A  
HETATM   16  C   UNL     1     -10.373   8.084  67.777  1.00  0.00    -0.294 A  
HETATM   17  C   UNL     1      -9.702   8.217  66.561  1.00  0.00    -0.253 A  
HETATM   18  C   UNL     1      -9.627   9.456  65.882  1.00  0.00    -0.338 A  
HETATM   19  C   UNL     1      -8.923   9.463  64.551  1.00  0.00    -0.227 C  
HETATM   20  C   UNL     1      -7.944   8.322  64.337  1.00  0.00    -0.144 C  
HETATM   21  C   UNL     1      -8.466   7.008  64.823  1.00  0.00     0.118 C  
HETATM   22  N   UNL     1      -9.184   7.051  65.987  1.00  0.00    -0.354 N  
HETATM   23  O   UNL     1      -8.171   5.941  64.293  1.00  0.00    -0.131 OA 
HETATM   24  H   UNL     1      -9.353   6.170  66.472  1.00  0.00     0.000 HD 
ENDBRANCH  12  13
ENDBRANCH  11  12
ENDBRANCH   8  11
ENDBRANCH   7   8
ENDBRANCH   5   7
TORSDOF 5
ENDMDL
MODEL      152
REMARK 921   NORMALIZED FREE ENERGY PREDICTED BY IDOCK:   -4.48 KCAL/MOL
REMARK 922        TOTAL FREE ENERGY PREDICTED BY IDOCK:   -6.42 KCAL/MOL
REMARK 923 INTER-LIGAND FREE ENERGY PREDICTED BY IDOCK:   -6.18 KCAL/MOL
REMARK 924 INTRA-LIGAND FREE ENERGY PREDICTED BY IDOCK:   -0.24 KCAL/MOL
REMARK 927      BINDING AFFINITY PREDICTED BY RF-SCORE:    0.00 PKD
ROOT
HETATM    1  C   UNL     1     -10.343  13.659  64.717  1.00  0.00    -0.414 C  
HETATM    2  C   UNL     1     -11.137  14.778  65.415  1.00  0.00    -0.357 C  
HETATM    3  C   UNL     1     -12.172  15.329  64.417  1.00  0.00    -0.222 C  
HETATM    4  C   UNL     1     -10.189  15.927  65.804  1.00  0.00    -0.389 C  
HETATM    5  N   UNL     1     -11.884  14.282  66.589  1.00  0.00    -0.408 NA 
HETATM    6  H   UNL     1     -12.625  13.646  66.296  1.00  0.00     0.000 HD 
ENDROOT
BRANCH   5   7
HETATM    7  C   UNL     1     -11.050  13.654  67.620  1.00  0.00    -0.273 C  
BRANCH   7   8
HETATM    8  C   UNL     1     -11.568  12.263  68.044  1.00  0.00    -0.349 C  
HETATM    9  H   UNL     1     -12.461  10.724  67.188  1.00  0.00     0.000 HD 
HETATM   10  O   UNL     1     -12.142  11.580  66.926  1.00  0.00    -0.393 OA 
BRANCH   8  11
HETATM   11  C   UNL     1     -10.395  11.457  68.633  1.00  0.00    -0.203 C  
BRANCH  11  12
HETATM   12  O   UNL     1     -10.721  10.067  68.666  1.00  0.00    -0.209 OA 
BRANCH  12  13
HETATM   13  C   UNL     1     -10.984   9.459  69.868  1.00  0.00    -0.229 A  
HETATM   14  C   UNL     1     -11.923  10.187  70.623  1.00  0.00    -0.423 A  
HETATM   15  C   UNL     1     -12.428   9.700  71.829  1.00  0.00    -0.487 A  
HETATM   16  C   UNL     1     -12.036   8.446  72.275  1.00  0.00    -0.456 A  
HETATM   17  C   UNL     1     -11.126   7.700  71.526  1.00  0.00    -0.236 A  
HETATM   18  C   UNL     1     -10.547   8.203  70.338  1.00  0.00    -0.226 A  
HETATM   19  C   UNL     1      -9.620   7.282  69.588  1.00  0.00    -0.155 C  
HETATM   20  C   UNL     1      -9.007   6.171  70.421  1.00  0.00    -0.151 C  
HETATM   21  C   UNL     1      -9.987   5.536  71.355  1.00  0.00    -0.186 C  
HETATM   22  N   UNL     1     -10.877   6.389  71.948  1.00  0.00    -0.231 N  
HETATM   23  O   UNL     1      -9.925   4.352  71.675  1.00  0.00    -0.179 OA 
HETATM   24  H   UNL     1     -11.397   6.044  72.755  1.00  0.00     0.000 HD 
ENDBRANCH  12  13
ENDBRANCH  11  12
ENDBRANCH   8  11
ENDBRANCH   7   8
ENDBRANCH   5   7
TORSDOF 5
ENDMDL
MODEL      153
REMARK 921   NORMALIZED FREE ENERGY PREDICTED BY IDOCK:   -4.45 KCAL/MOL
REMARK 922        TOTAL FREE ENERGY PREDICTED BY IDOCK:   -6.38 KCAL/MOL
REMARK 923 INTER-LIGAND FREE ENERGY PREDICTED BY IDOCK:   -5.94 KCAL/MOL
REMARK 924 INTRA-LIGAND FREE ENERGY PREDICTED BY IDOCK:   -0.44 KCAL/MOL
REMARK 927      BINDING AFFINITY PREDICTED BY RF-SCORE:    0.00 PKD
ROOT
HETATM    1  C   UNL     1     -10.608  13.022  64.414  1.00  0.00    -0.429 C  
HETATM    2  C   UNL     1     -10.789  14.080  65.517  1.00  0.00    -0.309 C  
HETATM    3  C   UNL     1     -11.248  15.393  64.855  1.00  0.00    -0.410 C  
HETATM    4  C   UNL     1      -9.441  14.343  66.214  1.00  0.00    -0.297 C  
HETATM    5  N   UNL     1     -11.829  13.698  66.493  1.00  0.00    -0.381 NA 
HETATM    6  H   UNL     1     -12.748  13.693  66.051  1.00  0.00     0.000 HD 
ENDROOT
BRANCH   5   7
HETATM    7  C   UNL     1     -11.584  12.421  67.174  1.00  0.00    -0.365 C  
BRANCH   7   8
HETATM    8  C   UNL     1     -11.556  12.557  68.711  1.00  0.00    -0.322 C  
HETATM    9  H   UNL     1     -12.322  13.762  70.076  1.00  0.00     0.000 HD 
HETATM   10  O   UNL     1     -12.339  13.679  69.130  1.00  0.00    -0.285 OA 
BRANCH   8  11
HETATM   11  C   UNL     1     -12.092  11.254  69.332  1.00  0.00    -0.315 C  
BRANCH  11  12
HETATM   12  O   UNL     1     -11.059  10.598  70.067  1.00  0.00    -0.281 OA 
BRANCH  12  13
HETATM   13  C   UNL     1     -10.837   9.256  69.879  1.00  0.00    -0.234 A  
HETATM   14  C   UNL     1     -10.660   8.946  68.517  1.00  0.00    -0.183 A  
HETATM   15  C   UNL     1     -10.308   7.664  68.097  1.00  0.00    -0.250 A  
HETATM   16  C   UNL     1     -10.075   6.677  69.045  1.00  0.00    -0.176 A  
HETATM   17  C   UNL     1     -10.220   6.973  70.401  1.00  0.00    -0.196 A  
HETATM   18  C   UNL     1     -10.646   8.247  70.845  1.00  0.00    -0.239 A  
HETATM   19  C   UNL     1     -10.712   8.463  72.334  1.00  0.00    -0.405 C  
HETATM   20  C   UNL     1     -10.834   7.195  73.162  1.00  0.00    -0.373 C  
HETATM   21  C   UNL     1      -9.950   6.093  72.673  1.00  0.00    -0.175 C  
HETATM   22  N   UNL     1      -9.836   5.985  71.314  1.00  0.00    -0.175 N  
HETATM   23  O   UNL     1      -9.455   5.258  73.424  1.00  0.00    -0.137 OA 
HETATM   24  H   UNL     1      -9.444   5.121  70.939  1.00  0.00     0.000 HD 
ENDBRANCH  12  13
ENDBRANCH  11  12
ENDBRANCH   8  11
ENDBRANCH   7   8
ENDBRANCH   5   7
TORSDOF 5
ENDMDL
MODEL      154
REMARK 921   NORMALIZED FREE ENERGY PREDICTED BY IDOCK:   -4.43 KCAL/MOL
REMARK 922        TOTAL FREE ENERGY PREDICTED BY IDOCK:   -6.35 KCAL/MOL
REMARK 923 INTER-LIGAND FREE ENERGY PREDICTED BY IDOCK:   -5.86 KCAL/MOL
REMARK 924 INTRA-LIGAND FREE ENERGY PREDICTED BY IDOCK:   -0.49 KCAL/MOL
REMARK 927      BINDING AFFINITY PREDICTED BY RF-SCORE:    0.00 PKD
ROOT
HETATM    1  C   UNL     1     -10.199  12.725  64.782  1.00  0.00    -0.304 C  
HETATM    2  C   UNL     1     -11.724  12.906  64.878  1.00  0.00    -0.348 C  
HETATM    3  C   UNL     1     -12.383  12.034  63.794  1.00  0.00    -0.602 C  
HETATM    4  C   UNL     1     -12.095  14.375  64.600  1.00  0.00    -0.485 C  
HETATM    5  N   UNL     1     -12.259  12.461  66.181  1.00  0.00    -0.609 NA 
HETATM    6  H   UNL     1     -12.158  11.450  66.279  1.00  0.00     0.000 HD 
ENDROOT
BRANCH   5   7
HETATM    7  C   UNL     1     -11.681  13.146  67.343  1.00  0.00    -0.370 C  
BRANCH   7   8
HETATM    8  C   UNL     1     -11.329  12.180  68.495  1.00  0.00    -0.275 C  
HETATM    9  H   UNL     1     -12.187  10.672  69.437  1.00  0.00     0.000 HD 
HETATM   10  O   UNL     1     -12.404  11.266  68.728  1.00  0.00    -0.518 OA 
BRANCH   8  11
HETATM   11  C   UNL     1     -10.039  11.424  68.129  1.00  0.00    -0.189 C  
BRANCH  11  12
HETATM   12  O   UNL     1     -10.251  10.015  68.225  1.00  0.00    -0.159 OA 
BRANCH  12  13
HETATM   13  C   UNL     1      -9.449   9.261  69.045  1.00  0.00    -0.155 A  
HETATM   14  C   UNL     1      -8.360  10.007  69.535  1.00  0.00    -0.180 A  
HETATM   15  C   UNL     1      -7.476   9.481  70.477  1.00  0.00    -0.159 A  
HETATM   16  C   UNL     1      -7.700   8.211  70.986  1.00  0.00    -0.088 A  
HETATM   17  C   UNL     1      -8.790   7.466  70.532  1.00  0.00    -0.148 A  
HETATM   18  C   UNL     1      -9.658   7.951  69.525  1.00  0.00    -0.160 A  
HETATM   19  C   UNL     1     -10.830   7.080  69.158  1.00  0.00    -0.223 C  
HETATM   20  C   UNL     1     -10.667   5.608  69.495  1.00  0.00    -0.380 C  
HETATM   21  C   UNL     1     -10.048   5.385  70.838  1.00  0.00    -0.219 C  
HETATM   22  N   UNL     1      -9.049   6.254  71.181  1.00  0.00    -0.146 N  
HETATM   23  O   UNL     1     -10.320   4.414  71.540  1.00  0.00    -0.139 OA 
HETATM   24  H   UNL     1      -8.449   6.000  71.966  1.00  0.00     0.000 HD 
ENDBRANCH  12  13
ENDBRANCH  11  12
ENDBRANCH   8  11
ENDBRANCH   7   8
ENDBRANCH   5   7
TORSDOF 5
ENDMDL
MODEL      155
REMARK 921   NORMALIZED FREE ENERGY PREDICTED BY IDOCK:   -4.42 KCAL/MOL
REMARK 922        TOTAL FREE ENERGY PREDICTED BY IDOCK:   -6.34 KCAL/MOL
REMARK 923 INTER-LIGAND FREE ENERGY PREDICTED BY IDOCK:   -6.21 KCAL/MOL
REMARK 924 INTRA-LIGAND FREE ENERGY PREDICTED BY IDOCK:   -0.13 KCAL/MOL
REMARK 927      BINDING AFFINITY PREDICTED BY RF-SCORE:    0.00 PKD
ROOT
HETATM    1  C   UNL     1      -7.485  19.484  68.944  1.00  0.00    -0.392 C  
HETATM    2  C   UNL     1      -6.811  19.663  67.572  1.00  0.00    -0.220 C  
HETATM    3  C   UNL     1      -5.356  19.172  67.682  1.00  0.00    -0.172 C  
HETATM    4  C   UNL     1      -6.785  21.156  67.193  1.00  0.00    -0.411 C  
HETATM    5  N   UNL     1      -7.465  18.858  66.520  1.00  0.00    -0.230 NA 
HETATM    6  H   UNL     1      -7.326  17.863  66.696  1.00  0.00     0.000 HD 
ENDROOT
BRANCH   5   7
HETATM    7  C   UNL     1      -8.890  19.149  66.328  1.00  0.00    -0.299 C  
BRANCH   7   8
HETATM    8  C   UNL     1      -9.809  18.082  66.960  1.00  0.00    -0.318 C  
HETATM    9  H   UNL     1     -11.320  18.037  68.231  1.00  0.00     0.000 HD 
HETATM   10  O   UNL     1     -10.754  18.694  67.843  1.00  0.00    -0.383 OA 
BRANCH   8  11
HETATM   11  C   UNL     1     -10.529  17.320  65.833  1.00  0.00    -0.262 C  
BRANCH  11  12
HETATM   12  O   UNL     1      -9.737  16.211  65.405  1.00  0.00    -0.453 OA 
BRANCH  12  13
HETATM   13  C   UNL     1      -9.310  15.286  66.324  1.00  0.00    -0.310 A  
HETATM   14  C   UNL     1      -7.976  15.517  66.711  1.00  0.00    -0.214 A  
HETATM   15  C   UNL     1      -7.366  14.771  67.720  1.00  0.00    -0.186 A  
HETATM   16  C   UNL     1      -8.104  13.812  68.398  1.00  0.00    -0.148 A  
HETATM   17  C   UNL     1      -9.436  13.587  68.046  1.00  0.00    -0.220 A  
HETATM   18  C   UNL     1     -10.053  14.281  66.979  1.00  0.00    -0.260 A  
HETATM   19  C   UNL     1     -11.510  13.992  66.730  1.00  0.00    -0.379 C  
HETATM   20  C   UNL     1     -12.002  12.660  67.266  1.00  0.00    -0.321 C  
HETATM   21  C   UNL     1     -11.470  12.350  68.630  1.00  0.00    -0.303 C  
HETATM   22  N   UNL     1     -10.170  12.712  68.854  1.00  0.00    -0.425 N  
HETATM   23  O   UNL     1     -12.106  11.702  69.457  1.00  0.00    -0.304 OA 
HETATM   24  H   UNL     1      -9.702  12.315  69.669  1.00  0.00     0.000 HD 
ENDBRANCH  12  13
ENDBRANCH  11  12
ENDBRANCH   8  11
ENDBRANCH   7   8
ENDBRANCH   5   7
TORSDOF 5
ENDMDL
MODEL      156
REMARK 921   NORMALIZED FREE ENERGY PREDICTED BY IDOCK:   -4.40 KCAL/MOL
REMARK 922        TOTAL FREE ENERGY PREDICTED BY IDOCK:   -6.32 KCAL/MOL
REMARK 923 INTER-LIGAND FREE ENERGY PREDICTED BY IDOCK:   -5.89 KCAL/MOL
REMARK 924 INTRA-LIGAND FREE ENERGY PREDICTED BY IDOCK:   -0.43 KCAL/MOL
REMARK 927      BINDING AFFINITY PREDICTED BY RF-SCORE:    0.00 PKD
ROOT
HETATM    1  C   UNL     1      -7.346  10.302  64.414  1.00  0.00    -0.075 C  
HETATM    2  C   UNL     1      -8.637   9.883  63.690  1.00  0.00    -0.200 C  
HETATM    3  C   UNL     1      -8.297   8.735  62.721  1.00  0.00    -0.192 C  
HETATM    4  C   UNL     1      -9.177  11.063  62.860  1.00  0.00    -0.362 C  
HETATM    5  N   UNL     1      -9.662   9.375  64.624  1.00  0.00    -0.337 NA 
HETATM    6  H   UNL     1      -9.358   8.496  65.041  1.00  0.00     0.000 HD 
ENDROOT
BRANCH   5   7
HETATM    7  C   UNL     1     -10.057  10.326  65.669  1.00  0.00    -0.271 C  
BRANCH   7   8
HETATM    8  C   UNL     1     -10.422   9.636  67.001  1.00  0.00    -0.232 C  
HETATM    9  H   UNL     1      -9.463   8.827  68.526  1.00  0.00     0.000 HD 
HETATM   10  O   UNL     1      -9.238   9.252  67.707  1.00  0.00    -0.129 OA 
BRANCH   8  11
HETATM   11  C   UNL     1     -11.271  10.605  67.844  1.00  0.00    -0.308 C  
BRANCH  11  12
HETATM   12  O   UNL     1     -10.570  11.836  68.032  1.00  0.00    -0.194 OA 
BRANCH  12  13
HETATM   13  C   UNL     1     -11.140  12.835  68.781  1.00  0.00    -0.260 A  
HETATM   14  C   UNL     1     -11.902  12.315  69.845  1.00  0.00    -0.383 A  
HETATM   15  C   UNL     1     -12.480  13.145  70.806  1.00  0.00    -0.389 A  
HETATM   16  C   UNL     1     -12.258  14.513  70.745  1.00  0.00    -0.403 A  
HETATM   17  C   UNL     1     -11.483  15.043  69.713  1.00  0.00    -0.295 A  
HETATM   18  C   UNL     1     -10.947  14.229  68.688  1.00  0.00    -0.268 A  
HETATM   19  C   UNL     1     -10.082  14.908  67.660  1.00  0.00    -0.227 C  
HETATM   20  C   UNL     1     -10.304  16.404  67.521  1.00  0.00    -0.288 C  
HETATM   21  C   UNL     1     -10.463  17.093  68.838  1.00  0.00    -0.346 C  
HETATM   22  N   UNL     1     -11.175  16.407  69.783  1.00  0.00    -0.352 N  
HETATM   23  O   UNL     1     -10.096  18.249  69.029  1.00  0.00    -0.379 OA 
HETATM   24  H   UNL     1     -11.506  16.926  70.596  1.00  0.00     0.000 HD 
ENDBRANCH  12  13
ENDBRANCH  11  12
ENDBRANCH   8  11
ENDBRANCH   7   8
ENDBRANCH   5   7
TORSDOF 5
ENDMDL
MODEL      157
REMARK 921   NORMALIZED FREE ENERGY PREDICTED BY IDOCK:   -4.39 KCAL/MOL
REMARK 922        TOTAL FREE ENERGY PREDICTED BY IDOCK:   -6.30 KCAL/MOL
REMARK 923 INTER-LIGAND FREE ENERGY PREDICTED BY IDOCK:   -6.58 KCAL/MOL
REMARK 924 INTRA-LIGAND FREE ENERGY PREDICTED BY IDOCK:    0.28 KCAL/MOL
REMARK 927      BINDING AFFINITY PREDICTED BY RF-SCORE:    0.00 PKD
ROOT
HETATM    1  C   UNL     1      -7.995  18.499  68.447  1.00  0.00    -0.337 C  
HETATM    2  C   UNL     1      -8.796  18.758  67.158  1.00  0.00    -0.278 C  
HETATM    3  C   UNL     1      -8.099  19.887  66.377  1.00  0.00    -0.357 C  
HETATM    4  C   UNL     1     -10.218  19.229  67.512  1.00  0.00    -0.514 C  
HETATM    5  N   UNL     1      -8.831  17.574  66.276  1.00  0.00    -0.430 NA 
HETATM    6  H   UNL     1      -7.900  17.374  65.911  1.00  0.00     0.000 HD 
ENDROOT
BRANCH   5   7
HETATM    7  C   UNL     1      -9.406  16.373  66.892  1.00  0.00    -0.227 C  
BRANCH   7   8
HETATM    8  C   UNL     1     -10.483  15.704  66.011  1.00  0.00    -0.331 C  
HETATM    9  H   UNL     1     -10.590  14.890  64.216  1.00  0.00     0.000 HD 
HETATM   10  O   UNL     1      -9.926  15.301  64.757  1.00  0.00    -0.184 OA 
BRANCH   8  11
HETATM   11  C   UNL     1     -11.059  14.493  66.768  1.00  0.00    -0.325 C  
BRANCH  11  12
HETATM   12  O   UNL     1     -11.917  14.933  67.821  1.00  0.00    -0.321 OA 
BRANCH  12  13
HETATM   13  C   UNL     1     -12.013  14.195  68.974  1.00  0.00    -0.340 A  
HETATM   14  C   UNL     1     -12.761  14.868  69.960  1.00  0.00    -0.194 A  
HETATM   15  C   UNL     1     -13.086  14.261  71.173  1.00  0.00    -0.412 A  
HETATM   16  C   UNL     1     -12.710  12.945  71.399  1.00  0.00    -0.366 A  
HETATM   17  C   UNL     1     -11.991  12.254  70.422  1.00  0.00    -0.263 A  
HETATM   18  C   UNL     1     -11.589  12.872  69.215  1.00  0.00    -0.368 A  
HETATM   19  C   UNL     1     -10.866  12.008  68.215  1.00  0.00    -0.263 C  
HETATM   20  C   UNL     1     -10.197  10.775  68.796  1.00  0.00    -0.207 C  
HETATM   21  C   UNL     1     -11.046  10.077  69.810  1.00  0.00    -0.274 C  
HETATM   22  N   UNL     1     -11.764  10.891  70.643  1.00  0.00    -0.357 N  
HETATM   23  O   UNL     1     -11.011   8.861  69.979  1.00  0.00    -0.236 OA 
HETATM   24  H   UNL     1     -12.162  10.475  71.485  1.00  0.00     0.000 HD 
ENDBRANCH  12  13
ENDBRANCH  11  12
ENDBRANCH   8  11
ENDBRANCH   7   8
ENDBRANCH   5   7
TORSDOF 5
ENDMDL
MODEL      158
REMARK 921   NORMALIZED FREE ENERGY PREDICTED BY IDOCK:   -4.39 KCAL/MOL
REMARK 922        TOTAL FREE ENERGY PREDICTED BY IDOCK:   -6.30 KCAL/MOL
REMARK 923 INTER-LIGAND FREE ENERGY PREDICTED BY IDOCK:   -5.60 KCAL/MOL
REMARK 924 INTRA-LIGAND FREE ENERGY PREDICTED BY IDOCK:   -0.70 KCAL/MOL
REMARK 927      BINDING AFFINITY PREDICTED BY RF-SCORE:    0.00 PKD
ROOT
HETATM    1  C   UNL     1     -10.085  13.832  68.280  1.00  0.00    -0.239 C  
HETATM    2  C   UNL     1      -8.864  13.939  67.349  1.00  0.00    -0.207 C  
HETATM    3  C   UNL     1      -7.594  13.960  68.219  1.00  0.00    -0.130 C  
HETATM    4  C   UNL     1      -8.924  15.260  66.558  1.00  0.00    -0.340 C  
HETATM    5  N   UNL     1      -8.751  12.780  66.441  1.00  0.00    -0.426 NA 
HETATM    6  H   UNL     1      -8.542  11.933  66.970  1.00  0.00     0.000 HD 
ENDROOT
BRANCH   5   7
HETATM    7  C   UNL     1      -9.919  12.566  65.579  1.00  0.00    -0.234 C  
BRANCH   7   8
HETATM    8  C   UNL     1      -9.942  11.163  64.937  1.00  0.00    -0.278 C  
HETATM    9  H   UNL     1      -8.626   9.796  64.388  1.00  0.00     0.000 HD 
HETATM   10  O   UNL     1      -8.611  10.660  64.783  1.00  0.00    -0.177 OA 
BRANCH   8  11
HETATM   11  C   UNL     1     -10.780  10.226  65.826  1.00  0.00     0.114 C  
BRANCH  11  12
HETATM   12  O   UNL     1     -10.013   9.800  66.953  1.00  0.00    -0.189 OA 
BRANCH  12  13
HETATM   13  C   UNL     1     -10.429   8.720  67.690  1.00  0.00    -0.244 A  
HETATM   14  C   UNL     1     -10.490   7.551  66.908  1.00  0.00    -0.385 A  
HETATM   15  C   UNL     1     -10.778   6.307  67.471  1.00  0.00    -0.398 A  
HETATM   16  C   UNL     1     -10.959   6.207  68.843  1.00  0.00    -0.424 A  
HETATM   17  C   UNL     1     -10.876   7.351  69.637  1.00  0.00    -0.210 A  
HETATM   18  C   UNL     1     -10.656   8.632  69.079  1.00  0.00    -0.179 A  
HETATM   19  C   UNL     1     -10.531   9.783  70.042  1.00  0.00    -0.314 C  
HETATM   20  C   UNL     1     -11.162   9.552  71.404  1.00  0.00    -0.452 C  
HETATM   21  C   UNL     1     -10.898   8.182  71.943  1.00  0.00    -0.270 C  
HETATM   22  N   UNL     1     -10.925   7.169  71.024  1.00  0.00    -0.247 N  
HETATM   23  O   UNL     1     -10.789   7.952  73.144  1.00  0.00    -0.375 OA 
HETATM   24  H   UNL     1     -10.985   6.213  71.374  1.00  0.00     0.000 HD 
ENDBRANCH  12  13
ENDBRANCH  11  12
ENDBRANCH   8  11
ENDBRANCH   7   8
ENDBRANCH   5   7
TORSDOF 5
ENDMDL
MODEL      159
REMARK 921   NORMALIZED FREE ENERGY PREDICTED BY IDOCK:   -4.38 KCAL/MOL
REMARK 922        TOTAL FREE ENERGY PREDICTED BY IDOCK:   -6.29 KCAL/MOL
REMARK 923 INTER-LIGAND FREE ENERGY PREDICTED BY IDOCK:   -5.40 KCAL/MOL
REMARK 924 INTRA-LIGAND FREE ENERGY PREDICTED BY IDOCK:   -0.89 KCAL/MOL
REMARK 927      BINDING AFFINITY PREDICTED BY RF-SCORE:    0.00 PKD
ROOT
HETATM    1  C   UNL     1      -6.118   9.462  68.320  1.00  0.00    -0.048 C  
HETATM    2  C   UNL     1      -6.971  10.735  68.462  1.00  0.00    -0.068 C  
HETATM    3  C   UNL     1      -6.090  11.839  69.075  1.00  0.00    -0.066 C  
HETATM    4  C   UNL     1      -8.146  10.473  69.423  1.00  0.00    -0.136 C  
HETATM    5  N   UNL     1      -7.452  11.234  67.158  1.00  0.00    -0.122 NA 
HETATM    6  H   UNL     1      -6.669  11.565  66.594  1.00  0.00     0.000 HD 
ENDROOT
BRANCH   5   7
HETATM    7  C   UNL     1      -8.258  10.272  66.398  1.00  0.00    -0.129 C  
BRANCH   7   8
HETATM    8  C   UNL     1      -9.309  10.952  65.495  1.00  0.00    -0.206 C  
HETATM    9  H   UNL     1     -11.019  10.464  64.637  1.00  0.00     0.000 HD 
HETATM   10  O   UNL     1     -10.373  10.045  65.192  1.00  0.00    -0.215 OA 
BRANCH   8  11
HETATM   11  C   UNL     1      -9.845  12.203  66.216  1.00  0.00    -0.234 C  
BRANCH  11  12
HETATM   12  O   UNL     1     -11.211  12.008  66.587  1.00  0.00    -0.293 OA 
BRANCH  12  13
HETATM   13  C   UNL     1     -11.564  12.027  67.913  1.00  0.00    -0.337 A  
HETATM   14  C   UNL     1     -11.639  10.727  68.448  1.00  0.00    -0.311 A  
HETATM   15  C   UNL     1     -11.870  10.506  69.806  1.00  0.00    -0.329 A  
HETATM   16  C   UNL     1     -11.977  11.591  70.664  1.00  0.00    -0.391 A  
HETATM   17  C   UNL     1     -11.878  12.887  70.155  1.00  0.00    -0.245 A  
HETATM   18  C   UNL     1     -11.716  13.135  68.772  1.00  0.00    -0.363 A  
HETATM   19  C   UNL     1     -11.567  14.573  68.351  1.00  0.00    -0.356 C  
HETATM   20  C   UNL     1     -12.121  15.591  69.332  1.00  0.00    -0.302 C  
HETATM   21  C   UNL     1     -11.799  15.262  70.755  1.00  0.00    -0.338 C  
HETATM   22  N   UNL     1     -11.851  13.935  71.082  1.00  0.00    -0.457 N  
HETATM   23  O   UNL     1     -11.622  16.125  71.611  1.00  0.00    -0.453 OA 
HETATM   24  H   UNL     1     -11.872  13.692  72.072  1.00  0.00     0.000 HD 
ENDBRANCH  12  13
ENDBRANCH  11  12
ENDBRANCH   8  11
ENDBRANCH   7   8
ENDBRANCH   5   7
TORSDOF 5
ENDMDL
MODEL      160
REMARK 921   NORMALIZED FREE ENERGY PREDICTED BY IDOCK:   -4.37 KCAL/MOL
REMARK 922        TOTAL FREE ENERGY PREDICTED BY IDOCK:   -6.28 KCAL/MOL
REMARK 923 INTER-LIGAND FREE ENERGY PREDICTED BY IDOCK:   -5.41 KCAL/MOL
REMARK 924 INTRA-LIGAND FREE ENERGY PREDICTED BY IDOCK:   -0.87 KCAL/MOL
REMARK 927      BINDING AFFINITY PREDICTED BY RF-SCORE:    0.00 PKD
ROOT
HETATM    1  C   UNL     1     -10.398   7.100  70.984  1.00  0.00    -0.208 C  
HETATM    2  C   UNL     1      -9.821   8.399  71.575  1.00  0.00    -0.208 C  
HETATM    3  C   UNL     1      -8.476   8.688  70.884  1.00  0.00    -0.195 C  
HETATM    4  C   UNL     1      -9.555   8.215  73.081  1.00  0.00    -0.307 C  
HETATM    5  N   UNL     1     -10.697   9.562  71.327  1.00  0.00    -0.343 NA 
HETATM    6  H   UNL     1     -10.729   9.777  70.331  1.00  0.00     0.000 HD 
ENDROOT
BRANCH   5   7
HETATM    7  C   UNL     1     -12.057   9.425  71.862  1.00  0.00    -0.357 C  
BRANCH   7   8
HETATM    8  C   UNL     1     -13.040  10.460  71.274  1.00  0.00    -0.399 C  
HETATM    9  H   UNL     1     -13.852  12.171  71.832  1.00  0.00     0.000 HD 
HETATM   10  O   UNL     1     -13.247  11.535  72.194  1.00  0.00    -0.505 OA 
BRANCH   8  11
HETATM   11  C   UNL     1     -12.468  10.983  69.943  1.00  0.00    -0.219 C  
BRANCH  11  12
HETATM   12  O   UNL     1     -11.709  12.171  70.168  1.00  0.00    -0.303 OA 
BRANCH  12  13
HETATM   13  C   UNL     1     -11.175  12.849  69.100  1.00  0.00    -0.237 A  
HETATM   14  C   UNL     1     -11.916  14.007  68.797  1.00  0.00    -0.382 A  
HETATM   15  C   UNL     1     -11.495  14.912  67.823  1.00  0.00    -0.353 A  
HETATM   16  C   UNL     1     -10.290  14.698  67.171  1.00  0.00    -0.265 A  
HETATM   17  C   UNL     1      -9.529  13.570  67.477  1.00  0.00    -0.222 A  
HETATM   18  C   UNL     1      -9.970  12.602  68.409  1.00  0.00    -0.210 A  
HETATM   19  C   UNL     1      -9.036  11.456  68.697  1.00  0.00    -0.138 C  
HETATM   20  C   UNL     1      -8.008  11.179  67.614  1.00  0.00    -0.116 C  
HETATM   21  C   UNL     1      -7.402  12.426  67.054  1.00  0.00    -0.012 C  
HETATM   22  N   UNL     1      -8.260  13.480  66.894  1.00  0.00    -0.406 N  
HETATM   23  O   UNL     1      -6.246  12.474  66.643  1.00  0.00    -0.022 OA 
HETATM   24  H   UNL     1      -7.952  14.255  66.307  1.00  0.00     0.000 HD 
ENDBRANCH  12  13
ENDBRANCH  11  12
ENDBRANCH   8  11
ENDBRANCH   7   8
ENDBRANCH   5   7
TORSDOF 5
ENDMDL
MODEL      161
REMARK 921   NORMALIZED FREE ENERGY PREDICTED BY IDOCK:   -4.37 KCAL/MOL
REMARK 922        TOTAL FREE ENERGY PREDICTED BY IDOCK:   -6.27 KCAL/MOL
REMARK 923 INTER-LIGAND FREE ENERGY PREDICTED BY IDOCK:   -5.82 KCAL/MOL
REMARK 924 INTRA-LIGAND FREE ENERGY PREDICTED BY IDOCK:   -0.45 KCAL/MOL
REMARK 927      BINDING AFFINITY PREDICTED BY RF-SCORE:    0.00 PKD
ROOT
HETATM    1  C   UNL     1     -10.213   4.846  66.229  1.00  0.00    -0.312 C  
HETATM    2  C   UNL     1      -8.840   5.523  66.390  1.00  0.00    -0.126 C  
HETATM    3  C   UNL     1      -8.379   6.015  65.006  1.00  0.00    -0.121 C  
HETATM    4  C   UNL     1      -7.809   4.498  66.900  1.00  0.00    -0.098 C  
HETATM    5  N   UNL     1      -8.899   6.703  67.275  1.00  0.00    -0.116 NA 
HETATM    6  H   UNL     1      -9.452   7.444  66.843  1.00  0.00     0.000 HD 
ENDROOT
BRANCH   5   7
HETATM    7  C   UNL     1      -9.391   6.424  68.629  1.00  0.00    -0.124 C  
BRANCH   7   8
HETATM    8  C   UNL     1     -10.783   7.034  68.899  1.00  0.00    -0.200 C  
HETATM    9  H   UNL     1     -12.387   6.579  69.958  1.00  0.00     0.000 HD 
HETATM   10  O   UNL     1     -11.530   6.203  69.792  1.00  0.00    -0.433 OA 
BRANCH   8  11
HETATM   11  C   UNL     1     -10.600   8.444  69.489  1.00  0.00    -0.213 C  
BRANCH  11  12
HETATM   12  O   UNL     1     -10.562   9.415  68.442  1.00  0.00    -0.218 OA 
BRANCH  12  13
HETATM   13  C   UNL     1     -11.160  10.636  68.625  1.00  0.00    -0.263 A  
HETATM   14  C   UNL     1     -11.433  10.882  69.985  1.00  0.00    -0.411 A  
HETATM   15  C   UNL     1     -11.935  12.108  70.421  1.00  0.00    -0.360 A  
HETATM   16  C   UNL     1     -12.122  13.132  69.504  1.00  0.00    -0.296 A  
HETATM   17  C   UNL     1     -11.832  12.915  68.157  1.00  0.00    -0.336 A  
HETATM   18  C   UNL     1     -11.390  11.659  67.681  1.00  0.00    -0.362 A  
HETATM   19  C   UNL     1     -11.056  11.563  66.216  1.00  0.00    -0.321 C  
HETATM   20  C   UNL     1     -11.710  12.616  65.338  1.00  0.00    -0.428 C  
HETATM   21  C   UNL     1     -11.691  13.979  65.953  1.00  0.00    -0.366 C  
HETATM   22  N   UNL     1     -11.904  14.022  67.303  1.00  0.00    -0.390 N  
HETATM   23  O   UNL     1     -11.618  15.006  65.284  1.00  0.00    -0.331 OA 
HETATM   24  H   UNL     1     -12.132  14.925  67.718  1.00  0.00     0.000 HD 
ENDBRANCH  12  13
ENDBRANCH  11  12
ENDBRANCH   8  11
ENDBRANCH   7   8
ENDBRANCH   5   7
TORSDOF 5
ENDMDL
MODEL      162
REMARK 921   NORMALIZED FREE ENERGY PREDICTED BY IDOCK:   -4.35 KCAL/MOL
REMARK 922        TOTAL FREE ENERGY PREDICTED BY IDOCK:   -6.25 KCAL/MOL
REMARK 923 INTER-LIGAND FREE ENERGY PREDICTED BY IDOCK:   -5.74 KCAL/MOL
REMARK 924 INTRA-LIGAND FREE ENERGY PREDICTED BY IDOCK:   -0.52 KCAL/MOL
REMARK 927      BINDING AFFINITY PREDICTED BY RF-SCORE:    0.00 PKD
ROOT
HETATM    1  C   UNL     1     -11.537  11.862  65.361  1.00  0.00    -0.284 C  
HETATM    2  C   UNL     1     -10.149  11.510  64.796  1.00  0.00    -0.269 C  
HETATM    3  C   UNL     1     -10.104  11.949  63.320  1.00  0.00    -0.427 C  
HETATM    4  C   UNL     1      -9.935   9.986  64.848  1.00  0.00    -0.286 C  
HETATM    5  N   UNL     1      -9.064  12.225  65.497  1.00  0.00    -0.410 NA 
HETATM    6  H   UNL     1      -9.121  13.227  65.312  1.00  0.00     0.000 HD 
ENDROOT
BRANCH   5   7
HETATM    7  C   UNL     1      -9.004  11.975  66.941  1.00  0.00    -0.199 C  
BRANCH   7   8
HETATM    8  C   UNL     1      -7.599  12.219  67.534  1.00  0.00    -0.155 C  
HETATM    9  H   UNL     1      -5.723  12.025  66.948  1.00  0.00     0.000 HD 
HETATM   10  O   UNL     1      -6.587  11.875  66.583  1.00  0.00    -0.073 OA 
BRANCH   8  11
HETATM   11  C   UNL     1      -7.485  13.699  67.943  1.00  0.00    -0.158 C  
BRANCH  11  12
HETATM   12  O   UNL     1      -8.400  14.490  67.183  1.00  0.00    -0.201 OA 
BRANCH  12  13
HETATM   13  C   UNL     1      -9.299  15.299  67.831  1.00  0.00    -0.189 A  
HETATM   14  C   UNL     1      -9.911  14.635  68.911  1.00  0.00    -0.211 A  
HETATM   15  C   UNL     1     -10.775  15.296  69.783  1.00  0.00    -0.295 A  
HETATM   16  C   UNL     1     -11.001  16.655  69.617  1.00  0.00    -0.222 A  
HETATM   17  C   UNL     1     -10.383  17.336  68.568  1.00  0.00    -0.371 A  
HETATM   18  C   UNL     1      -9.560  16.671  67.629  1.00  0.00    -0.239 A  
HETATM   19  C   UNL     1      -8.904  17.522  66.574  1.00  0.00    -0.291 C  
HETATM   20  C   UNL     1      -9.587  18.852  66.306  1.00  0.00    -0.344 C  
HETATM   21  C   UNL     1     -10.030  19.541  67.557  1.00  0.00    -0.380 C  
HETATM   22  N   UNL     1     -10.534  18.727  68.534  1.00  0.00    -0.402 N  
HETATM   23  O   UNL     1     -10.064  20.764  67.663  1.00  0.00    -0.330 OA 
HETATM   24  H   UNL     1     -11.057  19.165  69.292  1.00  0.00     0.000 HD 
ENDBRANCH  12  13
ENDBRANCH  11  12
ENDBRANCH   8  11
ENDBRANCH   7   8
ENDBRANCH   5   7
TORSDOF 5
ENDMDL
MODEL      163
REMARK 921   NORMALIZED FREE ENERGY PREDICTED BY IDOCK:   -4.35 KCAL/MOL
REMARK 922        TOTAL FREE ENERGY PREDICTED BY IDOCK:   -6.24 KCAL/MOL
REMARK 923 INTER-LIGAND FREE ENERGY PREDICTED BY IDOCK:   -5.54 KCAL/MOL
REMARK 924 INTRA-LIGAND FREE ENERGY PREDICTED BY IDOCK:   -0.71 KCAL/MOL
REMARK 927      BINDING AFFINITY PREDICTED BY RF-SCORE:    0.00 PKD
ROOT
HETATM    1  C   UNL     1     -11.388  12.188  67.165  1.00  0.00    -0.393 C  
HETATM    2  C   UNL     1     -10.517  11.244  68.013  1.00  0.00    -0.188 C  
HETATM    3  C   UNL     1      -9.039  11.599  67.764  1.00  0.00    -0.175 C  
HETATM    4  C   UNL     1     -10.740   9.787  67.569  1.00  0.00    -0.327 C  
HETATM    5  N   UNL     1     -10.765  11.404  69.460  1.00  0.00    -0.440 NA 
HETATM    6  H   UNL     1     -10.452  12.323  69.775  1.00  0.00     0.000 HD 
ENDROOT
BRANCH   5   7
HETATM    7  C   UNL     1     -12.155  11.171  69.868  1.00  0.00    -0.344 C  
BRANCH   7   8
HETATM    8  C   UNL     1     -12.295  10.879  71.378  1.00  0.00    -0.298 C  
HETATM    9  H   UNL     1     -13.642  11.166  72.793  1.00  0.00     0.000 HD 
HETATM   10  O   UNL     1     -13.557  11.347  71.864  1.00  0.00    -0.251 OA 
BRANCH   8  11
HETATM   11  C   UNL     1     -12.152   9.362  71.602  1.00  0.00    -0.388 C  
BRANCH  11  12
HETATM   12  O   UNL     1     -10.783   9.025  71.827  1.00  0.00    -0.338 OA 
BRANCH  12  13
HETATM   13  C   UNL     1     -10.435   7.720  72.072  1.00  0.00    -0.224 A  
HETATM   14  C   UNL     1     -10.615   7.381  73.427  1.00  0.00    -0.427 A  
HETATM   15  C   UNL     1     -10.434   6.076  73.885  1.00  0.00    -0.286 A  
HETATM   16  C   UNL     1     -10.119   5.074  72.980  1.00  0.00    -0.202 A  
HETATM   17  C   UNL     1      -9.963   5.387  71.629  1.00  0.00    -0.186 A  
HETATM   18  C   UNL     1     -10.071   6.714  71.153  1.00  0.00    -0.202 A  
HETATM   19  C   UNL     1      -9.937   6.919  69.667  1.00  0.00    -0.179 C  
HETATM   20  C   UNL     1      -9.197   5.816  68.930  1.00  0.00    -0.127 C  
HETATM   21  C   UNL     1      -9.580   4.448  69.397  1.00  0.00    -0.199 C  
HETATM   22  N   UNL     1      -9.787   4.318  70.743  1.00  0.00    -0.204 N  
HETATM   23  O   UNL     1      -9.586   3.472  68.652  1.00  0.00    -0.157 OA 
HETATM   24  H   UNL     1      -9.816   3.374  71.129  1.00  0.00     0.000 HD 
ENDBRANCH  12  13
ENDBRANCH  11  12
ENDBRANCH   8  11
ENDBRANCH   7   8
ENDBRANCH   5   7
TORSDOF 5
ENDMDL
MODEL      164
REMARK 921   NORMALIZED FREE ENERGY PREDICTED BY IDOCK:   -4.34 KCAL/MOL
REMARK 922        TOTAL FREE ENERGY PREDICTED BY IDOCK:   -6.23 KCAL/MOL
REMARK 923 INTER-LIGAND FREE ENERGY PREDICTED BY IDOCK:   -5.68 KCAL/MOL
REMARK 924 INTRA-LIGAND FREE ENERGY PREDICTED BY IDOCK:   -0.55 KCAL/MOL
REMARK 927      BINDING AFFINITY PREDICTED BY RF-SCORE:    0.00 PKD
ROOT
HETATM    1  C   UNL     1     -10.673  14.958  64.721  1.00  0.00    -0.365 C  
HETATM    2  C   UNL     1     -11.151  13.538  65.069  1.00  0.00    -0.328 C  
HETATM    3  C   UNL     1     -11.710  12.890  63.789  1.00  0.00    -0.557 C  
HETATM    4  C   UNL     1     -12.289  13.608  66.105  1.00  0.00    -0.476 C  
HETATM    5  N   UNL     1     -10.049  12.678  65.547  1.00  0.00    -0.278 NA 
HETATM    6  H   UNL     1      -9.385  12.501  64.793  1.00  0.00     0.000 HD 
ENDROOT
BRANCH   5   7
HETATM    7  C   UNL     1      -9.350  13.188  66.732  1.00  0.00    -0.244 C  
BRANCH   7   8
HETATM    8  C   UNL     1      -8.217  12.253  67.207  1.00  0.00    -0.182 C  
HETATM    9  H   UNL     1      -6.255  12.339  67.410  1.00  0.00     0.000 HD 
HETATM   10  O   UNL     1      -6.951  12.914  67.117  1.00  0.00    -0.103 OA 
BRANCH   8  11
HETATM   11  C   UNL     1      -8.507  11.823  68.657  1.00  0.00    -0.068 C  
BRANCH  11  12
HETATM   12  O   UNL     1      -9.886  11.480  68.802  1.00  0.00    -0.201 OA 
BRANCH  12  13
HETATM   13  C   UNL     1     -10.232  10.236  69.266  1.00  0.00    -0.227 A  
HETATM   14  C   UNL     1     -10.801  10.302  70.552  1.00  0.00    -0.281 A  
HETATM   15  C   UNL     1     -11.333   9.174  71.176  1.00  0.00    -0.392 A  
HETATM   16  C   UNL     1     -11.350   7.964  70.497  1.00  0.00    -0.242 A  
HETATM   17  C   UNL     1     -10.814   7.886  69.211  1.00  0.00    -0.064 A  
HETATM   18  C   UNL     1     -10.205   9.000  68.587  1.00  0.00    -0.226 A  
HETATM   19  C   UNL     1      -9.713   8.807  67.177  1.00  0.00    -0.248 C  
HETATM   20  C   UNL     1      -9.440   7.366  66.784  1.00  0.00    -0.226 C  
HETATM   21  C   UNL     1     -10.491   6.421  67.272  1.00  0.00    -0.263 C  
HETATM   22  N   UNL     1     -10.986   6.681  68.521  1.00  0.00    -0.433 N  
HETATM   23  O   UNL     1     -10.805   5.405  66.659  1.00  0.00    -0.277 OA 
HETATM   24  H   UNL     1     -11.519   5.944  68.981  1.00  0.00     0.000 HD 
ENDBRANCH  12  13
ENDBRANCH  11  12
ENDBRANCH   8  11
ENDBRANCH   7   8
ENDBRANCH   5   7
TORSDOF 5
ENDMDL
MODEL      165
REMARK 921   NORMALIZED FREE ENERGY PREDICTED BY IDOCK:   -4.34 KCAL/MOL
REMARK 922        TOTAL FREE ENERGY PREDICTED BY IDOCK:   -6.23 KCAL/MOL
REMARK 923 INTER-LIGAND FREE ENERGY PREDICTED BY IDOCK:   -5.63 KCAL/MOL
REMARK 924 INTRA-LIGAND FREE ENERGY PREDICTED BY IDOCK:   -0.60 KCAL/MOL
REMARK 927      BINDING AFFINITY PREDICTED BY RF-SCORE:    0.00 PKD
ROOT
HETATM    1  C   UNL     1     -13.575   9.380  70.566  1.00  0.00     0.454 C  
HETATM    2  C   UNL     1     -12.294  10.183  70.857  1.00  0.00    -0.363 C  
HETATM    3  C   UNL     1     -11.457   9.400  71.885  1.00  0.00    -0.308 C  
HETATM    4  C   UNL     1     -12.660  11.545  71.476  1.00  0.00    -0.363 C  
HETATM    5  N   UNL     1     -11.457  10.354  69.652  1.00  0.00    -0.282 NA 
HETATM    6  H   UNL     1     -11.080   9.455  69.351  1.00  0.00     0.000 HD 
ENDROOT
BRANCH   5   7
HETATM    7  C   UNL     1     -12.129  11.025  68.534  1.00  0.00     0.004 C  
BRANCH   7   8
HETATM    8  C   UNL     1     -11.170  11.355  67.370  1.00  0.00    -0.305 C  
HETATM    9  H   UNL     1     -11.318  11.940  65.490  1.00  0.00     0.000 HD 
HETATM   10  O   UNL     1     -11.908  11.737  66.206  1.00  0.00    -0.501 OA 
BRANCH   8  11
HETATM   11  C   UNL     1     -10.226  12.488  67.814  1.00  0.00    -0.217 C  
BRANCH  11  12
HETATM   12  O   UNL     1     -10.661  13.734  67.268  1.00  0.00    -0.279 OA 
BRANCH  12  13
HETATM   13  C   UNL     1     -10.844  14.812  68.096  1.00  0.00    -0.254 A  
HETATM   14  C   UNL     1     -11.152  14.411  69.410  1.00  0.00    -0.294 A  
HETATM   15  C   UNL     1     -11.268  15.333  70.450  1.00  0.00    -0.325 A  
HETATM   16  C   UNL     1     -11.024  16.676  70.199  1.00  0.00    -0.110 A  
HETATM   17  C   UNL     1     -10.691  17.089  68.908  1.00  0.00    -0.300 A  
HETATM   18  C   UNL     1     -10.639  16.181  67.825  1.00  0.00    -0.309 A  
HETATM   19  C   UNL     1     -10.215  16.736  66.491  1.00  0.00    -0.319 C  
HETATM   20  C   UNL     1     -10.404  18.234  66.328  1.00  0.00    -0.422 C  
HETATM   21  C   UNL     1     -10.002  19.006  67.545  1.00  0.00    -0.349 C  
HETATM   22  N   UNL     1     -10.318  18.427  68.744  1.00  0.00    -0.434 N  
HETATM   23  O   UNL     1      -9.535  20.140  67.485  1.00  0.00    -0.355 OA 
HETATM   24  H   UNL     1     -10.278  19.014  69.577  1.00  0.00     0.000 HD 
ENDBRANCH  12  13
ENDBRANCH  11  12
ENDBRANCH   8  11
ENDBRANCH   7   8
ENDBRANCH   5   7
TORSDOF 5
ENDMDL
MODEL      166
REMARK 921   NORMALIZED FREE ENERGY PREDICTED BY IDOCK:   -4.34 KCAL/MOL
REMARK 922        TOTAL FREE ENERGY PREDICTED BY IDOCK:   -6.23 KCAL/MOL
REMARK 923 INTER-LIGAND FREE ENERGY PREDICTED BY IDOCK:   -5.82 KCAL/MOL
REMARK 924 INTRA-LIGAND FREE ENERGY PREDICTED BY IDOCK:   -0.41 KCAL/MOL
REMARK 927      BINDING AFFINITY PREDICTED BY RF-SCORE:    0.00 PKD
ROOT
HETATM    1  C   UNL     1      -9.561   8.976  65.772  1.00  0.00    -0.287 C  
HETATM    2  C   UNL     1      -8.284   9.380  66.529  1.00  0.00    -0.115 C  
HETATM    3  C   UNL     1      -7.444  10.286  65.610  1.00  0.00    -0.149 C  
HETATM    4  C   UNL     1      -7.451   8.126  66.855  1.00  0.00    -0.091 C  
HETATM    5  N   UNL     1      -8.581  10.154  67.752  1.00  0.00    -0.118 NA 
HETATM    6  H   UNL     1      -8.980  11.061  67.509  1.00  0.00     0.000 HD 
ENDROOT
BRANCH   5   7
HETATM    7  C   UNL     1      -9.440   9.460  68.718  1.00  0.00    -0.150 C  
BRANCH   7   8
HETATM    8  C   UNL     1     -10.812  10.145  68.900  1.00  0.00    -0.223 C  
HETATM    9  H   UNL     1     -12.215  10.237  70.286  1.00  0.00     0.000 HD 
HETATM   10  O   UNL     1     -11.372   9.815  70.174  1.00  0.00    -0.247 OA 
BRANCH   8  11
HETATM   11  C   UNL     1     -10.625  11.668  68.764  1.00  0.00    -0.212 C  
BRANCH  11  12
HETATM   12  O   UNL     1     -11.883  12.331  68.900  1.00  0.00    -0.305 OA 
BRANCH  12  13
HETATM   13  C   UNL     1     -11.946  13.544  69.540  1.00  0.00    -0.334 A  
HETATM   14  C   UNL     1     -12.427  13.410  70.857  1.00  0.00    -0.439 A  
HETATM   15  C   UNL     1     -12.469  14.493  71.735  1.00  0.00    -0.420 A  
HETATM   16  C   UNL     1     -11.978  15.723  71.322  1.00  0.00    -0.485 A  
HETATM   17  C   UNL     1     -11.473  15.868  70.029  1.00  0.00    -0.354 A  
HETATM   18  C   UNL     1     -11.487  14.802  69.099  1.00  0.00    -0.323 A  
HETATM   19  C   UNL     1     -10.864  15.063  67.753  1.00  0.00    -0.284 C  
HETATM   20  C   UNL     1     -10.779  16.527  67.358  1.00  0.00    -0.260 C  
HETATM   21  C   UNL     1     -10.353  17.410  68.488  1.00  0.00    -0.378 C  
HETATM   22  N   UNL     1     -10.863  17.087  69.715  1.00  0.00    -0.340 N  
HETATM   23  O   UNL     1      -9.695  18.433  68.317  1.00  0.00    -0.309 OA 
HETATM   24  H   UNL     1     -10.793  17.786  70.456  1.00  0.00     0.000 HD 
ENDBRANCH  12  13
ENDBRANCH  11  12
ENDBRANCH   8  11
ENDBRANCH   7   8
ENDBRANCH   5   7
TORSDOF 5
ENDMDL
MODEL      167
REMARK 921   NORMALIZED FREE ENERGY PREDICTED BY IDOCK:   -4.33 KCAL/MOL
REMARK 922        TOTAL FREE ENERGY PREDICTED BY IDOCK:   -6.22 KCAL/MOL
REMARK 923 INTER-LIGAND FREE ENERGY PREDICTED BY IDOCK:   -5.68 KCAL/MOL
REMARK 924 INTRA-LIGAND FREE ENERGY PREDICTED BY IDOCK:   -0.54 KCAL/MOL
REMARK 927      BINDING AFFINITY PREDICTED BY RF-SCORE:    0.00 PKD
ROOT
HETATM    1  C   UNL     1     -10.772   7.681  67.369  1.00  0.00    -0.318 C  
HETATM    2  C   UNL     1      -9.496   8.537  67.270  1.00  0.00    -0.157 C  
HETATM    3  C   UNL     1      -8.986   8.477  65.819  1.00  0.00    -0.229 C  
HETATM    4  C   UNL     1      -8.403   7.953  68.185  1.00  0.00    -0.124 C  
HETATM    5  N   UNL     1      -9.751   9.957  67.585  1.00  0.00    -0.152 NA 
HETATM    6  H   UNL     1     -10.345  10.378  66.871  1.00  0.00     0.000 HD 
ENDROOT
BRANCH   5   7
HETATM    7  C   UNL     1     -10.313  10.194  68.920  1.00  0.00    -0.206 C  
BRANCH   7   8
HETATM    8  C   UNL     1     -11.700  10.872  68.875  1.00  0.00    -0.306 C  
HETATM    9  H   UNL     1     -13.227  11.134  70.098  1.00  0.00     0.000 HD 
HETATM   10  O   UNL     1     -12.375  10.716  70.126  1.00  0.00    -0.304 OA 
BRANCH   8  11
HETATM   11  C   UNL     1     -11.510  12.362  68.538  1.00  0.00    -0.306 C  
BRANCH  11  12
HETATM   12  O   UNL     1     -10.495  12.517  67.545  1.00  0.00    -0.216 OA 
BRANCH  12  13
HETATM   13  C   UNL     1     -10.699  13.371  66.491  1.00  0.00    -0.286 A  
HETATM   14  C   UNL     1     -11.317  12.718  65.407  1.00  0.00    -0.339 A  
HETATM   15  C   UNL     1     -11.725  13.414  64.269  1.00  0.00    -0.455 A  
HETATM   16  C   UNL     1     -11.569  14.791  64.221  1.00  0.00    -0.215 A  
HETATM   17  C   UNL     1     -10.983  15.459  65.297  1.00  0.00    -0.387 A  
HETATM   18  C   UNL     1     -10.497  14.766  66.430  1.00  0.00    -0.294 A  
HETATM   19  C   UNL     1      -9.936  15.600  67.551  1.00  0.00    -0.231 C  
HETATM   20  C   UNL     1      -9.473  16.989  67.149  1.00  0.00    -0.245 C  
HETATM   21  C   UNL     1     -10.415  17.664  66.203  1.00  0.00    -0.295 C  
HETATM   22  N   UNL     1     -10.981  16.858  65.255  1.00  0.00    -0.167 N  
HETATM   23  O   UNL     1     -10.579  18.881  66.189  1.00  0.00    -0.446 OA 
HETATM   24  H   UNL     1     -11.434  17.308  64.459  1.00  0.00     0.000 HD 
ENDBRANCH  12  13
ENDBRANCH  11  12
ENDBRANCH   8  11
ENDBRANCH   7   8
ENDBRANCH   5   7
TORSDOF 5
ENDMDL
MODEL      168
REMARK 921   NORMALIZED FREE ENERGY PREDICTED BY IDOCK:   -4.32 KCAL/MOL
REMARK 922        TOTAL FREE ENERGY PREDICTED BY IDOCK:   -6.22 KCAL/MOL
REMARK 923 INTER-LIGAND FREE ENERGY PREDICTED BY IDOCK:   -5.87 KCAL/MOL
REMARK 924 INTRA-LIGAND FREE ENERGY PREDICTED BY IDOCK:   -0.35 KCAL/MOL
REMARK 927      BINDING AFFINITY PREDICTED BY RF-SCORE:    0.00 PKD
ROOT
HETATM    1  C   UNL     1     -10.474  13.339  65.010  1.00  0.00    -0.367 C  
HETATM    2  C   UNL     1     -11.661  13.514  65.975  1.00  0.00    -0.359 C  
HETATM    3  C   UNL     1     -12.891  13.944  65.153  1.00  0.00    -0.383 C  
HETATM    4  C   UNL     1     -11.350  14.630  66.989  1.00  0.00    -0.362 C  
HETATM    5  N   UNL     1     -12.013  12.254  66.660  1.00  0.00    -0.622 NA 
HETATM    6  H   UNL     1     -12.380  11.577  65.992  1.00  0.00     0.000 HD 
ENDROOT
BRANCH   5   7
HETATM    7  C   UNL     1     -10.922  11.660  67.441  1.00  0.00    -0.261 C  
BRANCH   7   8
HETATM    8  C   UNL     1     -10.955  10.117  67.439  1.00  0.00    -0.229 C  
HETATM    9  H   UNL     1     -10.238   8.651  66.327  1.00  0.00     0.000 HD 
HETATM   10  O   UNL     1     -10.217   9.601  66.327  1.00  0.00    -0.260 OA 
BRANCH   8  11
HETATM   11  C   UNL     1     -10.366   9.609  68.768  1.00  0.00    -0.213 C  
BRANCH  11  12
HETATM   12  O   UNL     1     -10.570   8.201  68.890  1.00  0.00    -0.212 OA 
BRANCH  12  13
HETATM   13  C   UNL     1     -10.633   7.628  70.135  1.00  0.00    -0.236 A  
HETATM   14  C   UNL     1     -11.239   8.488  71.072  1.00  0.00    -0.312 A  
HETATM   15  C   UNL     1     -11.514   8.074  72.375  1.00  0.00    -0.449 A  
HETATM   16  C   UNL     1     -11.233   6.768  72.749  1.00  0.00    -0.267 A  
HETATM   17  C   UNL     1     -10.656   5.894  71.826  1.00  0.00    -0.234 A  
HETATM   18  C   UNL     1     -10.303   6.312  70.522  1.00  0.00    -0.255 A  
HETATM   19  C   UNL     1      -9.739   5.264  69.599  1.00  0.00    -0.250 C  
HETATM   20  C   UNL     1      -9.131   4.058  70.293  1.00  0.00    -0.181 C  
HETATM   21  C   UNL     1      -9.949   3.577  71.448  1.00  0.00    -0.081 C  
HETATM   22  N   UNL     1     -10.527   4.555  72.211  1.00  0.00    -0.177 N  
HETATM   23  O   UNL     1     -10.003   2.395  71.776  1.00  0.00    -0.157 OA 
HETATM   24  H   UNL     1     -10.888   4.289  73.127  1.00  0.00     0.000 HD 
ENDBRANCH  12  13
ENDBRANCH  11  12
ENDBRANCH   8  11
ENDBRANCH   7   8
ENDBRANCH   5   7
TORSDOF 5
ENDMDL
MODEL      169
REMARK 921   NORMALIZED FREE ENERGY PREDICTED BY IDOCK:   -4.32 KCAL/MOL
REMARK 922        TOTAL FREE ENERGY PREDICTED BY IDOCK:   -6.21 KCAL/MOL
REMARK 923 INTER-LIGAND FREE ENERGY PREDICTED BY IDOCK:   -5.30 KCAL/MOL
REMARK 924 INTRA-LIGAND FREE ENERGY PREDICTED BY IDOCK:   -0.92 KCAL/MOL
REMARK 927      BINDING AFFINITY PREDICTED BY RF-SCORE:    0.00 PKD
ROOT
HETATM    1  C   UNL     1      -8.295   5.393  65.646  1.00  0.00    -0.130 C  
HETATM    2  C   UNL     1      -8.649   6.340  66.807  1.00  0.00    -0.116 C  
HETATM    3  C   UNL     1      -8.026   5.775  68.097  1.00  0.00    -0.104 C  
HETATM    4  C   UNL     1     -10.177   6.389  66.995  1.00  0.00    -0.264 C  
HETATM    5  N   UNL     1      -8.093   7.694  66.611  1.00  0.00    -0.116 NA 
HETATM    6  H   UNL     1      -7.074   7.671  66.659  1.00  0.00     0.000 HD 
ENDROOT
BRANCH   5   7
HETATM    7  C   UNL     1      -8.530   8.360  65.379  1.00  0.00    -0.176 C  
BRANCH   7   8
HETATM    8  C   UNL     1      -8.787   9.870  65.571  1.00  0.00    -0.159 C  
HETATM    9  H   UNL     1     -10.236  11.156  65.191  1.00  0.00     0.000 HD 
HETATM   10  O   UNL     1     -10.079  10.226  65.072  1.00  0.00    -0.323 OA 
BRANCH   8  11
HETATM   11  C   UNL     1      -8.669  10.204  67.070  1.00  0.00    -0.132 C  
BRANCH  11  12
HETATM   12  O   UNL     1      -9.782   9.664  67.783  1.00  0.00    -0.141 OA 
BRANCH  12  13
HETATM   13  C   UNL     1     -10.474  10.456  68.664  1.00  0.00    -0.196 A  
HETATM   14  C   UNL     1     -10.505  11.799  68.241  1.00  0.00    -0.224 A  
HETATM   15  C   UNL     1     -11.249  12.764  68.919  1.00  0.00    -0.332 A  
HETATM   16  C   UNL     1     -12.020  12.387  70.009  1.00  0.00    -0.372 A  
HETATM   17  C   UNL     1     -12.022  11.055  70.428  1.00  0.00    -0.368 A  
HETATM   18  C   UNL     1     -11.221  10.074  69.799  1.00  0.00    -0.307 A  
HETATM   19  C   UNL     1     -11.350   8.662  70.304  1.00  0.00    -0.146 C  
HETATM   20  C   UNL     1     -11.889   8.532  71.718  1.00  0.00    -0.395 C  
HETATM   21  C   UNL     1     -13.029   9.460  71.993  1.00  0.00    -0.423 C  
HETATM   22  N   UNL     1     -12.924  10.706  71.439  1.00  0.00    -0.422 N  
HETATM   23  O   UNL     1     -13.941   9.178  72.765  1.00  0.00    -0.450 OA 
HETATM   24  H   UNL     1     -13.549  11.434  71.788  1.00  0.00     0.000 HD 
ENDBRANCH  12  13
ENDBRANCH  11  12
ENDBRANCH   8  11
ENDBRANCH   7   8
ENDBRANCH   5   7
TORSDOF 5
ENDMDL
MODEL      170
REMARK 921   NORMALIZED FREE ENERGY PREDICTED BY IDOCK:   -4.29 KCAL/MOL
REMARK 922        TOTAL FREE ENERGY PREDICTED BY IDOCK:   -6.17 KCAL/MOL
REMARK 923 INTER-LIGAND FREE ENERGY PREDICTED BY IDOCK:   -5.59 KCAL/MOL
REMARK 924 INTRA-LIGAND FREE ENERGY PREDICTED BY IDOCK:   -0.58 KCAL/MOL
REMARK 927      BINDING AFFINITY PREDICTED BY RF-SCORE:    0.00 PKD
ROOT
HETATM    1  C   UNL     1     -10.465   8.913  72.143  1.00  0.00    -0.320 C  
HETATM    2  C   UNL     1     -11.695   8.714  71.240  1.00  0.00    -0.289 C  
HETATM    3  C   UNL     1     -12.657   9.895  71.468  1.00  0.00    -0.513 C  
HETATM    4  C   UNL     1     -12.429   7.418  71.635  1.00  0.00    -0.381 C  
HETATM    5  N   UNL     1     -11.341   8.710  69.807  1.00  0.00    -0.446 NA 
HETATM    6  H   UNL     1     -11.014   9.632  69.519  1.00  0.00     0.000 HD 
ENDROOT
BRANCH   5   7
HETATM    7  C   UNL     1     -10.369   7.681  69.423  1.00  0.00    -0.214 C  
BRANCH   7   8
HETATM    8  C   UNL     1      -9.381   8.164  68.339  1.00  0.00    -0.135 C  
HETATM    9  H   UNL     1      -7.667   7.562  67.565  1.00  0.00     0.000 HD 
HETATM   10  O   UNL     1      -8.274   7.265  68.233  1.00  0.00    -0.122 OA 
BRANCH   8  11
HETATM   11  C   UNL     1     -10.131   8.267  66.998  1.00  0.00    -0.283 C  
BRANCH  11  12
HETATM   12  O   UNL     1     -10.640   9.589  66.819  1.00  0.00    -0.212 OA 
BRANCH  12  13
HETATM   13  C   UNL     1      -9.907  10.664  67.255  1.00  0.00    -0.176 A  
HETATM   14  C   UNL     1      -8.592  10.635  66.750  1.00  0.00    -0.129 A  
HETATM   15  C   UNL     1      -7.700  11.685  66.968  1.00  0.00    -0.159 A  
HETATM   16  C   UNL     1      -8.130  12.812  67.654  1.00  0.00    -0.175 A  
HETATM   17  C   UNL     1      -9.438  12.870  68.138  1.00  0.00    -0.218 A  
HETATM   18  C   UNL     1     -10.337  11.788  67.992  1.00  0.00    -0.212 A  
HETATM   19  C   UNL     1     -11.737  11.990  68.507  1.00  0.00    -0.387 C  
HETATM   20  C   UNL     1     -11.883  13.071  69.563  1.00  0.00    -0.385 C  
HETATM   21  C   UNL     1     -11.089  14.300  69.251  1.00  0.00    -0.265 C  
HETATM   22  N   UNL     1      -9.858  14.083  68.695  1.00  0.00    -0.299 N  
HETATM   23  O   UNL     1     -11.452  15.425  69.583  1.00  0.00    -0.274 OA 
HETATM   24  H   UNL     1      -9.199  14.861  68.686  1.00  0.00     0.000 HD 
ENDBRANCH  12  13
ENDBRANCH  11  12
ENDBRANCH   8  11
ENDBRANCH   7   8
ENDBRANCH   5   7
TORSDOF 5
ENDMDL
MODEL      171
REMARK 921   NORMALIZED FREE ENERGY PREDICTED BY IDOCK:   -4.28 KCAL/MOL
REMARK 922        TOTAL FREE ENERGY PREDICTED BY IDOCK:   -6.16 KCAL/MOL
REMARK 923 INTER-LIGAND FREE ENERGY PREDICTED BY IDOCK:   -5.18 KCAL/MOL
REMARK 924 INTRA-LIGAND FREE ENERGY PREDICTED BY IDOCK:   -0.98 KCAL/MOL
REMARK 927      BINDING AFFINITY PREDICTED BY RF-SCORE:    0.00 PKD
ROOT
HETATM    1  C   UNL     1     -10.213  13.490  64.756  1.00  0.00    -0.355 C  
HETATM    2  C   UNL     1     -11.687  13.068  64.884  1.00  0.00    -0.341 C  
HETATM    3  C   UNL     1     -12.016  12.105  63.728  1.00  0.00    -0.607 C  
HETATM    4  C   UNL     1     -12.598  14.303  64.750  1.00  0.00    -0.310 C  
HETATM    5  N   UNL     1     -11.954  12.345  66.144  1.00  0.00    -0.608 NA 
HETATM    6  H   UNL     1     -11.475  11.444  66.144  1.00  0.00     0.000 HD 
ENDROOT
BRANCH   5   7
HETATM    7  C   UNL     1     -11.626  13.098  67.359  1.00  0.00    -0.356 C  
BRANCH   7   8
HETATM    8  C   UNL     1     -11.246  12.185  68.545  1.00  0.00    -0.260 C  
HETATM    9  H   UNL     1     -12.113  10.785  69.634  1.00  0.00     0.000 HD 
HETATM   10  O   UNL     1     -12.347  11.346  68.905  1.00  0.00    -0.446 OA 
BRANCH   8  11
HETATM   11  C   UNL     1     -10.022  11.340  68.147  1.00  0.00    -0.181 C  
BRANCH  11  12
HETATM   12  O   UNL     1     -10.442  10.160  67.461  1.00  0.00    -0.217 OA 
BRANCH  12  13
HETATM   13  C   UNL     1      -9.533   9.166  67.198  1.00  0.00    -0.154 A  
HETATM   14  C   UNL     1      -9.250   8.405  68.349  1.00  0.00    -0.135 A  
HETATM   15  C   UNL     1      -8.440   7.270  68.295  1.00  0.00    -0.124 A  
HETATM   16  C   UNL     1      -7.941   6.847  67.072  1.00  0.00    -0.116 A  
HETATM   17  C   UNL     1      -8.233   7.574  65.917  1.00  0.00    -0.134 A  
HETATM   18  C   UNL     1      -8.992   8.767  65.958  1.00  0.00    -0.235 A  
HETATM   19  C   UNL     1      -9.288   9.433  64.640  1.00  0.00    -0.112 C  
HETATM   20  C   UNL     1      -8.335   9.077  63.512  1.00  0.00    -0.182 C  
HETATM   21  C   UNL     1      -7.993   7.621  63.478  1.00  0.00    -0.091 C  
HETATM   22  N   UNL     1      -7.824   7.024  64.697  1.00  0.00    -0.119 N  
HETATM   23  O   UNL     1      -7.752   7.022  62.433  1.00  0.00    -0.099 OA 
HETATM   24  H   UNL     1      -7.367   6.113  64.718  1.00  0.00     0.000 HD 
ENDBRANCH  12  13
ENDBRANCH  11  12
ENDBRANCH   8  11
ENDBRANCH   7   8
ENDBRANCH   5   7
TORSDOF 5
ENDMDL
MODEL      172
REMARK 921   NORMALIZED FREE ENERGY PREDICTED BY IDOCK:   -4.27 KCAL/MOL
REMARK 922        TOTAL FREE ENERGY PREDICTED BY IDOCK:   -6.15 KCAL/MOL
REMARK 923 INTER-LIGAND FREE ENERGY PREDICTED BY IDOCK:   -5.47 KCAL/MOL
REMARK 924 INTRA-LIGAND FREE ENERGY PREDICTED BY IDOCK:   -0.68 KCAL/MOL
REMARK 927      BINDING AFFINITY PREDICTED BY RF-SCORE:    0.00 PKD
ROOT
HETATM    1  C   UNL     1      -8.744   9.574  64.042  1.00  0.00    -0.239 C  
HETATM    2  C   UNL     1      -7.682   9.162  65.077  1.00  0.00    -0.109 C  
HETATM    3  C   UNL     1      -6.602  10.259  65.122  1.00  0.00    -0.121 C  
HETATM    4  C   UNL     1      -7.010   7.847  64.642  1.00  0.00    -0.067 C  
HETATM    5  N   UNL     1      -8.244   9.048  66.438  1.00  0.00    -0.110 NA 
HETATM    6  H   UNL     1      -8.533   9.964  66.782  1.00  0.00     0.000 HD 
ENDROOT
BRANCH   5   7
HETATM    7  C   UNL     1      -9.346   8.087  66.563  1.00  0.00    -0.205 C  
BRANCH   7   8
HETATM    8  C   UNL     1     -10.519   8.626  67.410  1.00  0.00    -0.281 C  
HETATM    9  H   UNL     1     -11.324   8.257  69.175  1.00  0.00     0.000 HD 
HETATM   10  O   UNL     1     -10.603   7.925  68.654  1.00  0.00    -0.190 OA 
BRANCH   8  11
HETATM   11  C   UNL     1     -10.306  10.133  67.646  1.00  0.00    -0.219 C  
BRANCH  11  12
HETATM   12  O   UNL     1     -11.415  10.873  67.135  1.00  0.00    -0.428 OA 
BRANCH  12  13
HETATM   13  C   UNL     1     -11.196  12.048  66.460  1.00  0.00    -0.334 A  
HETATM   14  C   UNL     1     -11.348  11.884  65.070  1.00  0.00    -0.333 A  
HETATM   15  C   UNL     1     -11.285  12.968  64.194  1.00  0.00    -0.439 A  
HETATM   16  C   UNL     1     -11.120  14.247  64.704  1.00  0.00    -0.371 A  
HETATM   17  C   UNL     1     -10.994  14.431  66.082  1.00  0.00    -0.320 A  
HETATM   18  C   UNL     1     -10.983  13.341  66.983  1.00  0.00    -0.291 A  
HETATM   19  C   UNL     1     -10.897  13.669  68.450  1.00  0.00    -0.274 C  
HETATM   20  C   UNL     1     -10.313  15.034  68.770  1.00  0.00    -0.240 C  
HETATM   21  C   UNL     1     -10.816  16.109  67.860  1.00  0.00    -0.332 C  
HETATM   22  N   UNL     1     -10.974  15.750  66.550  1.00  0.00    -0.230 N  
HETATM   23  O   UNL     1     -10.960  17.272  68.226  1.00  0.00    -0.336 OA 
HETATM   24  H   UNL     1     -11.084  16.497  65.864  1.00  0.00     0.000 HD 
ENDBRANCH  12  13
ENDBRANCH  11  12
ENDBRANCH   8  11
ENDBRANCH   7   8
ENDBRANCH   5   7
TORSDOF 5
ENDMDL
MODEL      173
REMARK 921   NORMALIZED FREE ENERGY PREDICTED BY IDOCK:   -4.26 KCAL/MOL
REMARK 922        TOTAL FREE ENERGY PREDICTED BY IDOCK:   -6.14 KCAL/MOL
REMARK 923 INTER-LIGAND FREE ENERGY PREDICTED BY IDOCK:   -5.48 KCAL/MOL
REMARK 924 INTRA-LIGAND FREE ENERGY PREDICTED BY IDOCK:   -0.66 KCAL/MOL
REMARK 927      BINDING AFFINITY PREDICTED BY RF-SCORE:    0.00 PKD
ROOT
HETATM    1  C   UNL     1      -7.143   9.827  70.288  1.00  0.00    -0.145 C  
HETATM    2  C   UNL     1      -7.558   8.359  70.084  1.00  0.00    -0.070 C  
HETATM    3  C   UNL     1      -7.205   7.576  71.362  1.00  0.00    -0.070 C  
HETATM    4  C   UNL     1      -6.762   7.749  68.915  1.00  0.00    -0.050 C  
HETATM    5  N   UNL     1      -9.012   8.214  69.872  1.00  0.00    -0.143 NA 
HETATM    6  H   UNL     1      -9.522   8.463  70.720  1.00  0.00     0.000 HD 
ENDROOT
BRANCH   5   7
HETATM    7  C   UNL     1      -9.537   8.962  68.723  1.00  0.00    -0.157 C  
BRANCH   7   8
HETATM    8  C   UNL     1     -10.861   9.691  69.037  1.00  0.00    -0.183 C  
HETATM    9  H   UNL     1     -11.524  10.985  70.374  1.00  0.00     0.000 HD 
HETATM   10  O   UNL     1     -10.709  10.536  70.181  1.00  0.00    -0.268 OA 
BRANCH   8  11
HETATM   11  C   UNL     1     -11.278  10.511  67.803  1.00  0.00    -0.273 C  
BRANCH  11  12
HETATM   12  O   UNL     1     -10.123  11.035  67.147  1.00  0.00    -0.184 OA 
BRANCH  12  13
HETATM   13  C   UNL     1      -9.872  12.384  67.185  1.00  0.00    -0.205 A  
HETATM   14  C   UNL     1      -8.787  12.687  68.030  1.00  0.00    -0.195 A  
HETATM   15  C   UNL     1      -8.280  13.982  68.135  1.00  0.00    -0.155 A  
HETATM   16  C   UNL     1      -8.821  14.990  67.351  1.00  0.00    -0.202 A  
HETATM   17  C   UNL     1      -9.879  14.703  66.488  1.00  0.00    -0.275 A  
HETATM   18  C   UNL     1     -10.456  13.414  66.418  1.00  0.00    -0.286 A  
HETATM   19  C   UNL     1     -11.556  13.212  65.409  1.00  0.00    -0.362 C  
HETATM   20  C   UNL     1     -12.269  14.481  64.975  1.00  0.00    -0.376 C  
HETATM   21  C   UNL     1     -11.333  15.623  64.741  1.00  0.00    -0.343 C  
HETATM   22  N   UNL     1     -10.289  15.722  65.620  1.00  0.00    -0.363 N  
HETATM   23  O   UNL     1     -11.546  16.493  63.901  1.00  0.00    -1.175 OA 
HETATM   24  H   UNL     1      -9.772  16.601  65.645  1.00  0.00     0.000 HD 
ENDBRANCH  12  13
ENDBRANCH  11  12
ENDBRANCH   8  11
ENDBRANCH   7   8
ENDBRANCH   5   7
TORSDOF 5
ENDMDL
MODEL      174
REMARK 921   NORMALIZED FREE ENERGY PREDICTED BY IDOCK:   -4.25 KCAL/MOL
REMARK 922        TOTAL FREE ENERGY PREDICTED BY IDOCK:   -6.12 KCAL/MOL
REMARK 923 INTER-LIGAND FREE ENERGY PREDICTED BY IDOCK:   -5.51 KCAL/MOL
REMARK 924 INTRA-LIGAND FREE ENERGY PREDICTED BY IDOCK:   -0.61 KCAL/MOL
REMARK 927      BINDING AFFINITY PREDICTED BY RF-SCORE:    0.00 PKD
ROOT
HETATM    1  C   UNL     1     -11.256  12.548  63.735  1.00  0.00    -0.524 C  
HETATM    2  C   UNL     1     -11.394  13.254  65.096  1.00  0.00    -0.297 C  
HETATM    3  C   UNL     1     -12.834  13.784  65.220  1.00  0.00    -0.430 C  
HETATM    4  C   UNL     1     -10.434  14.456  65.161  1.00  0.00    -0.437 C  
HETATM    5  N   UNL     1     -11.170  12.332  66.228  1.00  0.00    -0.306 NA 
HETATM    6  H   UNL     1     -11.915  11.636  66.273  1.00  0.00     0.000 HD 
ENDROOT
BRANCH   5   7
HETATM    7  C   UNL     1      -9.858  11.675  66.227  1.00  0.00    -0.219 C  
BRANCH   7   8
HETATM    8  C   UNL     1      -9.953  10.147  66.025  1.00  0.00    -0.256 C  
HETATM    9  H   UNL     1      -8.740   8.671  65.527  1.00  0.00     0.000 HD 
HETATM   10  O   UNL     1      -8.681   9.611  65.651  1.00  0.00    -0.129 OA 
BRANCH   8  11
HETATM   11  C   UNL     1     -10.453   9.506  67.332  1.00  0.00    -0.272 C  
BRANCH  11  12
HETATM   12  O   UNL     1     -10.253  10.401  68.427  1.00  0.00    -0.154 OA 
BRANCH  12  13
HETATM   13  C   UNL     1     -10.310   9.925  69.713  1.00  0.00    -0.246 A  
HETATM   14  C   UNL     1     -11.639   9.806  70.164  1.00  0.00    -0.239 A  
HETATM   15  C   UNL     1     -11.945   9.235  71.400  1.00  0.00    -0.424 A  
HETATM   16  C   UNL     1     -10.922   8.724  72.185  1.00  0.00    -0.404 A  
HETATM   17  C   UNL     1      -9.601   8.810  71.743  1.00  0.00    -0.301 A  
HETATM   18  C   UNL     1      -9.261   9.448  70.527  1.00  0.00    -0.314 A  
HETATM   19  C   UNL     1      -7.809   9.428  70.129  1.00  0.00    -0.148 C  
HETATM   20  C   UNL     1      -6.833   9.216  71.273  1.00  0.00    -0.070 C  
HETATM   21  C   UNL     1      -7.288   8.169  72.239  1.00  0.00    -0.102 C  
HETATM   22  N   UNL     1      -8.629   8.154  72.506  1.00  0.00    -0.176 N  
HETATM   23  O   UNL     1      -6.505   7.451  72.855  1.00  0.00    -0.058 OA 
HETATM   24  H   UNL     1      -8.944   7.626  73.321  1.00  0.00     0.000 HD 
ENDBRANCH  12  13
ENDBRANCH  11  12
ENDBRANCH   8  11
ENDBRANCH   7   8
ENDBRANCH   5   7
TORSDOF 5
ENDMDL
MODEL      175
REMARK 921   NORMALIZED FREE ENERGY PREDICTED BY IDOCK:   -4.24 KCAL/MOL
REMARK 922        TOTAL FREE ENERGY PREDICTED BY IDOCK:   -6.11 KCAL/MOL
REMARK 923 INTER-LIGAND FREE ENERGY PREDICTED BY IDOCK:   -5.35 KCAL/MOL
REMARK 924 INTRA-LIGAND FREE ENERGY PREDICTED BY IDOCK:   -0.75 KCAL/MOL
REMARK 927      BINDING AFFINITY PREDICTED BY RF-SCORE:    0.00 PKD
ROOT
HETATM    1  C   UNL     1      -8.032   7.824  64.825  1.00  0.00    -0.142 C  
HETATM    2  C   UNL     1      -8.767   8.453  66.022  1.00  0.00    -0.157 C  
HETATM    3  C   UNL     1      -9.458   7.324  66.810  1.00  0.00    -0.218 C  
HETATM    4  C   UNL     1      -9.855   9.420  65.519  1.00  0.00    -0.231 C  
HETATM    5  N   UNL     1      -7.841   9.130  66.953  1.00  0.00    -0.098 NA 
HETATM    6  H   UNL     1      -7.235   8.449  67.409  1.00  0.00     0.000 HD 
ENDROOT
BRANCH   5   7
HETATM    7  C   UNL     1      -7.041  10.199  66.344  1.00  0.00    -0.107 C  
BRANCH   7   8
HETATM    8  C   UNL     1      -6.473  11.188  67.384  1.00  0.00    -0.071 C  
HETATM    9  H   UNL     1      -5.302  12.778  67.386  1.00  0.00     0.000 HD 
HETATM   10  O   UNL     1      -5.651  12.170  66.746  1.00  0.00    -0.301 OA 
BRANCH   8  11
HETATM   11  C   UNL     1      -7.647  11.856  68.124  1.00  0.00    -0.121 C  
BRANCH  11  12
HETATM   12  O   UNL     1      -8.072  13.023  67.420  1.00  0.00    -0.168 OA 
BRANCH  12  13
HETATM   13  C   UNL     1      -9.408  13.324  67.346  1.00  0.00    -0.217 A  
HETATM   14  C   UNL     1      -9.904  13.791  68.579  1.00  0.00    -0.204 A  
HETATM   15  C   UNL     1     -11.209  14.264  68.711  1.00  0.00    -0.286 A  
HETATM   16  C   UNL     1     -12.027  14.328  67.593  1.00  0.00    -0.400 A  
HETATM   17  C   UNL     1     -11.544  13.894  66.357  1.00  0.00    -0.367 A  
HETATM   18  C   UNL     1     -10.250  13.343  66.214  1.00  0.00    -0.298 A  
HETATM   19  C   UNL     1      -9.821  12.962  64.821  1.00  0.00    -0.045 C  
HETATM   20  C   UNL     1     -10.958  12.712  63.845  1.00  0.00    -0.468 C  
HETATM   21  C   UNL     1     -12.060  13.716  63.968  1.00  0.00    -0.425 C  
HETATM   22  N   UNL     1     -12.360  14.113  65.242  1.00  0.00    -0.445 N  
HETATM   23  O   UNL     1     -12.741  14.071  63.010  1.00  0.00    -0.586 OA 
HETATM   24  H   UNL     1     -13.242  14.603  65.389  1.00  0.00     0.000 HD 
ENDBRANCH  12  13
ENDBRANCH  11  12
ENDBRANCH   8  11
ENDBRANCH   7   8
ENDBRANCH   5   7
TORSDOF 5
ENDMDL
MODEL      176
REMARK 921   NORMALIZED FREE ENERGY PREDICTED BY IDOCK:   -4.24 KCAL/MOL
REMARK 922        TOTAL FREE ENERGY PREDICTED BY IDOCK:   -6.11 KCAL/MOL
REMARK 923 INTER-LIGAND FREE ENERGY PREDICTED BY IDOCK:   -5.23 KCAL/MOL
REMARK 924 INTRA-LIGAND FREE ENERGY PREDICTED BY IDOCK:   -0.88 KCAL/MOL
REMARK 927      BINDING AFFINITY PREDICTED BY RF-SCORE:    0.00 PKD
ROOT
HETATM    1  C   UNL     1     -10.957  12.932  63.993  1.00  0.00    -0.447 C  
HETATM    2  C   UNL     1     -11.359  13.832  65.175  1.00  0.00    -0.311 C  
HETATM    3  C   UNL     1     -12.888  13.757  65.340  1.00  0.00    -0.455 C  
HETATM    4  C   UNL     1     -10.982  15.294  64.869  1.00  0.00    -0.445 C  
HETATM    5  N   UNL     1     -10.760  13.384  66.448  1.00  0.00    -0.285 NA 
HETATM    6  H   UNL     1     -11.149  12.483  66.726  1.00  0.00     0.000 HD 
ENDROOT
BRANCH   5   7
HETATM    7  C   UNL     1      -9.294  13.326  66.444  1.00  0.00    -0.174 C  
BRANCH   7   8
HETATM    8  C   UNL     1      -8.702  13.015  67.836  1.00  0.00    -0.189 C  
HETATM    9  H   UNL     1      -6.938  12.550  68.592  1.00  0.00     0.000 HD 
HETATM   10  O   UNL     1      -7.302  12.742  67.735  1.00  0.00    -0.103 OA 
BRANCH   8  11
HETATM   11  C   UNL     1      -8.959  14.218  68.762  1.00  0.00    -0.097 C  
BRANCH  11  12
HETATM   12  O   UNL     1      -8.950  15.430  68.007  1.00  0.00    -0.169 OA 
BRANCH  12  13
HETATM   13  C   UNL     1      -8.068  16.429  68.336  1.00  0.00    -0.188 A  
HETATM   14  C   UNL     1      -7.213  16.041  69.386  1.00  0.00    -0.213 A  
HETATM   15  C   UNL     1      -6.161  16.852  69.811  1.00  0.00    -0.229 A  
HETATM   16  C   UNL     1      -5.914  18.048  69.153  1.00  0.00    -0.225 A  
HETATM   17  C   UNL     1      -6.735  18.436  68.093  1.00  0.00    -0.222 A  
HETATM   18  C   UNL     1      -7.851  17.665  67.692  1.00  0.00    -0.212 A  
HETATM   19  C   UNL     1      -8.628  18.158  66.500  1.00  0.00    -0.282 C  
HETATM   20  C   UNL     1      -8.475  19.639  66.202  1.00  0.00    -0.354 C  
HETATM   21  C   UNL     1      -7.065  20.117  66.339  1.00  0.00    -0.265 C  
HETATM   22  N   UNL     1      -6.355  19.577  67.377  1.00  0.00    -0.191 N  
HETATM   23  O   UNL     1      -6.603  21.026  65.654  1.00  0.00    -0.172 OA 
HETATM   24  H   UNL     1      -5.487  20.039  67.648  1.00  0.00     0.000 HD 
ENDBRANCH  12  13
ENDBRANCH  11  12
ENDBRANCH   8  11
ENDBRANCH   7   8
ENDBRANCH   5   7
TORSDOF 5
ENDMDL
MODEL      177
REMARK 921   NORMALIZED FREE ENERGY PREDICTED BY IDOCK:   -4.23 KCAL/MOL
REMARK 922        TOTAL FREE ENERGY PREDICTED BY IDOCK:   -6.10 KCAL/MOL
REMARK 923 INTER-LIGAND FREE ENERGY PREDICTED BY IDOCK:   -5.62 KCAL/MOL
REMARK 924 INTRA-LIGAND FREE ENERGY PREDICTED BY IDOCK:   -0.48 KCAL/MOL
REMARK 927      BINDING AFFINITY PREDICTED BY RF-SCORE:    0.00 PKD
ROOT
HETATM    1  C   UNL     1      -8.302  16.245  66.550  1.00  0.00    -0.343 C  
HETATM    2  C   UNL     1      -9.484  16.685  67.432  1.00  0.00    -0.232 C  
HETATM    3  C   UNL     1      -9.715  18.192  67.210  1.00  0.00    -0.297 C  
HETATM    4  C   UNL     1      -9.138  16.468  68.917  1.00  0.00    -0.245 C  
HETATM    5  N   UNL     1     -10.738  15.994  67.070  1.00  0.00    -0.308 NA 
HETATM    6  H   UNL     1     -11.047  16.281  66.142  1.00  0.00     0.000 HD 
ENDROOT
BRANCH   5   7
HETATM    7  C   UNL     1     -10.673  14.531  67.157  1.00  0.00    -0.286 C  
BRANCH   7   8
HETATM    8  C   UNL     1     -12.061  13.862  67.063  1.00  0.00    -0.415 C  
HETATM    9  H   UNL     1     -13.504  13.695  65.725  1.00  0.00     0.000 HD 
HETATM   10  O   UNL     1     -12.650  14.107  65.782  1.00  0.00    -0.488 OA 
BRANCH   8  11
HETATM   11  C   UNL     1     -11.900  12.351  67.310  1.00  0.00    -0.287 C  
BRANCH  11  12
HETATM   12  O   UNL     1     -10.526  11.978  67.194  1.00  0.00    -0.214 OA 
BRANCH  12  13
HETATM   13  C   UNL     1     -10.167  10.957  66.350  1.00  0.00    -0.238 A  
HETATM   14  C   UNL     1      -9.714  11.445  65.109  1.00  0.00    -0.280 A  
HETATM   15  C   UNL     1      -9.189  10.595  64.136  1.00  0.00    -0.267 A  
HETATM   16  C   UNL     1      -9.061   9.241  64.411  1.00  0.00    -0.111 A  
HETATM   17  C   UNL     1      -9.481   8.744  65.646  1.00  0.00    -0.101 A  
HETATM   18  C   UNL     1     -10.081   9.575  66.620  1.00  0.00    -0.321 A  
HETATM   19  C   UNL     1     -10.442   8.935  67.934  1.00  0.00    -0.281 C  
HETATM   20  C   UNL     1     -10.617   7.427  67.887  1.00  0.00    -0.255 C  
HETATM   21  C   UNL     1      -9.571   6.746  67.063  1.00  0.00    -0.152 C  
HETATM   22  N   UNL     1      -9.197   7.402  65.922  1.00  0.00    -0.386 N  
HETATM   23  O   UNL     1      -9.162   5.616  67.314  1.00  0.00    -0.111 OA 
HETATM   24  H   UNL     1      -8.674   6.875  65.222  1.00  0.00     0.000 HD 
ENDBRANCH  12  13
ENDBRANCH  11  12
ENDBRANCH   8  11
ENDBRANCH   7   8
ENDBRANCH   5   7
TORSDOF 5
ENDMDL
MODEL      178
REMARK 921   NORMALIZED FREE ENERGY PREDICTED BY IDOCK:   -4.19 KCAL/MOL
REMARK 922        TOTAL FREE ENERGY PREDICTED BY IDOCK:   -6.04 KCAL/MOL
REMARK 923 INTER-LIGAND FREE ENERGY PREDICTED BY IDOCK:   -5.71 KCAL/MOL
REMARK 924 INTRA-LIGAND FREE ENERGY PREDICTED BY IDOCK:   -0.33 KCAL/MOL
REMARK 927      BINDING AFFINITY PREDICTED BY RF-SCORE:    0.00 PKD
ROOT
HETATM    1  C   UNL     1     -11.306   6.389  69.667  1.00  0.00    -0.479 C  
HETATM    2  C   UNL     1      -9.876   6.006  69.248  1.00  0.00    -0.152 C  
HETATM    3  C   UNL     1      -9.683   4.501  69.512  1.00  0.00    -0.282 C  
HETATM    4  C   UNL     1      -8.855   6.777  70.107  1.00  0.00    -0.141 C  
HETATM    5  N   UNL     1      -9.637   6.230  67.808  1.00  0.00    -0.117 NA 
HETATM    6  H   UNL     1     -10.201   5.589  67.250  1.00  0.00     0.000 HD 
ENDROOT
BRANCH   5   7
HETATM    7  C   UNL     1      -9.848   7.613  67.364  1.00  0.00    -0.173 C  
BRANCH   7   8
HETATM    8  C   UNL     1      -8.693   8.144  66.489  1.00  0.00    -0.143 C  
HETATM    9  H   UNL     1      -7.948   7.788  64.695  1.00  0.00     0.000 HD 
HETATM   10  O   UNL     1      -8.659   7.460  65.233  1.00  0.00    -0.104 OA 
BRANCH   8  11
HETATM   11  C   UNL     1      -8.886   9.658  66.282  1.00  0.00    -0.151 C  
BRANCH  11  12
HETATM   12  O   UNL     1     -10.209   9.925  65.812  1.00  0.00    -0.265 OA 
BRANCH  12  13
HETATM   13  C   UNL     1     -10.555  11.201  65.446  1.00  0.00    -0.227 A  
HETATM   14  C   UNL     1     -10.830  11.289  64.068  1.00  0.00    -0.414 A  
HETATM   15  C   UNL     1     -11.313  12.464  63.491  1.00  0.00    -0.553 A  
HETATM   16  C   UNL     1     -11.580  13.559  64.299  1.00  0.00    -0.433 A  
HETATM   17  C   UNL     1     -11.340  13.481  65.671  1.00  0.00    -0.298 A  
HETATM   18  C   UNL     1     -10.783  12.325  66.267  1.00  0.00    -0.293 A  
HETATM   19  C   UNL     1     -10.621  12.340  67.764  1.00  0.00    -0.241 C  
HETATM   20  C   UNL     1     -10.566  13.723  68.390  1.00  0.00    -0.261 C  
HETATM   21  C   UNL     1     -11.567  14.667  67.805  1.00  0.00    -0.359 C  
HETATM   22  N   UNL     1     -11.760  14.562  66.455  1.00  0.00    -0.376 N  
HETATM   23  O   UNL     1     -12.093  15.564  68.458  1.00  0.00    -0.246 OA 
HETATM   24  H   UNL     1     -12.245  15.327  65.985  1.00  0.00     0.000 HD 
ENDBRANCH  12  13
ENDBRANCH  11  12
ENDBRANCH   8  11
ENDBRANCH   7   8
ENDBRANCH   5   7
TORSDOF 5
ENDMDL
MODEL      179
REMARK 921   NORMALIZED FREE ENERGY PREDICTED BY IDOCK:   -4.18 KCAL/MOL
REMARK 922        TOTAL FREE ENERGY PREDICTED BY IDOCK:   -6.03 KCAL/MOL
REMARK 923 INTER-LIGAND FREE ENERGY PREDICTED BY IDOCK:   -5.30 KCAL/MOL
REMARK 924 INTRA-LIGAND FREE ENERGY PREDICTED BY IDOCK:   -0.73 KCAL/MOL
REMARK 927      BINDING AFFINITY PREDICTED BY RF-SCORE:    0.00 PKD
ROOT
HETATM    1  C   UNL     1     -10.339  13.355  64.252  1.00  0.00    -0.249 C  
HETATM    2  C   UNL     1     -11.250  12.145  64.525  1.00  0.00    -0.331 C  
HETATM    3  C   UNL     1     -12.365  12.131  63.462  1.00  0.00    -0.682 C  
HETATM    4  C   UNL     1     -11.910  12.289  65.909  1.00  0.00    -0.420 C  
HETATM    5  N   UNL     1     -10.524  10.863  64.411  1.00  0.00    -0.361 NA 
HETATM    6  H   UNL     1     -10.238  10.701  63.446  1.00  0.00     0.000 HD 
ENDROOT
BRANCH   5   7
HETATM    7  C   UNL     1      -9.374  10.734  65.313  1.00  0.00    -0.210 C  
BRANCH   7   8
HETATM    8  C   UNL     1      -9.577   9.649  66.392  1.00  0.00    -0.210 C  
HETATM    9  H   UNL     1      -9.682   7.679  66.468  1.00  0.00     0.000 HD 
HETATM   10  O   UNL     1      -9.557   8.346  65.804  1.00  0.00    -0.115 OA 
BRANCH   8  11
HETATM   11  C   UNL     1      -8.465   9.789  67.448  1.00  0.00    -0.121 C  
BRANCH  11  12
HETATM   12  O   UNL     1      -9.037   9.923  68.750  1.00  0.00    -0.137 OA 
BRANCH  12  13
HETATM   13  C   UNL     1     -10.013  10.862  68.971  1.00  0.00    -0.191 A  
HETATM   14  C   UNL     1     -11.141  10.301  69.600  1.00  0.00    -0.323 A  
HETATM   15  C   UNL     1     -12.210  11.089  70.025  1.00  0.00    -0.418 A  
HETATM   16  C   UNL     1     -12.144  12.466  69.873  1.00  0.00    -0.317 A  
HETATM   17  C   UNL     1     -11.022  13.042  69.275  1.00  0.00    -0.067 A  
HETATM   18  C   UNL     1      -9.958  12.258  68.772  1.00  0.00    -0.048 A  
HETATM   19  C   UNL     1      -8.778  12.996  68.199  1.00  0.00    -0.190 C  
HETATM   20  C   UNL     1      -9.067  14.416  67.745  1.00  0.00    -0.192 C  
HETATM   21  C   UNL     1      -9.940  15.166  68.701  1.00  0.00    -0.220 C  
HETATM   22  N   UNL     1     -10.946  14.440  69.277  1.00  0.00    -0.258 N  
HETATM   23  O   UNL     1      -9.849  16.379  68.868  1.00  0.00    -0.238 OA 
HETATM   24  H   UNL     1     -11.695  14.954  69.741  1.00  0.00     0.000 HD 
ENDBRANCH  12  13
ENDBRANCH  11  12
ENDBRANCH   8  11
ENDBRANCH   7   8
ENDBRANCH   5   7
TORSDOF 5
ENDMDL
MODEL      180
REMARK 921   NORMALIZED FREE ENERGY PREDICTED BY IDOCK:   -4.17 KCAL/MOL
REMARK 922        TOTAL FREE ENERGY PREDICTED BY IDOCK:   -6.02 KCAL/MOL
REMARK 923 INTER-LIGAND FREE ENERGY PREDICTED BY IDOCK:   -5.73 KCAL/MOL
REMARK 924 INTRA-LIGAND FREE ENERGY PREDICTED BY IDOCK:   -0.28 KCAL/MOL
REMARK 927      BINDING AFFINITY PREDICTED BY RF-SCORE:    0.00 PKD
ROOT
HETATM    1  C   UNL     1      -5.634  18.777  67.654  1.00  0.00    -0.176 C  
HETATM    2  C   UNL     1      -6.650  18.963  66.513  1.00  0.00    -0.194 C  
HETATM    3  C   UNL     1      -5.963  18.583  65.188  1.00  0.00    -0.270 C  
HETATM    4  C   UNL     1      -7.072  20.442  66.425  1.00  0.00    -0.296 C  
HETATM    5  N   UNL     1      -7.826  18.082  66.663  1.00  0.00    -0.231 NA 
HETATM    6  H   UNL     1      -7.554  17.106  66.549  1.00  0.00     0.000 HD 
ENDROOT
BRANCH   5   7
HETATM    7  C   UNL     1      -8.565  18.263  67.917  1.00  0.00    -0.258 C  
BRANCH   7   8
HETATM    8  C   UNL     1     -10.095  18.299  67.711  1.00  0.00    -0.356 C  
HETATM    9  H   UNL     1     -11.426  19.535  66.937  1.00  0.00     0.000 HD 
HETATM   10  O   UNL     1     -10.485  19.513  67.064  1.00  0.00    -0.411 OA 
BRANCH   8  11
HETATM   11  C   UNL     1     -10.509  17.075  66.873  1.00  0.00    -0.268 C  
BRANCH  11  12
HETATM   12  O   UNL     1      -9.878  15.897  67.377  1.00  0.00    -0.230 OA 
BRANCH  12  13
HETATM   13  C   UNL     1     -10.518  15.134  68.321  1.00  0.00    -0.241 A  
HETATM   14  C   UNL     1     -11.470  15.885  69.037  1.00  0.00    -0.380 A  
HETATM   15  C   UNL     1     -12.322  15.291  69.968  1.00  0.00    -0.366 A  
HETATM   16  C   UNL     1     -12.268  13.919  70.161  1.00  0.00    -0.425 A  
HETATM   17  C   UNL     1     -11.348  13.155  69.442  1.00  0.00    -0.213 A  
HETATM   18  C   UNL     1     -10.427  13.745  68.545  1.00  0.00    -0.248 A  
HETATM   19  C   UNL     1      -9.521  12.812  67.786  1.00  0.00    -0.205 C  
HETATM   20  C   UNL     1      -9.322  11.448  68.425  1.00  0.00    -0.194 C  
HETATM   21  C   UNL     1     -10.589  10.872  68.971  1.00  0.00    -0.216 C  
HETATM   22  N   UNL     1     -11.435  11.764  69.571  1.00  0.00    -0.331 N  
HETATM   23  O   UNL     1     -10.809   9.664  68.999  1.00  0.00    -0.223 OA 
HETATM   24  H   UNL     1     -12.182  11.389  70.156  1.00  0.00     0.000 HD 
ENDBRANCH  12  13
ENDBRANCH  11  12
ENDBRANCH   8  11
ENDBRANCH   7   8
ENDBRANCH   5   7
TORSDOF 5
ENDMDL
MODEL      181
REMARK 921   NORMALIZED FREE ENERGY PREDICTED BY IDOCK:   -4.17 KCAL/MOL
REMARK 922        TOTAL FREE ENERGY PREDICTED BY IDOCK:   -6.01 KCAL/MOL
REMARK 923 INTER-LIGAND FREE ENERGY PREDICTED BY IDOCK:   -5.09 KCAL/MOL
REMARK 924 INTRA-LIGAND FREE ENERGY PREDICTED BY IDOCK:   -0.92 KCAL/MOL
REMARK 927      BINDING AFFINITY PREDICTED BY RF-SCORE:    0.00 PKD
ROOT
HETATM    1  C   UNL     1     -10.916   6.304  67.620  1.00  0.00    -0.438 C  
HETATM    2  C   UNL     1      -9.860   5.977  68.691  1.00  0.00    -0.138 C  
HETATM    3  C   UNL     1      -8.475   6.354  68.134  1.00  0.00    -0.115 C  
HETATM    4  C   UNL     1      -9.862   4.464  68.983  1.00  0.00    -0.182 C  
HETATM    5  N   UNL     1     -10.060   6.758  69.929  1.00  0.00    -0.178 NA 
HETATM    6  H   UNL     1      -9.887   7.748  69.755  1.00  0.00     0.000 HD 
ENDROOT
BRANCH   5   7
HETATM    7  C   UNL     1     -11.371   6.571  70.561  1.00  0.00    -0.367 C  
BRANCH   7   8
HETATM    8  C   UNL     1     -12.003   7.899  71.032  1.00  0.00    -0.252 C  
HETATM    9  H   UNL     1     -12.805   8.616  72.688  1.00  0.00     0.000 HD 
HETATM   10  O   UNL     1     -12.416   7.800  72.398  1.00  0.00    -0.232 OA 
BRANCH   8  11
HETATM   11  C   UNL     1     -10.971   9.028  70.854  1.00  0.00    -0.268 C  
BRANCH  11  12
HETATM   12  O   UNL     1     -10.853   9.372  69.473  1.00  0.00    -0.235 OA 
BRANCH  12  13
HETATM   13  C   UNL     1      -9.998  10.376  69.094  1.00  0.00    -0.223 A  
HETATM   14  C   UNL     1      -8.651   9.976  69.193  1.00  0.00    -0.158 A  
HETATM   15  C   UNL     1      -7.610  10.792  68.752  1.00  0.00    -0.113 A  
HETATM   16  C   UNL     1      -7.906  12.008  68.152  1.00  0.00    -0.145 A  
HETATM   17  C   UNL     1      -9.236  12.410  68.022  1.00  0.00    -0.203 A  
HETATM   18  C   UNL     1     -10.303  11.631  68.526  1.00  0.00    -0.224 A  
HETATM   19  C   UNL     1     -11.697  12.141  68.275  1.00  0.00    -0.401 C  
HETATM   20  C   UNL     1     -11.796  13.632  68.001  1.00  0.00    -0.397 C  
HETATM   21  C   UNL     1     -10.716  14.128  67.093  1.00  0.00    -0.280 C  
HETATM   22  N   UNL     1      -9.481  13.573  67.284  1.00  0.00    -0.222 N  
HETATM   23  O   UNL     1     -10.885  15.060  66.311  1.00  0.00    -0.321 OA 
HETATM   24  H   UNL     1      -8.680  14.042  66.860  1.00  0.00     0.000 HD 
ENDBRANCH  12  13
ENDBRANCH  11  12
ENDBRANCH   8  11
ENDBRANCH   7   8
ENDBRANCH   5   7
TORSDOF 5
ENDMDL
MODEL      182
REMARK 921   NORMALIZED FREE ENERGY PREDICTED BY IDOCK:   -4.16 KCAL/MOL
REMARK 922        TOTAL FREE ENERGY PREDICTED BY IDOCK:   -6.00 KCAL/MOL
REMARK 923 INTER-LIGAND FREE ENERGY PREDICTED BY IDOCK:   -5.46 KCAL/MOL
REMARK 924 INTRA-LIGAND FREE ENERGY PREDICTED BY IDOCK:   -0.54 KCAL/MOL
REMARK 927      BINDING AFFINITY PREDICTED BY RF-SCORE:    0.00 PKD
ROOT
HETATM    1  C   UNL     1      -7.638  16.031  68.934  1.00  0.00    -0.192 C  
HETATM    2  C   UNL     1      -7.986  15.572  67.507  1.00  0.00    -0.168 C  
HETATM    3  C   UNL     1      -7.682  16.732  66.540  1.00  0.00    -0.334 C  
HETATM    4  C   UNL     1      -9.489  15.253  67.413  1.00  0.00    -0.200 C  
HETATM    5  N   UNL     1      -7.168  14.420  67.076  1.00  0.00    -0.342 NA 
HETATM    6  H   UNL     1      -6.191  14.694  66.978  1.00  0.00     0.000 HD 
ENDROOT
BRANCH   5   7
HETATM    7  C   UNL     1      -7.283  13.237  67.936  1.00  0.00    -0.137 C  
BRANCH   7   8
HETATM    8  C   UNL     1      -7.065  11.915  67.169  1.00  0.00    -0.142 C  
HETATM    9  H   UNL     1      -5.605  11.043  66.165  1.00  0.00     0.000 HD 
HETATM   10  O   UNL     1      -5.738  11.857  66.637  1.00  0.00    -0.247 OA 
BRANCH   8  11
HETATM   11  C   UNL     1      -7.320  10.739  68.130  1.00  0.00    -0.088 C  
BRANCH  11  12
HETATM   12  O   UNL     1      -8.610  10.177  67.888  1.00  0.00    -0.118 OA 
BRANCH  12  13
HETATM   13  C   UNL     1      -9.630  10.409  68.777  1.00  0.00    -0.177 A  
HETATM   14  C   UNL     1     -10.553  11.347  68.274  1.00  0.00    -0.224 A  
HETATM   15  C   UNL     1     -11.731  11.652  68.955  1.00  0.00    -0.397 A  
HETATM   16  C   UNL     1     -12.031  10.981  70.132  1.00  0.00    -0.443 A  
HETATM   17  C   UNL     1     -11.141  10.030  70.631  1.00  0.00    -0.335 A  
HETATM   18  C   UNL     1      -9.907   9.756  69.996  1.00  0.00    -0.295 A  
HETATM   19  C   UNL     1      -9.056   8.670  70.599  1.00  0.00    -0.201 C  
HETATM   20  C   UNL     1      -9.337   8.370  72.061  1.00  0.00    -0.332 C  
HETATM   21  C   UNL     1     -10.799   8.345  72.378  1.00  0.00    -0.346 C  
HETATM   22  N   UNL     1     -11.559   9.286  71.740  1.00  0.00    -0.385 N  
HETATM   23  O   UNL     1     -11.275   7.618  73.246  1.00  0.00    -0.358 OA 
HETATM   24  H   UNL     1     -12.499   9.457  72.098  1.00  0.00     0.000 HD 
ENDBRANCH  12  13
ENDBRANCH  11  12
ENDBRANCH   8  11
ENDBRANCH   7   8
ENDBRANCH   5   7
TORSDOF 5
ENDMDL
MODEL      183
REMARK 921   NORMALIZED FREE ENERGY PREDICTED BY IDOCK:   -4.15 KCAL/MOL
REMARK 922        TOTAL FREE ENERGY PREDICTED BY IDOCK:   -5.99 KCAL/MOL
REMARK 923 INTER-LIGAND FREE ENERGY PREDICTED BY IDOCK:   -5.27 KCAL/MOL
REMARK 924 INTRA-LIGAND FREE ENERGY PREDICTED BY IDOCK:   -0.72 KCAL/MOL
REMARK 927      BINDING AFFINITY PREDICTED BY RF-SCORE:    0.00 PKD
ROOT
HETATM    1  C   UNL     1      -9.069   5.369  65.782  1.00  0.00    -0.160 C  
HETATM    2  C   UNL     1      -8.275   6.662  65.522  1.00  0.00    -0.138 C  
HETATM    3  C   UNL     1      -7.930   6.722  64.023  1.00  0.00    -0.075 C  
HETATM    4  C   UNL     1      -6.955   6.633  66.316  1.00  0.00    -0.062 C  
HETATM    5  N   UNL     1      -9.060   7.872  65.838  1.00  0.00    -0.339 NA 
HETATM    6  H   UNL     1      -9.841   7.968  65.189  1.00  0.00     0.000 HD 
ENDROOT
BRANCH   5   7
HETATM    7  C   UNL     1      -9.536   7.944  67.224  1.00  0.00    -0.159 C  
BRANCH   7   8
HETATM    8  C   UNL     1      -9.762   9.393  67.706  1.00  0.00    -0.151 C  
HETATM    9  H   UNL     1      -8.661  10.998  68.043  1.00  0.00     0.000 HD 
HETATM   10  O   UNL     1      -8.522  10.107  67.746  1.00  0.00    -0.114 OA 
BRANCH   8  11
HETATM   11  C   UNL     1     -10.758  10.081  66.755  1.00  0.00    -0.101 C  
BRANCH  11  12
HETATM   12  O   UNL     1     -10.062  10.659  65.649  1.00  0.00    -0.249 OA 
BRANCH  12  13
HETATM   13  C   UNL     1     -10.520  11.827  65.093  1.00  0.00    -0.283 A  
HETATM   14  C   UNL     1     -11.508  11.587  64.119  1.00  0.00    -0.299 A  
HETATM   15  C   UNL     1     -12.198  12.630  63.502  1.00  0.00    -0.638 A  
HETATM   16  C   UNL     1     -11.945  13.937  63.892  1.00  0.00    -0.372 A  
HETATM   17  C   UNL     1     -10.988  14.193  64.875  1.00  0.00    -0.397 A  
HETATM   18  C   UNL     1     -10.226  13.157  65.462  1.00  0.00    -0.297 A  
HETATM   19  C   UNL     1      -9.263  13.551  66.551  1.00  0.00    -0.187 C  
HETATM   20  C   UNL     1      -8.834  15.007  66.533  1.00  0.00    -0.286 C  
HETATM   21  C   UNL     1      -9.967  15.944  66.254  1.00  0.00    -0.298 C  
HETATM   22  N   UNL     1     -10.877  15.512  65.328  1.00  0.00    -0.390 N  
HETATM   23  O   UNL     1     -10.019  17.077  66.723  1.00  0.00    -0.272 OA 
HETATM   24  H   UNL     1     -11.520  16.202  64.940  1.00  0.00     0.000 HD 
ENDBRANCH  12  13
ENDBRANCH  11  12
ENDBRANCH   8  11
ENDBRANCH   7   8
ENDBRANCH   5   7
TORSDOF 5
ENDMDL
MODEL      184
REMARK 921   NORMALIZED FREE ENERGY PREDICTED BY IDOCK:   -4.15 KCAL/MOL
REMARK 922        TOTAL FREE ENERGY PREDICTED BY IDOCK:   -5.99 KCAL/MOL
REMARK 923 INTER-LIGAND FREE ENERGY PREDICTED BY IDOCK:   -5.40 KCAL/MOL
REMARK 924 INTRA-LIGAND FREE ENERGY PREDICTED BY IDOCK:   -0.58 KCAL/MOL
REMARK 927      BINDING AFFINITY PREDICTED BY RF-SCORE:    0.00 PKD
ROOT
HETATM    1  C   UNL     1     -11.750  10.619  70.374  1.00  0.00    -0.446 C  
HETATM    2  C   UNL     1     -10.826   9.989  69.317  1.00  0.00    -0.230 C  
HETATM    3  C   UNL     1     -10.858   8.460  69.497  1.00  0.00    -0.126 C  
HETATM    4  C   UNL     1      -9.378  10.466  69.537  1.00  0.00    -0.150 C  
HETATM    5  N   UNL     1     -11.277  10.275  67.940  1.00  0.00    -0.459 NA 
HETATM    6  H   UNL     1     -12.164   9.808  67.752  1.00  0.00     0.000 HD 
ENDROOT
BRANCH   5   7
HETATM    7  C   UNL     1     -11.374  11.703  67.615  1.00  0.00    -0.295 C  
BRANCH   7   8
HETATM    8  C   UNL     1     -10.479  12.109  66.425  1.00  0.00    -0.230 C  
HETATM    9  H   UNL     1     -10.679  13.108  64.733  1.00  0.00     0.000 HD 
HETATM   10  O   UNL     1     -11.230  12.858  65.465  1.00  0.00    -0.281 OA 
BRANCH   8  11
HETATM   11  C   UNL     1      -9.294  12.936  66.957  1.00  0.00    -0.235 C  
BRANCH  11  12
HETATM   12  O   UNL     1      -9.686  13.664  68.122  1.00  0.00    -0.217 OA 
BRANCH  12  13
HETATM   13  C   UNL     1      -8.944  14.743  68.531  1.00  0.00    -0.182 A  
HETATM   14  C   UNL     1      -7.720  14.346  69.101  1.00  0.00    -0.050 A  
HETATM   15  C   UNL     1      -6.753  15.276  69.483  1.00  0.00    -0.172 A  
HETATM   16  C   UNL     1      -6.977  16.625  69.251  1.00  0.00    -0.225 A  
HETATM   17  C   UNL     1      -8.174  17.036  68.662  1.00  0.00    -0.261 A  
HETATM   18  C   UNL     1      -9.198  16.117  68.332  1.00  0.00    -0.203 A  
HETATM   19  C   UNL     1     -10.420  16.673  67.651  1.00  0.00    -0.320 C  
HETATM   20  C   UNL     1     -10.656  18.158  67.867  1.00  0.00    -0.389 C  
HETATM   21  C   UNL     1      -9.400  18.965  67.777  1.00  0.00    -0.293 C  
HETATM   22  N   UNL     1      -8.286  18.389  68.322  1.00  0.00    -0.291 N  
HETATM   23  O   UNL     1      -9.384  20.120  67.359  1.00  0.00    -0.348 OA 
HETATM   24  H   UNL     1      -7.478  18.988  68.493  1.00  0.00     0.000 HD 
ENDBRANCH  12  13
ENDBRANCH  11  12
ENDBRANCH   8  11
ENDBRANCH   7   8
ENDBRANCH   5   7
TORSDOF 5
ENDMDL
MODEL      185
REMARK 921   NORMALIZED FREE ENERGY PREDICTED BY IDOCK:   -4.14 KCAL/MOL
REMARK 922        TOTAL FREE ENERGY PREDICTED BY IDOCK:   -5.98 KCAL/MOL
REMARK 923 INTER-LIGAND FREE ENERGY PREDICTED BY IDOCK:   -5.25 KCAL/MOL
REMARK 924 INTRA-LIGAND FREE ENERGY PREDICTED BY IDOCK:   -0.73 KCAL/MOL
REMARK 927      BINDING AFFINITY PREDICTED BY RF-SCORE:    0.00 PKD
ROOT
HETATM    1  C   UNL     1      -6.084   9.370  69.637  1.00  0.00    -0.039 C  
HETATM    2  C   UNL     1      -7.110  10.104  68.755  1.00  0.00    -0.075 C  
HETATM    3  C   UNL     1      -6.369  10.689  67.538  1.00  0.00    -0.057 C  
HETATM    4  C   UNL     1      -7.733  11.273  69.541  1.00  0.00     0.184 C  
HETATM    5  N   UNL     1      -8.152   9.196  68.236  1.00  0.00    -0.104 NA 
HETATM    6  H   UNL     1      -7.747   8.528  67.579  1.00  0.00     0.000 HD 
ENDROOT
BRANCH   5   7
HETATM    7  C   UNL     1      -8.917   8.492  69.271  1.00  0.00    -0.146 C  
BRANCH   7   8
HETATM    8  C   UNL     1     -10.443   8.612  69.074  1.00  0.00    -0.199 C  
HETATM    9  H   UNL     1     -11.992   9.272  70.106  1.00  0.00     0.000 HD 
HETATM   10  O   UNL     1     -11.053   9.199  70.228  1.00  0.00    -0.240 OA 
BRANCH   8  11
HETATM   11  C   UNL     1     -10.714   9.463  67.820  1.00  0.00    -0.229 C  
BRANCH  11  12
HETATM   12  O   UNL     1     -11.851  10.302  68.032  1.00  0.00    -0.214 OA 
BRANCH  12  13
HETATM   13  C   UNL     1     -11.734  11.659  67.865  1.00  0.00    -0.259 A  
HETATM   14  C   UNL     1     -11.471  11.996  66.523  1.00  0.00    -0.413 A  
HETATM   15  C   UNL     1     -11.427  13.323  66.096  1.00  0.00    -0.359 A  
HETATM   16  C   UNL     1     -11.699  14.339  67.001  1.00  0.00    -0.427 A  
HETATM   17  C   UNL     1     -11.987  14.023  68.330  1.00  0.00    -0.349 A  
HETATM   18  C   UNL     1     -11.968  12.689  68.800  1.00  0.00    -0.279 A  
HETATM   19  C   UNL     1     -12.350  12.468  70.240  1.00  0.00    -0.265 C  
HETATM   20  C   UNL     1     -12.198  13.683  71.139  1.00  0.00    -0.326 C  
HETATM   21  C   UNL     1     -12.674  14.946  70.494  1.00  0.00    -0.347 C  
HETATM   22  N   UNL     1     -12.392  15.072  69.161  1.00  0.00    -0.587 N  
HETATM   23  O   UNL     1     -13.170  15.869  71.134  1.00  0.00    -0.518 OA 
HETATM   24  H   UNL     1     -12.484  15.999  68.744  1.00  0.00     0.000 HD 
ENDBRANCH  12  13
ENDBRANCH  11  12
ENDBRANCH   8  11
ENDBRANCH   7   8
ENDBRANCH   5   7
TORSDOF 5
ENDMDL
MODEL      186
REMARK 921   NORMALIZED FREE ENERGY PREDICTED BY IDOCK:   -4.14 KCAL/MOL
REMARK 922        TOTAL FREE ENERGY PREDICTED BY IDOCK:   -5.98 KCAL/MOL
REMARK 923 INTER-LIGAND FREE ENERGY PREDICTED BY IDOCK:   -5.23 KCAL/MOL
REMARK 924 INTRA-LIGAND FREE ENERGY PREDICTED BY IDOCK:   -0.75 KCAL/MOL
REMARK 927      BINDING AFFINITY PREDICTED BY RF-SCORE:    0.00 PKD
ROOT
HETATM    1  C   UNL     1      -9.093   5.546  66.962  1.00  0.00    -0.112 C  
HETATM    2  C   UNL     1      -9.567   5.716  68.416  1.00  0.00    -0.126 C  
HETATM    3  C   UNL     1      -9.542   4.335  69.096  1.00  0.00    -0.249 C  
HETATM    4  C   UNL     1     -11.018   6.232  68.436  1.00  0.00    -0.409 C  
HETATM    5  N   UNL     1      -8.676   6.601  69.194  1.00  0.00    -0.130 NA 
HETATM    6  H   UNL     1      -7.762   6.165  69.318  1.00  0.00     0.000 HD 
ENDROOT
BRANCH   5   7
HETATM    7  C   UNL     1      -8.527   7.952  68.642  1.00  0.00    -0.128 C  
BRANCH   7   8
HETATM    8  C   UNL     1      -8.298   9.023  69.730  1.00  0.00    -0.129 C  
HETATM    9  H   UNL     1      -7.282  10.705  69.920  1.00  0.00     0.000 HD 
HETATM   10  O   UNL     1      -7.422  10.047  69.250  1.00  0.00    -0.083 OA 
BRANCH   8  11
HETATM   11  C   UNL     1      -9.661   9.616  70.133  1.00  0.00    -0.254 C  
BRANCH  11  12
HETATM   12  O   UNL     1     -10.583   9.512  69.048  1.00  0.00    -0.215 OA 
BRANCH  12  13
HETATM   13  C   UNL     1     -10.972  10.644  68.376  1.00  0.00    -0.251 A  
HETATM   14  C   UNL     1     -11.588  11.573  69.237  1.00  0.00    -0.388 A  
HETATM   15  C   UNL     1     -11.962  12.843  68.799  1.00  0.00    -0.290 A  
HETATM   16  C   UNL     1     -11.676  13.224  67.496  1.00  0.00    -0.410 A  
HETATM   17  C   UNL     1     -11.042  12.326  66.635  1.00  0.00    -0.297 A  
HETATM   18  C   UNL     1     -10.719  11.009  67.037  1.00  0.00    -0.319 A  
HETATM   19  C   UNL     1      -9.988  10.152  66.039  1.00  0.00    -0.322 C  
HETATM   20  C   UNL     1     -10.145  10.577  64.589  1.00  0.00    -0.408 C  
HETATM   21  C   UNL     1     -10.058  12.059  64.406  1.00  0.00    -0.271 C  
HETATM   22  N   UNL     1     -10.652  12.812  65.382  1.00  0.00    -0.281 N  
HETATM   23  O   UNL     1      -9.601  12.575  63.390  1.00  0.00    -0.156 OA 
HETATM   24  H   UNL     1     -10.822  13.797  65.183  1.00  0.00     0.000 HD 
ENDBRANCH  12  13
ENDBRANCH  11  12
ENDBRANCH   8  11
ENDBRANCH   7   8
ENDBRANCH   5   7
TORSDOF 5
ENDMDL
MODEL      187
REMARK 921   NORMALIZED FREE ENERGY PREDICTED BY IDOCK:   -4.12 KCAL/MOL
REMARK 922        TOTAL FREE ENERGY PREDICTED BY IDOCK:   -5.96 KCAL/MOL
REMARK 923 INTER-LIGAND FREE ENERGY PREDICTED BY IDOCK:   -5.01 KCAL/MOL
REMARK 924 INTRA-LIGAND FREE ENERGY PREDICTED BY IDOCK:   -0.95 KCAL/MOL
REMARK 927      BINDING AFFINITY PREDICTED BY RF-SCORE:    0.00 PKD
ROOT
HETATM    1  C   UNL     1      -8.102   9.261  67.624  1.00  0.00    -0.104 C  
HETATM    2  C   UNL     1      -9.446  10.009  67.575  1.00  0.00    -0.148 C  
HETATM    3  C   UNL     1     -10.173   9.611  66.277  1.00  0.00    -0.286 C  
HETATM    4  C   UNL     1      -9.198  11.529  67.537  1.00  0.00    -0.166 C  
HETATM    5  N   UNL     1     -10.331   9.642  68.700  1.00  0.00    -0.196 NA 
HETATM    6  H   UNL     1     -10.626   8.670  68.617  1.00  0.00     0.000 HD 
ENDROOT
BRANCH   5   7
HETATM    7  C   UNL     1      -9.760   9.891  70.029  1.00  0.00    -0.227 C  
BRANCH   7   8
HETATM    8  C   UNL     1      -9.762   8.635  70.926  1.00  0.00    -0.204 C  
HETATM    9  H   UNL     1      -8.964   8.077  72.644  1.00  0.00     0.000 HD 
HETATM   10  O   UNL     1      -8.962   8.850  72.092  1.00  0.00    -0.381 OA 
BRANCH   8  11
HETATM   11  C   UNL     1     -11.215   8.306  71.313  1.00  0.00    -0.259 C  
BRANCH  11  12
HETATM   12  O   UNL     1     -11.717   7.251  70.492  1.00  0.00    -0.285 OA 
BRANCH  12  13
HETATM   13  C   UNL     1     -10.916   6.175  70.203  1.00  0.00    -0.358 A  
HETATM   14  C   UNL     1     -10.586   5.448  71.362  1.00  0.00    -0.282 A  
HETATM   15  C   UNL     1      -9.875   4.249  71.298  1.00  0.00    -0.257 A  
HETATM   16  C   UNL     1      -9.528   3.730  70.059  1.00  0.00    -0.264 A  
HETATM   17  C   UNL     1      -9.871   4.423  68.898  1.00  0.00    -0.093 A  
HETATM   18  C   UNL     1     -10.527   5.675  68.942  1.00  0.00    -0.310 A  
HETATM   19  C   UNL     1     -10.894   6.300  67.622  1.00  0.00    -0.433 C  
HETATM   20  C   UNL     1     -10.082   5.814  66.434  1.00  0.00    -0.182 C  
HETATM   21  C   UNL     1      -9.859   4.336  66.448  1.00  0.00    -0.220 C  
HETATM   22  N   UNL     1      -9.622   3.785  67.678  1.00  0.00    -0.179 N  
HETATM   23  O   UNL     1      -9.764   3.670  65.420  1.00  0.00    -0.172 OA 
HETATM   24  H   UNL     1      -9.237   2.840  67.707  1.00  0.00     0.000 HD 
ENDBRANCH  12  13
ENDBRANCH  11  12
ENDBRANCH   8  11
ENDBRANCH   7   8
ENDBRANCH   5   7
TORSDOF 5
ENDMDL
MODEL      188
REMARK 921   NORMALIZED FREE ENERGY PREDICTED BY IDOCK:   -4.10 KCAL/MOL
REMARK 922        TOTAL FREE ENERGY PREDICTED BY IDOCK:   -5.92 KCAL/MOL
REMARK 923 INTER-LIGAND FREE ENERGY PREDICTED BY IDOCK:   -5.02 KCAL/MOL
REMARK 924 INTRA-LIGAND FREE ENERGY PREDICTED BY IDOCK:   -0.91 KCAL/MOL
REMARK 927      BINDING AFFINITY PREDICTED BY RF-SCORE:    0.00 PKD
ROOT
HETATM    1  C   UNL     1      -9.574   8.241  70.658  1.00  0.00    -0.190 C  
HETATM    2  C   UNL     1     -10.009   9.482  69.860  1.00  0.00    -0.230 C  
HETATM    3  C   UNL     1     -11.165  10.162  70.617  1.00  0.00    -0.418 C  
HETATM    4  C   UNL     1     -10.532   9.056  68.475  1.00  0.00    -0.232 C  
HETATM    5  N   UNL     1      -8.924  10.477  69.736  1.00  0.00    -0.386 NA 
HETATM    6  H   UNL     1      -8.704  10.877  70.648  1.00  0.00     0.000 HD 
ENDROOT
BRANCH   5   7
HETATM    7  C   UNL     1      -7.706   9.971  69.094  1.00  0.00    -0.104 C  
BRANCH   7   8
HETATM    8  C   UNL     1      -7.033  11.016  68.179  1.00  0.00    -0.069 C  
HETATM    9  H   UNL     1      -5.831  11.014  66.612  1.00  0.00     0.000 HD 
HETATM   10  O   UNL     1      -6.245  10.370  67.175  1.00  0.00    -0.059 OA 
BRANCH   8  11
HETATM   11  C   UNL     1      -8.127  11.889  67.537  1.00  0.00    -0.156 C  
BRANCH  11  12
HETATM   12  O   UNL     1      -8.352  13.056  68.328  1.00  0.00    -0.159 OA 
BRANCH  12  13
HETATM   13  C   UNL     1      -9.393  13.896  68.020  1.00  0.00    -0.204 A  
HETATM   14  C   UNL     1     -10.626  13.377  68.460  1.00  0.00    -0.264 A  
HETATM   15  C   UNL     1     -11.808  14.110  68.359  1.00  0.00    -0.388 A  
HETATM   16  C   UNL     1     -11.765  15.404  67.860  1.00  0.00    -0.198 A  
HETATM   17  C   UNL     1     -10.548  15.945  67.443  1.00  0.00    -0.315 A  
HETATM   18  C   UNL     1      -9.349  15.194  67.470  1.00  0.00    -0.198 A  
HETATM   19  C   UNL     1      -8.090  15.904  67.048  1.00  0.00    -0.265 C  
HETATM   20  C   UNL     1      -8.304  17.121  66.165  1.00  0.00    -0.258 C  
HETATM   21  C   UNL     1      -9.447  17.973  66.616  1.00  0.00    -0.297 C  
HETATM   22  N   UNL     1     -10.541  17.297  67.084  1.00  0.00    -0.298 N  
HETATM   23  O   UNL     1      -9.465  19.192  66.464  1.00  0.00    -0.328 OA 
HETATM   24  H   UNL     1     -11.414  17.817  67.177  1.00  0.00     0.000 HD 
ENDBRANCH  12  13
ENDBRANCH  11  12
ENDBRANCH   8  11
ENDBRANCH   7   8
ENDBRANCH   5   7
TORSDOF 5
ENDMDL
MODEL      189
REMARK 921   NORMALIZED FREE ENERGY PREDICTED BY IDOCK:   -4.09 KCAL/MOL
REMARK 922        TOTAL FREE ENERGY PREDICTED BY IDOCK:   -5.91 KCAL/MOL
REMARK 923 INTER-LIGAND FREE ENERGY PREDICTED BY IDOCK:   -5.44 KCAL/MOL
REMARK 924 INTRA-LIGAND FREE ENERGY PREDICTED BY IDOCK:   -0.47 KCAL/MOL
REMARK 927      BINDING AFFINITY PREDICTED BY RF-SCORE:    0.00 PKD
ROOT
HETATM    1  C   UNL     1      -8.055   5.005  68.271  1.00  0.00    -0.086 C  
HETATM    2  C   UNL     1      -8.495   4.604  69.690  1.00  0.00    -0.074 C  
HETATM    3  C   UNL     1      -7.232   4.379  70.542  1.00  0.00    -0.048 C  
HETATM    4  C   UNL     1      -9.279   3.279  69.639  1.00  0.00    -0.221 C  
HETATM    5  N   UNL     1      -9.284   5.664  70.351  1.00  0.00    -0.150 NA 
HETATM    6  H   UNL     1      -8.699   6.480  70.533  1.00  0.00     0.000 HD 
ENDROOT
BRANCH   5   7
HETATM    7  C   UNL     1     -10.499   6.057  69.630  1.00  0.00    -0.261 C  
BRANCH   7   8
HETATM    8  C   UNL     1     -11.068   7.410  70.108  1.00  0.00    -0.246 C  
HETATM    9  H   UNL     1     -11.608   8.234  71.819  1.00  0.00     0.000 HD 
HETATM   10  O   UNL     1     -11.258   7.402  71.526  1.00  0.00    -0.239 OA 
BRANCH   8  11
HETATM   11  C   UNL     1     -10.095   8.529  69.693  1.00  0.00    -0.202 C  
BRANCH  11  12
HETATM   12  O   UNL     1     -10.794   9.549  68.979  1.00  0.00    -0.219 OA 
BRANCH  12  13
HETATM   13  C   UNL     1     -10.439   9.839  67.685  1.00  0.00    -0.251 A  
HETATM   14  C   UNL     1      -9.619   8.835  67.135  1.00  0.00    -0.228 A  
HETATM   15  C   UNL     1      -9.229   8.859  65.796  1.00  0.00    -0.283 A  
HETATM   16  C   UNL     1      -9.700   9.868  64.968  1.00  0.00    -0.359 A  
HETATM   17  C   UNL     1     -10.535  10.857  65.490  1.00  0.00    -0.219 A  
HETATM   18  C   UNL     1     -10.885  10.892  66.860  1.00  0.00    -0.307 A  
HETATM   19  C   UNL     1     -11.837  11.976  67.293  1.00  0.00    -0.257 C  
HETATM   20  C   UNL     1     -11.894  13.185  66.376  1.00  0.00    -0.455 C  
HETATM   21  C   UNL     1     -11.897  12.816  64.927  1.00  0.00    -0.379 C  
HETATM   22  N   UNL     1     -11.093  11.764  64.582  1.00  0.00    -0.312 N  
HETATM   23  O   UNL     1     -12.478  13.482  64.075  1.00  0.00    -0.645 OA 
HETATM   24  H   UNL     1     -10.885  11.632  63.592  1.00  0.00     0.000 HD 
ENDBRANCH  12  13
ENDBRANCH  11  12
ENDBRANCH   8  11
ENDBRANCH   7   8
ENDBRANCH   5   7
TORSDOF 5
ENDMDL
MODEL      190
REMARK 921   NORMALIZED FREE ENERGY PREDICTED BY IDOCK:   -4.08 KCAL/MOL
REMARK 922        TOTAL FREE ENERGY PREDICTED BY IDOCK:   -5.90 KCAL/MOL
REMARK 923 INTER-LIGAND FREE ENERGY PREDICTED BY IDOCK:   -5.38 KCAL/MOL
REMARK 924 INTRA-LIGAND FREE ENERGY PREDICTED BY IDOCK:   -0.52 KCAL/MOL
REMARK 927      BINDING AFFINITY PREDICTED BY RF-SCORE:    0.00 PKD
ROOT
HETATM    1  C   UNL     1     -12.661  13.813  66.272  1.00  0.00    -0.372 C  
HETATM    2  C   UNL     1     -11.810  14.081  65.018  1.00  0.00    -0.378 C  
HETATM    3  C   UNL     1     -12.387  15.314  64.299  1.00  0.00    -0.139 C  
HETATM    4  C   UNL     1     -11.903  12.881  64.057  1.00  0.00    -0.512 C  
HETATM    5  N   UNL     1     -10.405  14.389  65.351  1.00  0.00    -0.355 NA 
HETATM    6  H   UNL     1     -10.343  15.280  65.844  1.00  0.00     0.000 HD 
ENDROOT
BRANCH   5   7
HETATM    7  C   UNL     1      -9.715  13.339  66.109  1.00  0.00    -0.250 C  
BRANCH   7   8
HETATM    8  C   UNL     1      -9.335  13.782  67.538  1.00  0.00    -0.222 C  
HETATM    9  H   UNL     1      -9.331  12.995  69.349  1.00  0.00     0.000 HD 
HETATM   10  O   UNL     1      -9.565  12.721  68.470  1.00  0.00    -0.198 OA 
BRANCH   8  11
HETATM   11  C   UNL     1      -7.855  14.206  67.547  1.00  0.00    -0.192 C  
BRANCH  11  12
HETATM   12  O   UNL     1      -7.609  15.111  68.624  1.00  0.00    -0.115 OA 
BRANCH  12  13
HETATM   13  C   UNL     1      -7.240  16.405  68.354  1.00  0.00    -0.158 A  
HETATM   14  C   UNL     1      -5.893  16.487  67.950  1.00  0.00    -0.141 A  
HETATM   15  C   UNL     1      -5.331  17.686  67.514  1.00  0.00    -0.141 A  
HETATM   16  C   UNL     1      -6.127  18.819  67.427  1.00  0.00    -0.171 A  
HETATM   17  C   UNL     1      -7.471  18.750  67.798  1.00  0.00    -0.228 A  
HETATM   18  C   UNL     1      -8.044  17.563  68.310  1.00  0.00    -0.268 A  
HETATM   19  C   UNL     1      -9.516  17.596  68.624  1.00  0.00    -0.284 C  
HETATM   20  C   UNL     1     -10.091  18.982  68.863  1.00  0.00    -0.396 C  
HETATM   21  C   UNL     1      -9.578  19.999  67.893  1.00  0.00    -0.367 C  
HETATM   22  N   UNL     1      -8.258  19.882  67.555  1.00  0.00    -0.313 N  
HETATM   23  O   UNL     1     -10.253  20.954  67.517  1.00  0.00    -0.185 OA 
HETATM   24  H   UNL     1      -7.815  20.676  67.093  1.00  0.00     0.000 HD 
ENDBRANCH  12  13
ENDBRANCH  11  12
ENDBRANCH   8  11
ENDBRANCH   7   8
ENDBRANCH   5   7
TORSDOF 5
ENDMDL
MODEL      191
REMARK 921   NORMALIZED FREE ENERGY PREDICTED BY IDOCK:   -4.08 KCAL/MOL
REMARK 922        TOTAL FREE ENERGY PREDICTED BY IDOCK:   -5.90 KCAL/MOL
REMARK 923 INTER-LIGAND FREE ENERGY PREDICTED BY IDOCK:   -5.64 KCAL/MOL
REMARK 924 INTRA-LIGAND FREE ENERGY PREDICTED BY IDOCK:   -0.26 KCAL/MOL
REMARK 927      BINDING AFFINITY PREDICTED BY RF-SCORE:    0.00 PKD
ROOT
HETATM    1  C   UNL     1     -11.897  15.101  72.237  1.00  0.00    -0.493 C  
HETATM    2  C   UNL     1     -13.099  14.546  71.451  1.00  0.00    -0.353 C  
HETATM    3  C   UNL     1     -14.364  15.292  71.913  1.00  0.00    -0.691 C  
HETATM    4  C   UNL     1     -13.284  13.050  71.768  1.00  0.00    -0.486 C  
HETATM    5  N   UNL     1     -12.966  14.770  69.997  1.00  0.00    -0.577 NA 
HETATM    6  H   UNL     1     -13.016  15.766  69.785  1.00  0.00     0.000 HD 
ENDROOT
BRANCH   5   7
HETATM    7  C   UNL     1     -11.764  14.180  69.397  1.00  0.00    -0.313 C  
BRANCH   7   8
HETATM    8  C   UNL     1     -11.837  14.106  67.857  1.00  0.00    -0.370 C  
HETATM    9  H   UNL     1     -11.502  15.311  66.328  1.00  0.00     0.000 HD 
HETATM   10  O   UNL     1     -11.457  15.357  67.276  1.00  0.00    -0.286 OA 
BRANCH   8  11
HETATM   11  C   UNL     1     -10.912  12.975  67.372  1.00  0.00    -0.260 C  
BRANCH  11  12
HETATM   12  O   UNL     1      -9.692  13.520  66.867  1.00  0.00    -0.245 OA 
BRANCH  12  13
HETATM   13  C   UNL     1      -8.546  13.433  67.616  1.00  0.00    -0.193 A  
HETATM   14  C   UNL     1      -7.911  14.684  67.739  1.00  0.00    -0.165 A  
HETATM   15  C   UNL     1      -6.791  14.860  68.551  1.00  0.00    -0.106 A  
HETATM   16  C   UNL     1      -6.318  13.792  69.300  1.00  0.00    -0.110 A  
HETATM   17  C   UNL     1      -6.952  12.552  69.211  1.00  0.00     0.032 A  
HETATM   18  C   UNL     1      -8.044  12.332  68.340  1.00  0.00    -0.151 A  
HETATM   19  C   UNL     1      -8.679  10.967  68.374  1.00  0.00    -0.150 C  
HETATM   20  C   UNL     1      -7.791   9.858  68.910  1.00  0.00    -0.091 C  
HETATM   21  C   UNL     1      -7.005  10.273  70.113  1.00  0.00    -0.155 C  
HETATM   22  N   UNL     1      -6.523  11.553  70.093  1.00  0.00    -0.306 N  
HETATM   23  O   UNL     1      -6.700   9.489  71.007  1.00  0.00    -0.165 OA 
HETATM   24  H   UNL     1      -5.797  11.796  70.767  1.00  0.00     0.000 HD 
ENDBRANCH  12  13
ENDBRANCH  11  12
ENDBRANCH   8  11
ENDBRANCH   7   8
ENDBRANCH   5   7
TORSDOF 5
ENDMDL
MODEL      192
REMARK 921   NORMALIZED FREE ENERGY PREDICTED BY IDOCK:   -4.07 KCAL/MOL
REMARK 922        TOTAL FREE ENERGY PREDICTED BY IDOCK:   -5.89 KCAL/MOL
REMARK 923 INTER-LIGAND FREE ENERGY PREDICTED BY IDOCK:   -5.06 KCAL/MOL
REMARK 924 INTRA-LIGAND FREE ENERGY PREDICTED BY IDOCK:   -0.83 KCAL/MOL
REMARK 927      BINDING AFFINITY PREDICTED BY RF-SCORE:    0.00 PKD
ROOT
HETATM    1  C   UNL     1      -8.857   9.154  64.649  1.00  0.00    -0.183 C  
HETATM    2  C   UNL     1      -9.072  10.144  65.808  1.00  0.00    -0.171 C  
HETATM    3  C   UNL     1      -7.737  10.305  66.559  1.00  0.00    -0.113 C  
HETATM    4  C   UNL     1     -10.110   9.577  66.794  1.00  0.00    -0.312 C  
HETATM    5  N   UNL     1      -9.468  11.485  65.331  1.00  0.00    -0.278 NA 
HETATM    6  H   UNL     1      -8.700  11.920  64.819  1.00  0.00     0.000 HD 
ENDROOT
BRANCH   5   7
HETATM    7  C   UNL     1     -10.695  11.507  64.527  1.00  0.00    -0.329 C  
BRANCH   7   8
HETATM    8  C   UNL     1     -11.599  12.717  64.846  1.00  0.00    -0.334 C  
HETATM    9  H   UNL     1     -13.082  13.135  66.081  1.00  0.00     0.000 HD 
HETATM   10  O   UNL     1     -12.526  12.390  65.885  1.00  0.00    -0.583 OA 
BRANCH   8  11
HETATM   11  C   UNL     1     -10.709  13.903  65.261  1.00  0.00    -0.345 C  
BRANCH  11  12
HETATM   12  O   UNL     1     -10.877  14.181  66.651  1.00  0.00    -0.294 OA 
BRANCH  12  13
HETATM   13  C   UNL     1      -9.783  14.491  67.420  1.00  0.00    -0.222 A  
HETATM   14  C   UNL     1      -9.175  13.336  67.948  1.00  0.00    -0.213 A  
HETATM   15  C   UNL     1      -7.981  13.400  68.666  1.00  0.00    -0.056 A  
HETATM   16  C   UNL     1      -7.346  14.623  68.823  1.00  0.00    -0.131 A  
HETATM   17  C   UNL     1      -7.920  15.775  68.284  1.00  0.00    -0.130 A  
HETATM   18  C   UNL     1      -9.166  15.745  67.614  1.00  0.00    -0.200 A  
HETATM   19  C   UNL     1      -9.656  17.042  67.028  1.00  0.00    -0.257 C  
HETATM   20  C   UNL     1      -9.063  18.293  67.651  1.00  0.00    -0.267 C  
HETATM   21  C   UNL     1      -7.595  18.175  67.907  1.00  0.00    -0.233 C  
HETATM   22  N   UNL     1      -7.168  16.953  68.349  1.00  0.00    -0.186 N  
HETATM   23  O   UNL     1      -6.833  19.137  67.851  1.00  0.00    -0.219 OA 
HETATM   24  H   UNL     1      -6.234  16.896  68.755  1.00  0.00     0.000 HD 
ENDBRANCH  12  13
ENDBRANCH  11  12
ENDBRANCH   8  11
ENDBRANCH   7   8
ENDBRANCH   5   7
TORSDOF 5
ENDMDL
MODEL      193
REMARK 921   NORMALIZED FREE ENERGY PREDICTED BY IDOCK:   -4.07 KCAL/MOL
REMARK 922        TOTAL FREE ENERGY PREDICTED BY IDOCK:   -5.89 KCAL/MOL
REMARK 923 INTER-LIGAND FREE ENERGY PREDICTED BY IDOCK:   -5.48 KCAL/MOL
REMARK 924 INTRA-LIGAND FREE ENERGY PREDICTED BY IDOCK:   -0.41 KCAL/MOL
REMARK 927      BINDING AFFINITY PREDICTED BY RF-SCORE:    0.00 PKD
ROOT
HETATM    1  C   UNL     1      -8.777  15.281  69.077  1.00  0.00    -0.226 C  
HETATM    2  C   UNL     1      -8.644  14.159  68.032  1.00  0.00    -0.172 C  
HETATM    3  C   UNL     1      -7.147  13.852  67.843  1.00  0.00    -0.168 C  
HETATM    4  C   UNL     1      -9.209  14.634  66.680  1.00  0.00    -0.291 C  
HETATM    5  N   UNL     1      -9.294  12.907  68.471  1.00  0.00    -0.378 NA 
HETATM    6  H   UNL     1      -8.800  12.512  69.271  1.00  0.00     0.000 HD 
ENDROOT
BRANCH   5   7
HETATM    7  C   UNL     1     -10.725  13.036  68.767  1.00  0.00    -0.221 C  
BRANCH   7   8
HETATM    8  C   UNL     1     -11.418  11.673  68.979  1.00  0.00    -0.294 C  
HETATM    9  H   UNL     1     -12.572  10.454  67.939  1.00  0.00     0.000 HD 
HETATM   10  O   UNL     1     -12.146  11.293  67.808  1.00  0.00    -0.631 OA 
BRANCH   8  11
HETATM   11  C   UNL     1     -10.346  10.621  69.320  1.00  0.00    -0.218 C  
BRANCH  11  12
HETATM   12  O   UNL     1     -10.742   9.869  70.468  1.00  0.00    -0.288 OA 
BRANCH  12  13
HETATM   13  C   UNL     1     -10.720   8.498  70.424  1.00  0.00    -0.228 A  
HETATM   14  C   UNL     1     -10.817   8.020  69.103  1.00  0.00    -0.038 A  
HETATM   15  C   UNL     1     -10.700   6.663  68.805  1.00  0.00    -0.302 A  
HETATM   16  C   UNL     1     -10.430   5.762  69.825  1.00  0.00    -0.363 A  
HETATM   17  C   UNL     1     -10.304   6.221  71.137  1.00  0.00    -0.209 A  
HETATM   18  C   UNL     1     -10.489   7.583  71.472  1.00  0.00    -0.226 A  
HETATM   19  C   UNL     1     -10.272   7.966  72.912  1.00  0.00    -0.397 C  
HETATM   20  C   UNL     1     -10.404   6.826  73.907  1.00  0.00    -0.397 C  
HETATM   21  C   UNL     1      -9.756   5.564  73.434  1.00  0.00    -0.151 C  
HETATM   22  N   UNL     1      -9.891   5.294  72.100  1.00  0.00    -0.167 N  
HETATM   23  O   UNL     1      -9.245   4.754  74.202  1.00  0.00    -0.114 OA 
HETATM   24  H   UNL     1      -9.676   4.348  71.784  1.00  0.00     0.000 HD 
ENDBRANCH  12  13
ENDBRANCH  11  12
ENDBRANCH   8  11
ENDBRANCH   7   8
ENDBRANCH   5   7
TORSDOF 5
ENDMDL
MODEL      194
REMARK 921   NORMALIZED FREE ENERGY PREDICTED BY IDOCK:   -4.07 KCAL/MOL
REMARK 922        TOTAL FREE ENERGY PREDICTED BY IDOCK:   -5.89 KCAL/MOL
REMARK 923 INTER-LIGAND FREE ENERGY PREDICTED BY IDOCK:   -4.89 KCAL/MOL
REMARK 924 INTRA-LIGAND FREE ENERGY PREDICTED BY IDOCK:   -0.99 KCAL/MOL
REMARK 927      BINDING AFFINITY PREDICTED BY RF-SCORE:    0.00 PKD
ROOT
HETATM    1  C   UNL     1      -6.943  15.223  67.444  1.00  0.00    -0.212 C  
HETATM    2  C   UNL     1      -7.149  15.169  68.968  1.00  0.00    -0.140 C  
HETATM    3  C   UNL     1      -8.523  15.784  69.291  1.00  0.00    -0.258 C  
HETATM    4  C   UNL     1      -6.070  16.014  69.671  1.00  0.00    -0.172 C  
HETATM    5  N   UNL     1      -7.159  13.784  69.482  1.00  0.00    -0.322 NA 
HETATM    6  H   UNL     1      -7.979  13.284  69.139  1.00  0.00     0.000 HD 
ENDROOT
BRANCH   5   7
HETATM    7  C   UNL     1      -5.939  13.020  69.196  1.00  0.00    -0.086 C  
BRANCH   7   8
HETATM    8  C   UNL     1      -5.578  12.025  70.320  1.00  0.00    -0.147 C  
HETATM    9  H   UNL     1      -5.512  12.026  72.293  1.00  0.00     0.000 HD 
HETATM   10  O   UNL     1      -5.734  12.639  71.603  1.00  0.00    -0.371 OA 
BRANCH   8  11
HETATM   11  C   UNL     1      -6.485  10.787  70.193  1.00  0.00    -0.155 C  
BRANCH  11  12
HETATM   12  O   UNL     1      -7.192  10.820  68.953  1.00  0.00    -0.072 OA 
BRANCH  12  13
HETATM   13  C   UNL     1      -8.556  10.669  68.943  1.00  0.00    -0.158 A  
HETATM   14  C   UNL     1      -8.991   9.817  69.978  1.00  0.00    -0.255 A  
HETATM   15  C   UNL     1     -10.346   9.607  70.233  1.00  0.00    -0.336 A  
HETATM   16  C   UNL     1     -11.293  10.292  69.486  1.00  0.00    -0.299 A  
HETATM   17  C   UNL     1     -10.881  11.160  68.474  1.00  0.00    -0.203 A  
HETATM   18  C   UNL     1      -9.515  11.334  68.150  1.00  0.00    -0.184 A  
HETATM   19  C   UNL     1      -9.190  12.339  67.077  1.00  0.00    -0.205 C  
HETATM   20  C   UNL     1     -10.330  12.650  66.123  1.00  0.00    -0.273 C  
HETATM   21  C   UNL     1     -11.646  12.796  66.817  1.00  0.00    -0.370 C  
HETATM   22  N   UNL     1     -11.870  11.929  67.851  1.00  0.00    -0.294 N  
HETATM   23  O   UNL     1     -12.526  13.554  66.416  1.00  0.00    -0.380 OA 
HETATM   24  H   UNL     1     -12.827  11.835  68.192  1.00  0.00     0.000 HD 
ENDBRANCH  12  13
ENDBRANCH  11  12
ENDBRANCH   8  11
ENDBRANCH   7   8
ENDBRANCH   5   7
TORSDOF 5
ENDMDL
MODEL      195
REMARK 921   NORMALIZED FREE ENERGY PREDICTED BY IDOCK:   -4.07 KCAL/MOL
REMARK 922        TOTAL FREE ENERGY PREDICTED BY IDOCK:   -5.88 KCAL/MOL
REMARK 923 INTER-LIGAND FREE ENERGY PREDICTED BY IDOCK:   -5.44 KCAL/MOL
REMARK 924 INTRA-LIGAND FREE ENERGY PREDICTED BY IDOCK:   -0.44 KCAL/MOL
REMARK 927      BINDING AFFINITY PREDICTED BY RF-SCORE:    0.00 PKD
ROOT
HETATM    1  C   UNL     1      -9.150   5.968  73.354  1.00  0.00    -0.131 C  
HETATM    2  C   UNL     1      -9.676   5.811  71.916  1.00  0.00    -0.159 C  
HETATM    3  C   UNL     1      -9.971   4.319  71.671  1.00  0.00    -0.250 C  
HETATM    4  C   UNL     1      -8.595   6.254  70.912  1.00  0.00    -0.135 C  
HETATM    5  N   UNL     1     -10.938   6.546  71.699  1.00  0.00    -0.240 NA 
HETATM    6  H   UNL     1     -11.690   6.130  72.247  1.00  0.00     0.000 HD 
ENDROOT
BRANCH   5   7
HETATM    7  C   UNL     1     -10.854   7.988  71.959  1.00  0.00    -0.272 C  
BRANCH   7   8
HETATM    8  C   UNL     1     -11.533   8.835  70.862  1.00  0.00    -0.284 C  
HETATM    9  H   UNL     1     -12.437  10.586  70.731  1.00  0.00     0.000 HD 
HETATM   10  O   UNL     1     -12.019  10.065  71.407  1.00  0.00    -0.365 OA 
BRANCH   8  11
HETATM   11  C   UNL     1     -10.511   9.101  69.741  1.00  0.00    -0.223 C  
BRANCH  11  12
HETATM   12  O   UNL     1     -10.994  10.124  68.868  1.00  0.00    -0.219 OA 
BRANCH  12  13
HETATM   13  C   UNL     1     -10.128  11.077  68.394  1.00  0.00    -0.184 A  
HETATM   14  C   UNL     1      -8.790  10.757  68.693  1.00  0.00    -0.152 A  
HETATM   15  C   UNL     1      -7.728  11.523  68.211  1.00  0.00    -0.123 A  
HETATM   16  C   UNL     1      -7.989  12.597  67.372  1.00  0.00    -0.177 A  
HETATM   17  C   UNL     1      -9.308  12.913  67.044  1.00  0.00    -0.235 A  
HETATM   18  C   UNL     1     -10.403  12.195  67.578  1.00  0.00    -0.219 A  
HETATM   19  C   UNL     1     -11.776  12.594  67.106  1.00  0.00    -0.438 C  
HETATM   20  C   UNL     1     -11.881  14.005  66.554  1.00  0.00    -0.439 C  
HETATM   21  C   UNL     1     -10.726  14.373  65.677  1.00  0.00    -0.320 C  
HETATM   22  N   UNL     1      -9.504  13.913  66.085  1.00  0.00    -0.472 N  
HETATM   23  O   UNL     1     -10.836  15.140  64.725  1.00  0.00    -0.403 OA 
HETATM   24  H   UNL     1      -8.676  14.330  65.659  1.00  0.00     0.000 HD 
ENDBRANCH  12  13
ENDBRANCH  11  12
ENDBRANCH   8  11
ENDBRANCH   7   8
ENDBRANCH   5   7
TORSDOF 5
ENDMDL
MODEL      196
REMARK 921   NORMALIZED FREE ENERGY PREDICTED BY IDOCK:   -4.06 KCAL/MOL
REMARK 922        TOTAL FREE ENERGY PREDICTED BY IDOCK:   -5.88 KCAL/MOL
REMARK 923 INTER-LIGAND FREE ENERGY PREDICTED BY IDOCK:   -6.00 KCAL/MOL
REMARK 924 INTRA-LIGAND FREE ENERGY PREDICTED BY IDOCK:    0.12 KCAL/MOL
REMARK 927      BINDING AFFINITY PREDICTED BY RF-SCORE:    0.00 PKD
ROOT
HETATM    1  C   UNL     1      -6.630  16.065  69.529  1.00  0.00    -0.201 C  
HETATM    2  C   UNL     1      -7.566  16.555  68.409  1.00  0.00    -0.189 C  
HETATM    3  C   UNL     1      -6.810  16.459  67.072  1.00  0.00    -0.245 C  
HETATM    4  C   UNL     1      -7.935  18.031  68.645  1.00  0.00    -0.303 C  
HETATM    5  N   UNL     1      -8.776  15.717  68.287  1.00  0.00    -0.171 NA 
HETATM    6  H   UNL     1      -8.530  14.781  67.964  1.00  0.00     0.000 HD 
ENDROOT
BRANCH   5   7
HETATM    7  C   UNL     1      -9.587  15.637  69.508  1.00  0.00    -0.279 C  
BRANCH   7   8
HETATM    8  C   UNL     1     -11.101  15.752  69.230  1.00  0.00    -0.297 C  
HETATM    9  H   UNL     1     -12.264  16.416  67.778  1.00  0.00     0.000 HD 
HETATM   10  O   UNL     1     -11.332  16.345  67.949  1.00  0.00    -0.240 OA 
BRANCH   8  11
HETATM   11  C   UNL     1     -11.725  14.346  69.301  1.00  0.00    -0.317 C  
BRANCH  11  12
HETATM   12  O   UNL     1     -10.701  13.352  69.258  1.00  0.00    -0.126 OA 
BRANCH  12  13
HETATM   13  C   UNL     1     -10.333  12.807  68.053  1.00  0.00    -0.229 A  
HETATM   14  C   UNL     1      -9.153  12.048  68.166  1.00  0.00    -0.191 A  
HETATM   15  C   UNL     1      -8.652  11.307  67.095  1.00  0.00    -0.147 A  
HETATM   16  C   UNL     1      -9.360  11.273  65.902  1.00  0.00    -0.240 A  
HETATM   17  C   UNL     1     -10.546  11.998  65.781  1.00  0.00    -0.263 A  
HETATM   18  C   UNL     1     -11.034  12.812  66.829  1.00  0.00    -0.301 A  
HETATM   19  C   UNL     1     -12.352  13.502  66.600  1.00  0.00    -0.351 C  
HETATM   20  C   UNL     1     -12.738  13.683  65.142  1.00  0.00    -0.443 C  
HETATM   21  C   UNL     1     -12.449  12.473  64.310  1.00  0.00    -0.432 C  
HETATM   22  N   UNL     1     -11.288  11.814  64.609  1.00  0.00    -0.288 N  
HETATM   23  O   UNL     1     -13.133  12.158  63.341  1.00  0.00    -0.752 OA 
HETATM   24  H   UNL     1     -10.939  11.139  63.928  1.00  0.00     0.000 HD 
ENDBRANCH  12  13
ENDBRANCH  11  12
ENDBRANCH   8  11
ENDBRANCH   7   8
ENDBRANCH   5   7
TORSDOF 5
ENDMDL
MODEL      197
REMARK 921   NORMALIZED FREE ENERGY PREDICTED BY IDOCK:   -4.06 KCAL/MOL
REMARK 922        TOTAL FREE ENERGY PREDICTED BY IDOCK:   -5.88 KCAL/MOL
REMARK 923 INTER-LIGAND FREE ENERGY PREDICTED BY IDOCK:   -5.48 KCAL/MOL
REMARK 924 INTRA-LIGAND FREE ENERGY PREDICTED BY IDOCK:   -0.40 KCAL/MOL
REMARK 927      BINDING AFFINITY PREDICTED BY RF-SCORE:    0.00 PKD
ROOT
HETATM    1  C   UNL     1      -6.180  18.754  67.444  1.00  0.00    -0.185 C  
HETATM    2  C   UNL     1      -6.838  18.752  68.835  1.00  0.00    -0.291 C  
HETATM    3  C   UNL     1      -6.656  20.148  69.457  1.00  0.00    -0.291 C  
HETATM    4  C   UNL     1      -6.135  17.728  69.745  1.00  0.00    -0.213 C  
HETATM    5  N   UNL     1      -8.291  18.492  68.765  1.00  0.00    -0.288 NA 
HETATM    6  H   UNL     1      -8.768  19.268  68.305  1.00  0.00     0.000 HD 
ENDROOT
BRANCH   5   7
HETATM    7  C   UNL     1      -8.651  17.221  68.128  1.00  0.00    -0.242 C  
BRANCH   7   8
HETATM    8  C   UNL     1      -9.801  17.367  67.107  1.00  0.00    -0.278 C  
HETATM    9  H   UNL     1      -9.990  17.766  65.183  1.00  0.00     0.000 HD 
HETATM   10  O   UNL     1      -9.283  17.677  65.810  1.00  0.00    -0.505 OA 
BRANCH   8  11
HETATM   11  C   UNL     1     -10.603  16.053  67.075  1.00  0.00    -0.302 C  
BRANCH  11  12
HETATM   12  O   UNL     1     -10.501  15.446  65.786  1.00  0.00    -0.309 OA 
BRANCH  12  13
HETATM   13  C   UNL     1     -10.753  14.105  65.644  1.00  0.00    -0.313 A  
HETATM   14  C   UNL     1     -11.927  13.873  64.902  1.00  0.00    -0.412 A  
HETATM   15  C   UNL     1     -12.320  12.586  64.535  1.00  0.00    -0.545 A  
HETATM   16  C   UNL     1     -11.509  11.508  64.862  1.00  0.00    -0.123 A  
HETATM   17  C   UNL     1     -10.328  11.721  65.574  1.00  0.00    -0.262 A  
HETATM   18  C   UNL     1      -9.948  13.009  66.019  1.00  0.00    -0.277 A  
HETATM   19  C   UNL     1      -8.625  13.121  66.729  1.00  0.00    -0.049 C  
HETATM   20  C   UNL     1      -8.115  11.830  67.346  1.00  0.00    -0.161 C  
HETATM   21  C   UNL     1      -8.311  10.644  66.456  1.00  0.00    -0.143 C  
HETATM   22  N   UNL     1      -9.483  10.621  65.751  1.00  0.00    -0.190 N  
HETATM   23  O   UNL     1      -7.539   9.689  66.446  1.00  0.00    -0.099 OA 
HETATM   24  H   UNL     1      -9.761   9.737  65.323  1.00  0.00     0.000 HD 
ENDBRANCH  12  13
ENDBRANCH  11  12
ENDBRANCH   8  11
ENDBRANCH   7   8
ENDBRANCH   5   7
TORSDOF 5
ENDMDL
MODEL      198
REMARK 921   NORMALIZED FREE ENERGY PREDICTED BY IDOCK:   -4.04 KCAL/MOL
REMARK 922        TOTAL FREE ENERGY PREDICTED BY IDOCK:   -5.86 KCAL/MOL
REMARK 923 INTER-LIGAND FREE ENERGY PREDICTED BY IDOCK:   -5.31 KCAL/MOL
REMARK 924 INTRA-LIGAND FREE ENERGY PREDICTED BY IDOCK:   -0.55 KCAL/MOL
REMARK 927      BINDING AFFINITY PREDICTED BY RF-SCORE:    0.00 PKD
ROOT
HETATM    1  C   UNL     1     -10.554  13.348  64.213  1.00  0.00    -0.358 C  
HETATM    2  C   UNL     1     -11.470  12.208  64.694  1.00  0.00    -0.328 C  
HETATM    3  C   UNL     1     -12.601  12.031  63.665  1.00  0.00    -0.605 C  
HETATM    4  C   UNL     1     -12.108  12.585  66.045  1.00  0.00    -0.390 C  
HETATM    5  N   UNL     1     -10.756  10.918  64.785  1.00  0.00    -0.250 NA 
HETATM    6  H   UNL     1     -10.486  10.596  63.855  1.00  0.00     0.000 HD 
ENDROOT
BRANCH   5   7
HETATM    7  C   UNL     1      -9.593  10.928  65.679  1.00  0.00    -0.224 C  
BRANCH   7   8
HETATM    8  C   UNL     1      -8.683   9.695  65.492  1.00  0.00    -0.153 C  
HETATM    9  H   UNL     1      -7.239   9.128  64.270  1.00  0.00     0.000 HD 
HETATM   10  O   UNL     1      -7.798   9.887  64.384  1.00  0.00    -0.131 OA 
BRANCH   8  11
HETATM   11  C   UNL     1      -7.889   9.465  66.791  1.00  0.00    -0.105 C  
BRANCH  11  12
HETATM   12  O   UNL     1      -7.662   8.069  66.989  1.00  0.00    -0.097 OA 
BRANCH  12  13
HETATM   13  C   UNL     1      -8.726   7.233  67.219  1.00  0.00    -0.121 A  
HETATM   14  C   UNL     1      -9.430   7.597  68.383  1.00  0.00    -0.150 A  
HETATM   15  C   UNL     1     -10.615   6.961  68.752  1.00  0.00    -0.247 A  
HETATM   16  C   UNL     1     -11.145   5.978  67.928  1.00  0.00    -0.220 A  
HETATM   17  C   UNL     1     -10.475   5.622  66.757  1.00  0.00    -0.291 A  
HETATM   18  C   UNL     1      -9.236   6.204  66.400  1.00  0.00    -0.166 A  
HETATM   19  C   UNL     1      -8.637   5.780  65.085  1.00  0.00    -0.110 C  
HETATM   20  C   UNL     1      -9.122   4.439  64.561  1.00  0.00    -0.152 C  
HETATM   21  C   UNL     1     -10.596   4.248  64.730  1.00  0.00    -0.120 C  
HETATM   22  N   UNL     1     -11.125   4.731  65.896  1.00  0.00    -0.792 N  
HETATM   23  O   UNL     1     -11.274   3.592  63.944  1.00  0.00    -0.297 OA 
HETATM   24  H   UNL     1     -12.061   4.419  66.156  1.00  0.00     0.000 HD 
ENDBRANCH  12  13
ENDBRANCH  11  12
ENDBRANCH   8  11
ENDBRANCH   7   8
ENDBRANCH   5   7
TORSDOF 5
ENDMDL
MODEL      199
REMARK 921   NORMALIZED FREE ENERGY PREDICTED BY IDOCK:   -4.04 KCAL/MOL
REMARK 922        TOTAL FREE ENERGY PREDICTED BY IDOCK:   -5.86 KCAL/MOL
REMARK 923 INTER-LIGAND FREE ENERGY PREDICTED BY IDOCK:   -5.14 KCAL/MOL
REMARK 924 INTRA-LIGAND FREE ENERGY PREDICTED BY IDOCK:   -0.71 KCAL/MOL
REMARK 927      BINDING AFFINITY PREDICTED BY RF-SCORE:    0.00 PKD
ROOT
HETATM    1  C   UNL     1      -9.978   9.090  68.764  1.00  0.00    -0.194 C  
HETATM    2  C   UNL     1     -10.282  10.579  68.518  1.00  0.00    -0.174 C  
HETATM    3  C   UNL     1     -11.603  10.925  69.228  1.00  0.00    -0.388 C  
HETATM    4  C   UNL     1     -10.469  10.831  67.010  1.00  0.00    -0.297 C  
HETATM    5  N   UNL     1      -9.240  11.461  69.081  1.00  0.00    -0.404 NA 
HETATM    6  H   UNL     1      -9.243  11.410  70.099  1.00  0.00     0.000 HD 
ENDROOT
BRANCH   5   7
HETATM    7  C   UNL     1      -7.890  11.217  68.561  1.00  0.00    -0.136 C  
BRANCH   7   8
HETATM    8  C   UNL     1      -7.120  12.520  68.257  1.00  0.00    -0.104 C  
HETATM    9  H   UNL     1      -5.705  13.113  67.013  1.00  0.00     0.000 HD 
HETATM   10  O   UNL     1      -6.179  12.311  67.200  1.00  0.00    -0.150 OA 
BRANCH   8  11
HETATM   11  C   UNL     1      -8.133  13.616  67.878  1.00  0.00    -0.164 C  
BRANCH  11  12
HETATM   12  O   UNL     1      -8.421  14.433  69.013  1.00  0.00    -0.111 OA 
BRANCH  12  13
HETATM   13  C   UNL     1      -8.095  15.767  68.990  1.00  0.00    -0.224 A  
HETATM   14  C   UNL     1      -6.785  15.989  69.456  1.00  0.00    -0.199 A  
HETATM   15  C   UNL     1      -6.198  17.253  69.416  1.00  0.00    -0.245 A  
HETATM   16  C   UNL     1      -6.899  18.312  68.856  1.00  0.00    -0.270 A  
HETATM   17  C   UNL     1      -8.189  18.104  68.365  1.00  0.00    -0.303 A  
HETATM   18  C   UNL     1      -8.831  16.848  68.461  1.00  0.00    -0.251 A  
HETATM   19  C   UNL     1     -10.200  16.733  67.846  1.00  0.00    -0.300 C  
HETATM   20  C   UNL     1     -10.940  18.048  67.676  1.00  0.00    -0.115 C  
HETATM   21  C   UNL     1     -10.061  19.150  67.178  1.00  0.00    -0.373 C  
HETATM   22  N   UNL     1      -8.791  19.169  67.685  1.00  0.00    -0.291 N  
HETATM   23  O   UNL     1     -10.476  20.056  66.460  1.00  0.00    -0.449 OA 
HETATM   24  H   UNL     1      -8.243  20.021  67.560  1.00  0.00     0.000 HD 
ENDBRANCH  12  13
ENDBRANCH  11  12
ENDBRANCH   8  11
ENDBRANCH   7   8
ENDBRANCH   5   7
TORSDOF 5
ENDMDL
MODEL      200
REMARK 921   NORMALIZED FREE ENERGY PREDICTED BY IDOCK:   -4.03 KCAL/MOL
REMARK 922        TOTAL FREE ENERGY PREDICTED BY IDOCK:   -5.84 KCAL/MOL
REMARK 923 INTER-LIGAND FREE ENERGY PREDICTED BY IDOCK:   -4.97 KCAL/MOL
REMARK 924 INTRA-LIGAND FREE ENERGY PREDICTED BY IDOCK:   -0.87 KCAL/MOL
REMARK 927      BINDING AFFINITY PREDICTED BY RF-SCORE:    0.00 PKD
ROOT
HETATM    1  C   UNL     1      -9.057  19.362  66.316  1.00  0.00    -0.380 C  
HETATM    2  C   UNL     1      -9.030  18.116  67.219  1.00  0.00    -0.248 C  
HETATM    3  C   UNL     1      -8.971  18.584  68.685  1.00  0.00    -0.323 C  
HETATM    4  C   UNL     1      -7.763  17.289  66.930  1.00  0.00    -0.250 C  
HETATM    5  N   UNL     1     -10.248  17.294  67.072  1.00  0.00    -0.312 NA 
HETATM    6  H   UNL     1     -11.061  17.796  67.428  1.00  0.00     0.000 HD 
ENDROOT
BRANCH   5   7
HETATM    7  C   UNL     1     -10.500  16.818  65.707  1.00  0.00    -0.292 C  
BRANCH   7   8
HETATM    8  C   UNL     1     -11.070  15.384  65.668  1.00  0.00    -0.271 C  
HETATM    9  H   UNL     1     -10.519  13.621  64.970  1.00  0.00     0.000 HD 
HETATM   10  O   UNL     1     -10.167  14.503  64.994  1.00  0.00    -0.404 OA 
BRANCH   8  11
HETATM   11  C   UNL     1     -11.317  14.911  67.113  1.00  0.00    -0.343 C  
BRANCH  11  12
HETATM   12  O   UNL     1     -10.087  14.510  67.716  1.00  0.00    -0.223 OA 
BRANCH  12  13
HETATM   13  C   UNL     1      -9.943  13.225  68.178  1.00  0.00    -0.234 A  
HETATM   14  C   UNL     1     -11.112  12.770  68.818  1.00  0.00    -0.303 A  
HETATM   15  C   UNL     1     -11.237  11.455  69.265  1.00  0.00    -0.342 A  
HETATM   16  C   UNL     1     -10.207  10.555  69.030  1.00  0.00    -0.233 A  
HETATM   17  C   UNL     1      -9.052  10.982  68.374  1.00  0.00    -0.161 A  
HETATM   18  C   UNL     1      -8.874  12.327  67.976  1.00  0.00    -0.182 A  
HETATM   19  C   UNL     1      -7.609  12.655  67.227  1.00  0.00    -0.121 C  
HETATM   20  C   UNL     1      -6.465  11.679  67.440  1.00  0.00    -0.103 C  
HETATM   21  C   UNL     1      -6.910  10.251  67.433  1.00  0.00    -0.077 C  
HETATM   22  N   UNL     1      -8.110  10.002  68.039  1.00  0.00    -0.111 N  
HETATM   23  O   UNL     1      -6.197   9.338  67.027  1.00  0.00    -0.060 OA 
HETATM   24  H   UNL     1      -8.336   9.033  68.263  1.00  0.00     0.000 HD 
ENDBRANCH  12  13
ENDBRANCH  11  12
ENDBRANCH   8  11
ENDBRANCH   7   8
ENDBRANCH   5   7
TORSDOF 5
ENDMDL
MODEL      201
REMARK 921   NORMALIZED FREE ENERGY PREDICTED BY IDOCK:   -4.02 KCAL/MOL
REMARK 922        TOTAL FREE ENERGY PREDICTED BY IDOCK:   -5.83 KCAL/MOL
REMARK 923 INTER-LIGAND FREE ENERGY PREDICTED BY IDOCK:   -5.08 KCAL/MOL
REMARK 924 INTRA-LIGAND FREE ENERGY PREDICTED BY IDOCK:   -0.75 KCAL/MOL
REMARK 927      BINDING AFFINITY PREDICTED BY RF-SCORE:    0.00 PKD
ROOT
HETATM    1  C   UNL     1      -7.543  10.375  69.689  1.00  0.00    -0.158 C  
HETATM    2  C   UNL     1      -8.524   9.194  69.580  1.00  0.00    -0.133 C  
HETATM    3  C   UNL     1      -9.518   9.284  70.753  1.00  0.00    -0.336 C  
HETATM    4  C   UNL     1      -7.757   7.864  69.705  1.00  0.00    -0.103 C  
HETATM    5  N   UNL     1      -9.315   9.238  68.334  1.00  0.00    -0.138 NA 
HETATM    6  H   UNL     1      -9.947  10.039  68.342  1.00  0.00     0.000 HD 
ENDROOT
BRANCH   5   7
HETATM    7  C   UNL     1      -8.514   9.233  67.104  1.00  0.00    -0.124 C  
BRANCH   7   8
HETATM    8  C   UNL     1      -9.326   8.808  65.862  1.00  0.00    -0.218 C  
HETATM    9  H   UNL     1     -10.829   7.593  65.456  1.00  0.00     0.000 HD 
HETATM   10  O   UNL     1     -10.330   7.854  66.221  1.00  0.00    -0.057 OA 
BRANCH   8  11
HETATM   11  C   UNL     1      -9.964  10.063  65.236  1.00  0.00    -0.298 C  
BRANCH  11  12
HETATM   12  O   UNL     1      -9.616  11.222  65.995  1.00  0.00    -0.203 OA 
BRANCH  12  13
HETATM   13  C   UNL     1     -10.318  12.387  65.818  1.00  0.00    -0.263 A  
HETATM   14  C   UNL     1     -11.612  12.142  65.318  1.00  0.00    -0.376 A  
HETATM   15  C   UNL     1     -12.546  13.167  65.167  1.00  0.00    -0.525 A  
HETATM   16  C   UNL     1     -12.214  14.453  65.566  1.00  0.00    -0.352 A  
HETATM   17  C   UNL     1     -10.945  14.710  66.088  1.00  0.00    -0.329 A  
HETATM   18  C   UNL     1      -9.959  13.701  66.184  1.00  0.00    -0.314 A  
HETATM   19  C   UNL     1      -8.648  14.086  66.815  1.00  0.00    -0.081 C  
HETATM   20  C   UNL     1      -8.335  15.572  66.790  1.00  0.00    -0.301 C  
HETATM   21  C   UNL     1      -9.522  16.422  67.116  1.00  0.00    -0.231 C  
HETATM   22  N   UNL     1     -10.716  15.990  66.605  1.00  0.00    -0.289 N  
HETATM   23  O   UNL     1      -9.426  17.501  67.692  1.00  0.00    -0.251 OA 
HETATM   24  H   UNL     1     -11.495  16.649  66.600  1.00  0.00     0.000 HD 
ENDBRANCH  12  13
ENDBRANCH  11  12
ENDBRANCH   8  11
ENDBRANCH   7   8
ENDBRANCH   5   7
TORSDOF 5
ENDMDL
MODEL      202
REMARK 921   NORMALIZED FREE ENERGY PREDICTED BY IDOCK:   -4.01 KCAL/MOL
REMARK 922        TOTAL FREE ENERGY PREDICTED BY IDOCK:   -5.81 KCAL/MOL
REMARK 923 INTER-LIGAND FREE ENERGY PREDICTED BY IDOCK:   -5.57 KCAL/MOL
REMARK 924 INTRA-LIGAND FREE ENERGY PREDICTED BY IDOCK:   -0.24 KCAL/MOL
REMARK 927      BINDING AFFINITY PREDICTED BY RF-SCORE:    0.00 PKD
ROOT
HETATM    1  C   UNL     1      -7.530  10.207  65.215  1.00  0.00    -0.145 C  
HETATM    2  C   UNL     1      -8.683   9.436  64.547  1.00  0.00    -0.203 C  
HETATM    3  C   UNL     1      -8.150   8.061  64.105  1.00  0.00    -0.102 C  
HETATM    4  C   UNL     1      -9.158  10.190  63.292  1.00  0.00    -0.293 C  
HETATM    5  N   UNL     1      -9.803   9.190  65.478  1.00  0.00    -0.452 NA 
HETATM    6  H   UNL     1      -9.517   8.548  66.217  1.00  0.00     0.000 HD 
ENDROOT
BRANCH   5   7
HETATM    7  C   UNL     1     -10.390  10.404  66.056  1.00  0.00    -0.192 C  
BRANCH   7   8
HETATM    8  C   UNL     1     -10.713  10.256  67.559  1.00  0.00    -0.294 C  
HETATM    9  H   UNL     1      -9.758  10.456  69.275  1.00  0.00     0.000 HD 
HETATM   10  O   UNL     1      -9.558  10.547  68.351  1.00  0.00    -0.150 OA 
BRANCH   8  11
HETATM   11  C   UNL     1     -11.871  11.208  67.911  1.00  0.00    -0.082 C  
BRANCH  11  12
HETATM   12  O   UNL     1     -11.374  12.529  68.127  1.00  0.00    -0.253 OA 
BRANCH  12  13
HETATM   13  C   UNL     1     -11.151  13.355  67.054  1.00  0.00    -0.292 A  
HETATM   14  C   UNL     1     -12.209  13.298  66.127  1.00  0.00    -0.466 A  
HETATM   15  C   UNL     1     -12.254  14.139  65.014  1.00  0.00    -0.450 A  
HETATM   16  C   UNL     1     -11.261  15.091  64.840  1.00  0.00    -0.423 A  
HETATM   17  C   UNL     1     -10.218  15.180  65.763  1.00  0.00    -0.341 A  
HETATM   18  C   UNL     1     -10.114  14.291  66.859  1.00  0.00    -0.264 A  
HETATM   19  C   UNL     1      -8.976  14.521  67.817  1.00  0.00    -0.190 C  
HETATM   20  C   UNL     1      -7.802  15.299  67.247  1.00  0.00    -0.240 C  
HETATM   21  C   UNL     1      -8.229  16.460  66.406  1.00  0.00    -0.331 C  
HETATM   22  N   UNL     1      -9.325  16.247  65.616  1.00  0.00    -0.135 N  
HETATM   23  O   UNL     1      -7.573  17.495  66.324  1.00  0.00    -0.268 OA 
HETATM   24  H   UNL     1      -9.505  16.915  64.866  1.00  0.00     0.000 HD 
ENDBRANCH  12  13
ENDBRANCH  11  12
ENDBRANCH   8  11
ENDBRANCH   7   8
ENDBRANCH   5   7
TORSDOF 5
ENDMDL
MODEL      203
REMARK 921   NORMALIZED FREE ENERGY PREDICTED BY IDOCK:   -4.00 KCAL/MOL
REMARK 922        TOTAL FREE ENERGY PREDICTED BY IDOCK:   -5.80 KCAL/MOL
REMARK 923 INTER-LIGAND FREE ENERGY PREDICTED BY IDOCK:   -4.99 KCAL/MOL
REMARK 924 INTRA-LIGAND FREE ENERGY PREDICTED BY IDOCK:   -0.82 KCAL/MOL
REMARK 927      BINDING AFFINITY PREDICTED BY RF-SCORE:    0.00 PKD
ROOT
HETATM    1  C   UNL     1      -6.541   7.468  65.236  1.00  0.00    -0.044 C  
HETATM    2  C   UNL     1      -7.096   8.648  66.053  1.00  0.00    -0.083 C  
HETATM    3  C   UNL     1      -5.999   9.120  67.025  1.00  0.00    -0.056 C  
HETATM    4  C   UNL     1      -8.305   8.184  66.886  1.00  0.00    -0.115 C  
HETATM    5  N   UNL     1      -7.447   9.802  65.200  1.00  0.00    -0.116 NA 
HETATM    6  H   UNL     1      -6.607  10.206  64.786  1.00  0.00     0.000 HD 
ENDROOT
BRANCH   5   7
HETATM    7  C   UNL     1      -8.439   9.509  64.159  1.00  0.00    -0.186 C  
BRANCH   7   8
HETATM    8  C   UNL     1      -9.301  10.736  63.791  1.00  0.00    -0.266 C  
HETATM    9  H   UNL     1     -10.406  11.328  62.265  1.00  0.00     0.000 HD 
HETATM   10  O   UNL     1      -9.876  10.573  62.491  1.00  0.00    -0.217 OA 
BRANCH   8  11
HETATM   11  C   UNL     1     -10.400  10.905  64.857  1.00  0.00    -0.304 C  
BRANCH  11  12
HETATM   12  O   UNL     1      -9.813  11.186  66.128  1.00  0.00    -0.210 OA 
BRANCH  12  13
HETATM   13  C   UNL     1     -10.570  11.771  67.112  1.00  0.00    -0.231 A  
HETATM   14  C   UNL     1     -11.165  10.808  67.950  1.00  0.00    -0.386 A  
HETATM   15  C   UNL     1     -11.886  11.171  69.087  1.00  0.00    -0.419 A  
HETATM   16  C   UNL     1     -11.978  12.511  69.435  1.00  0.00    -0.315 A  
HETATM   17  C   UNL     1     -11.373  13.478  68.631  1.00  0.00    -0.288 A  
HETATM   18  C   UNL     1     -10.698  13.138  67.435  1.00  0.00    -0.262 A  
HETATM   19  C   UNL     1     -10.038  14.262  66.681  1.00  0.00    -0.274 C  
HETATM   20  C   UNL     1     -10.594  15.645  66.973  1.00  0.00    -0.311 C  
HETATM   21  C   UNL     1     -10.865  15.867  68.427  1.00  0.00    -0.316 C  
HETATM   22  N   UNL     1     -11.377  14.795  69.104  1.00  0.00    -0.266 N  
HETATM   23  O   UNL     1     -10.761  16.969  68.959  1.00  0.00    -0.322 OA 
HETATM   24  H   UNL     1     -11.792  14.967  70.020  1.00  0.00     0.000 HD 
ENDBRANCH  12  13
ENDBRANCH  11  12
ENDBRANCH   8  11
ENDBRANCH   7   8
ENDBRANCH   5   7
TORSDOF 5
ENDMDL
MODEL      204
REMARK 921   NORMALIZED FREE ENERGY PREDICTED BY IDOCK:   -3.99 KCAL/MOL
REMARK 922        TOTAL FREE ENERGY PREDICTED BY IDOCK:   -5.79 KCAL/MOL
REMARK 923 INTER-LIGAND FREE ENERGY PREDICTED BY IDOCK:   -4.94 KCAL/MOL
REMARK 924 INTRA-LIGAND FREE ENERGY PREDICTED BY IDOCK:   -0.85 KCAL/MOL
REMARK 927      BINDING AFFINITY PREDICTED BY RF-SCORE:    0.00 PKD
ROOT
HETATM    1  C   UNL     1      -6.702  12.347  68.502  1.00  0.00    -0.077 C  
HETATM    2  C   UNL     1      -7.301  10.970  68.839  1.00  0.00    -0.111 C  
HETATM    3  C   UNL     1      -6.486  10.360  69.994  1.00  0.00    -0.126 C  
HETATM    4  C   UNL     1      -7.179  10.035  67.622  1.00  0.00    -0.088 C  
HETATM    5  N   UNL     1      -8.702  11.068  69.298  1.00  0.00    -0.380 NA 
HETATM    6  H   UNL     1      -8.748  11.546  70.198  1.00  0.00     0.000 HD 
ENDROOT
BRANCH   5   7
HETATM    7  C   UNL     1      -9.614  11.699  68.337  1.00  0.00    -0.195 C  
BRANCH   7   8
HETATM    8  C   UNL     1     -11.065  11.784  68.856  1.00  0.00    -0.243 C  
HETATM    9  H   UNL     1     -12.837  12.277  68.137  1.00  0.00     0.000 HD 
HETATM   10  O   UNL     1     -11.944  12.225  67.817  1.00  0.00    -0.474 OA 
BRANCH   8  11
HETATM   11  C   UNL     1     -11.487  10.396  69.375  1.00  0.00    -0.227 C  
BRANCH  11  12
HETATM   12  O   UNL     1     -11.058  10.225  70.726  1.00  0.00    -0.326 OA 
BRANCH  12  13
HETATM   13  C   UNL     1     -11.294   9.036  71.370  1.00  0.00    -0.323 A  
HETATM   14  C   UNL     1     -12.592   8.555  71.111  1.00  0.00    -0.162 A  
HETATM   15  C   UNL     1     -13.015   7.307  71.567  1.00  0.00    -0.434 A  
HETATM   16  C   UNL     1     -12.122   6.493  72.248  1.00  0.00    -0.236 A  
HETATM   17  C   UNL     1     -10.823   6.942  72.491  1.00  0.00    -0.244 A  
HETATM   18  C   UNL     1     -10.395   8.232  72.101  1.00  0.00    -0.370 A  
HETATM   19  C   UNL     1      -8.955   8.582  72.368  1.00  0.00    -0.284 C  
HETATM   20  C   UNL     1      -8.287   7.766  73.460  1.00  0.00    -0.247 C  
HETATM   21  C   UNL     1      -8.632   6.312  73.393  1.00  0.00    -0.122 C  
HETATM   22  N   UNL     1      -9.927   6.027  73.054  1.00  0.00    -0.172 N  
HETATM   23  O   UNL     1      -7.853   5.429  73.739  1.00  0.00    -0.101 OA 
HETATM   24  H   UNL     1     -10.263   5.079  73.224  1.00  0.00     0.000 HD 
ENDBRANCH  12  13
ENDBRANCH  11  12
ENDBRANCH   8  11
ENDBRANCH   7   8
ENDBRANCH   5   7
TORSDOF 5
ENDMDL
MODEL      205
REMARK 921   NORMALIZED FREE ENERGY PREDICTED BY IDOCK:   -3.98 KCAL/MOL
REMARK 922        TOTAL FREE ENERGY PREDICTED BY IDOCK:   -5.77 KCAL/MOL
REMARK 923 INTER-LIGAND FREE ENERGY PREDICTED BY IDOCK:   -5.74 KCAL/MOL
REMARK 924 INTRA-LIGAND FREE ENERGY PREDICTED BY IDOCK:   -0.03 KCAL/MOL
REMARK 927      BINDING AFFINITY PREDICTED BY RF-SCORE:    0.00 PKD
ROOT
HETATM    1  C   UNL     1      -7.690  19.451  68.591  1.00  0.00    -0.394 C  
HETATM    2  C   UNL     1      -8.992  19.728  67.819  1.00  0.00    -0.325 C  
HETATM    3  C   UNL     1      -8.811  21.032  67.021  1.00  0.00     0.066 C  
HETATM    4  C   UNL     1     -10.153  19.932  68.810  1.00  0.00    -0.487 C  
HETATM    5  N   UNL     1      -9.303  18.661  66.847  1.00  0.00    -0.294 NA 
HETATM    6  H   UNL     1      -8.610  18.650  66.098  1.00  0.00     0.000 HD 
ENDROOT
BRANCH   5   7
HETATM    7  C   UNL     1      -9.440  17.324  67.434  1.00  0.00    -0.245 C  
BRANCH   7   8
HETATM    8  C   UNL     1      -8.528  16.277  66.759  1.00  0.00    -0.247 C  
HETATM    9  H   UNL     1      -7.037  16.270  65.465  1.00  0.00     0.000 HD 
HETATM   10  O   UNL     1      -7.598  16.914  65.879  1.00  0.00    -0.276 OA 
BRANCH   8  11
HETATM   11  C   UNL     1      -7.789  15.486  67.855  1.00  0.00    -0.131 C  
BRANCH  11  12
HETATM   12  O   UNL     1      -8.358  14.183  67.990  1.00  0.00    -0.140 OA 
BRANCH  12  13
HETATM   13  C   UNL     1      -9.708  14.009  67.815  1.00  0.00    -0.228 A  
HETATM   14  C   UNL     1     -10.429  14.341  68.978  1.00  0.00    -0.212 A  
HETATM   15  C   UNL     1     -11.824  14.351  68.998  1.00  0.00    -0.358 A  
HETATM   16  C   UNL     1     -12.523  14.078  67.831  1.00  0.00     0.210 A  
HETATM   17  C   UNL     1     -11.824  13.772  66.662  1.00  0.00    -0.412 A  
HETATM   18  C   UNL     1     -10.413  13.687  66.636  1.00  0.00    -0.272 A  
HETATM   19  C   UNL     1      -9.771  13.404  65.304  1.00  0.00     0.002 C  
HETATM   20  C   UNL     1     -10.675  12.736  64.284  1.00  0.00    -0.419 C  
HETATM   21  C   UNL     1     -12.056  13.312  64.265  1.00  0.00    -0.416 C  
HETATM   22  N   UNL     1     -12.573  13.646  65.487  1.00  0.00    -0.499 N  
HETATM   23  O   UNL     1     -12.737  13.367  63.245  1.00  0.00    -0.662 OA 
HETATM   24  H   UNL     1     -13.578  13.816  65.545  1.00  0.00     0.000 HD 
ENDBRANCH  12  13
ENDBRANCH  11  12
ENDBRANCH   8  11
ENDBRANCH   7   8
ENDBRANCH   5   7
TORSDOF 5
ENDMDL
MODEL      206
REMARK 921   NORMALIZED FREE ENERGY PREDICTED BY IDOCK:   -3.98 KCAL/MOL
REMARK 922        TOTAL FREE ENERGY PREDICTED BY IDOCK:   -5.77 KCAL/MOL
REMARK 923 INTER-LIGAND FREE ENERGY PREDICTED BY IDOCK:   -5.02 KCAL/MOL
REMARK 924 INTRA-LIGAND FREE ENERGY PREDICTED BY IDOCK:   -0.75 KCAL/MOL
REMARK 927      BINDING AFFINITY PREDICTED BY RF-SCORE:    0.00 PKD
ROOT
HETATM    1  C   UNL     1      -9.703  14.655  68.657  1.00  0.00    -0.220 C  
HETATM    2  C   UNL     1     -10.820  15.698  68.480  1.00  0.00    -0.282 C  
HETATM    3  C   UNL     1     -10.189  17.100  68.560  1.00  0.00    -0.346 C  
HETATM    4  C   UNL     1     -11.842  15.569  69.626  1.00  0.00    -0.384 C  
HETATM    5  N   UNL     1     -11.481  15.592  67.164  1.00  0.00    -0.153 NA 
HETATM    6  H   UNL     1     -10.832  15.848  66.419  1.00  0.00     0.000 HD 
ENDROOT
BRANCH   5   7
HETATM    7  C   UNL     1     -12.082  14.282  66.888  1.00  0.00    -0.409 C  
BRANCH   7   8
HETATM    8  C   UNL     1     -11.917  13.844  65.417  1.00  0.00    -0.381 C  
HETATM    9  H   UNL     1     -10.738  14.284  63.896  1.00  0.00     0.000 HD 
HETATM   10  O   UNL     1     -10.839  14.554  64.801  1.00  0.00    -0.399 OA 
BRANCH   8  11
HETATM   11  C   UNL     1     -11.664  12.326  65.379  1.00  0.00    -0.370 C  
BRANCH  11  12
HETATM   12  O   UNL     1     -11.193  11.874  66.649  1.00  0.00    -0.298 OA 
BRANCH  12  13
HETATM   13  C   UNL     1     -10.098  11.048  66.714  1.00  0.00    -0.220 A  
HETATM   14  C   UNL     1      -9.126  11.401  65.759  1.00  0.00    -0.195 A  
HETATM   15  C   UNL     1      -7.881  10.774  65.715  1.00  0.00    -0.106 A  
HETATM   16  C   UNL     1      -7.568   9.814  66.667  1.00  0.00    -0.098 A  
HETATM   17  C   UNL     1      -8.511   9.470  67.638  1.00  0.00    -0.122 A  
HETATM   18  C   UNL     1      -9.804  10.042  67.657  1.00  0.00    -0.194 A  
HETATM   19  C   UNL     1     -10.713   9.633  68.786  1.00  0.00    -0.234 C  
HETATM   20  C   UNL     1     -10.365   8.309  69.444  1.00  0.00    -0.223 C  
HETATM   21  C   UNL     1      -8.895   8.135  69.657  1.00  0.00    -0.143 C  
HETATM   22  N   UNL     1      -8.092   8.604  68.654  1.00  0.00    -0.115 N  
HETATM   23  O   UNL     1      -8.433   7.503  70.603  1.00  0.00    -0.128 OA 
HETATM   24  H   UNL     1      -7.118   8.300  68.646  1.00  0.00     0.000 HD 
ENDBRANCH  12  13
ENDBRANCH  11  12
ENDBRANCH   8  11
ENDBRANCH   7   8
ENDBRANCH   5   7
TORSDOF 5
ENDMDL
MODEL      207
REMARK 921   NORMALIZED FREE ENERGY PREDICTED BY IDOCK:   -3.96 KCAL/MOL
REMARK 922        TOTAL FREE ENERGY PREDICTED BY IDOCK:   -5.75 KCAL/MOL
REMARK 923 INTER-LIGAND FREE ENERGY PREDICTED BY IDOCK:   -5.28 KCAL/MOL
REMARK 924 INTRA-LIGAND FREE ENERGY PREDICTED BY IDOCK:   -0.47 KCAL/MOL
REMARK 927      BINDING AFFINITY PREDICTED BY RF-SCORE:    0.00 PKD
ROOT
HETATM    1  C   UNL     1      -8.810  16.411  66.380  1.00  0.00    -0.346 C  
HETATM    2  C   UNL     1      -9.553  16.216  67.714  1.00  0.00    -0.223 C  
HETATM    3  C   UNL     1      -9.900  17.605  68.280  1.00  0.00    -0.324 C  
HETATM    4  C   UNL     1      -8.633  15.504  68.724  1.00  0.00    -0.188 C  
HETATM    5  N   UNL     1     -10.824  15.484  67.543  1.00  0.00    -0.302 NA 
HETATM    6  H   UNL     1     -11.488  16.045  67.010  1.00  0.00     0.000 HD 
ENDROOT
BRANCH   5   7
HETATM    7  C   UNL     1     -10.684  14.153  66.942  1.00  0.00    -0.286 C  
BRANCH   7   8
HETATM    8  C   UNL     1     -11.776  13.167  67.409  1.00  0.00    -0.370 C  
HETATM    9  H   UNL     1     -13.016  11.874  66.577  1.00  0.00     0.000 HD 
HETATM   10  O   UNL     1     -12.344  12.481  66.289  1.00  0.00    -0.570 OA 
BRANCH   8  11
HETATM   11  C   UNL     1     -11.149  12.168  68.400  1.00  0.00    -0.245 C  
BRANCH  11  12
HETATM   12  O   UNL     1     -11.771  10.890  68.270  1.00  0.00    -0.472 OA 
BRANCH  12  13
HETATM   13  C   UNL     1     -11.019   9.750  68.404  1.00  0.00    -0.152 A  
HETATM   14  C   UNL     1     -11.280   9.096  69.624  1.00  0.00    -0.026 A  
HETATM   15  C   UNL     1     -10.715   7.858  69.926  1.00  0.00    -0.244 A  
HETATM   16  C   UNL     1      -9.916   7.225  68.985  1.00  0.00    -0.177 A  
HETATM   17  C   UNL     1      -9.667   7.846  67.760  1.00  0.00    -0.155 A  
HETATM   18  C   UNL     1     -10.171   9.133  67.460  1.00  0.00    -0.304 A  
HETATM   19  C   UNL     1      -9.882   9.675  66.085  1.00  0.00    -0.334 C  
HETATM   20  C   UNL     1      -8.684   9.054  65.389  1.00  0.00    -0.221 C  
HETATM   21  C   UNL     1      -8.614   7.571  65.564  1.00  0.00    -0.083 C  
HETATM   22  N   UNL     1      -8.975   7.103  66.797  1.00  0.00    -0.131 N  
HETATM   23  O   UNL     1      -8.146   6.824  64.709  1.00  0.00    -0.125 OA 
HETATM   24  H   UNL     1      -8.722   6.143  67.033  1.00  0.00     0.000 HD 
ENDBRANCH  12  13
ENDBRANCH  11  12
ENDBRANCH   8  11
ENDBRANCH   7   8
ENDBRANCH   5   7
TORSDOF 5
ENDMDL
MODEL      208
REMARK 921   NORMALIZED FREE ENERGY PREDICTED BY IDOCK:   -3.95 KCAL/MOL
REMARK 922        TOTAL FREE ENERGY PREDICTED BY IDOCK:   -5.74 KCAL/MOL
REMARK 923 INTER-LIGAND FREE ENERGY PREDICTED BY IDOCK:   -5.22 KCAL/MOL
REMARK 924 INTRA-LIGAND FREE ENERGY PREDICTED BY IDOCK:   -0.52 KCAL/MOL
REMARK 927      BINDING AFFINITY PREDICTED BY RF-SCORE:    0.00 PKD
ROOT
HETATM    1  C   UNL     1     -10.181  16.229  68.382  1.00  0.00    -0.249 C  
HETATM    2  C   UNL     1      -8.926  15.342  68.285  1.00  0.00    -0.185 C  
HETATM    3  C   UNL     1      -8.353  15.163  69.703  1.00  0.00    -0.065 C  
HETATM    4  C   UNL     1      -7.858  16.040  67.422  1.00  0.00    -0.188 C  
HETATM    5  N   UNL     1      -9.234  13.995  67.765  1.00  0.00    -0.188 NA 
HETATM    6  H   UNL     1      -9.808  13.479  68.432  1.00  0.00     0.000 HD 
ENDROOT
BRANCH   5   7
HETATM    7  C   UNL     1      -9.859  13.983  66.438  1.00  0.00    -0.296 C  
BRANCH   7   8
HETATM    8  C   UNL     1     -10.313  12.573  66.002  1.00  0.00    -0.256 C  
HETATM    9  H   UNL     1     -10.142  11.422  64.406  1.00  0.00     0.000 HD 
HETATM   10  O   UNL     1      -9.863  12.290  64.674  1.00  0.00    -0.205 OA 
BRANCH   8  11
HETATM   11  C   UNL     1      -9.753  11.543  67.000  1.00  0.00    -0.184 C  
BRANCH  11  12
HETATM   12  O   UNL     1     -10.766  10.602  67.356  1.00  0.00    -0.237 OA 
BRANCH  12  13
HETATM   13  C   UNL     1     -11.113  10.443  68.674  1.00  0.00    -0.262 A  
HETATM   14  C   UNL     1     -11.666  11.621  69.211  1.00  0.00    -0.396 A  
HETATM   15  C   UNL     1     -12.196  11.660  70.501  1.00  0.00    -0.451 A  
HETATM   16  C   UNL     1     -12.227  10.499  71.259  1.00  0.00    -0.472 A  
HETATM   17  C   UNL     1     -11.707   9.315  70.734  1.00  0.00    -0.269 A  
HETATM   18  C   UNL     1     -11.101   9.269  69.457  1.00  0.00    -0.099 A  
HETATM   19  C   UNL     1     -10.627   7.924  68.975  1.00  0.00    -0.177 C  
HETATM   20  C   UNL     1     -10.366   6.905  70.071  1.00  0.00    -0.219 C  
HETATM   21  C   UNL     1     -11.416   6.915  71.136  1.00  0.00    -0.304 C  
HETATM   22  N   UNL     1     -11.894   8.149  71.483  1.00  0.00    -0.283 N  
HETATM   23  O   UNL     1     -11.742   5.905  71.754  1.00  0.00    -0.235 OA 
HETATM   24  H   UNL     1     -12.425   8.224  72.351  1.00  0.00     0.000 HD 
ENDBRANCH  12  13
ENDBRANCH  11  12
ENDBRANCH   8  11
ENDBRANCH   7   8
ENDBRANCH   5   7
TORSDOF 5
ENDMDL
MODEL      209
REMARK 921   NORMALIZED FREE ENERGY PREDICTED BY IDOCK:   -3.95 KCAL/MOL
REMARK 922        TOTAL FREE ENERGY PREDICTED BY IDOCK:   -5.73 KCAL/MOL
REMARK 923 INTER-LIGAND FREE ENERGY PREDICTED BY IDOCK:   -4.87 KCAL/MOL
REMARK 924 INTRA-LIGAND FREE ENERGY PREDICTED BY IDOCK:   -0.86 KCAL/MOL
REMARK 927      BINDING AFFINITY PREDICTED BY RF-SCORE:    0.00 PKD
ROOT
HETATM    1  C   UNL     1      -9.594   8.355  69.114  1.00  0.00    -0.164 C  
HETATM    2  C   UNL     1     -10.071   9.782  68.791  1.00  0.00    -0.174 C  
HETATM    3  C   UNL     1     -11.290  10.095  69.677  1.00  0.00    -0.289 C  
HETATM    4  C   UNL     1     -10.516   9.864  67.319  1.00  0.00    -0.319 C  
HETATM    5  N   UNL     1      -9.041  10.796  69.092  1.00  0.00    -0.335 NA 
HETATM    6  H   UNL     1      -8.878  10.849  70.098  1.00  0.00     0.000 HD 
ENDROOT
BRANCH   5   7
HETATM    7  C   UNL     1      -7.772  10.606  68.380  1.00  0.00    -0.106 C  
BRANCH   7   8
HETATM    8  C   UNL     1      -7.172  11.930  67.861  1.00  0.00    -0.095 C  
HETATM    9  H   UNL     1      -6.923  12.827  66.120  1.00  0.00     0.000 HD 
HETATM   10  O   UNL     1      -7.292  12.012  66.438  1.00  0.00     0.146 OA 
BRANCH   8  11
HETATM   11  C   UNL     1      -7.903  13.103  68.540  1.00  0.00    -0.105 C  
BRANCH  11  12
HETATM   12  O   UNL     1      -8.845  13.684  67.637  1.00  0.00    -0.173 OA 
BRANCH  12  13
HETATM   13  C   UNL     1      -9.529  14.816  68.003  1.00  0.00    -0.204 A  
HETATM   14  C   UNL     1      -9.197  15.911  67.183  1.00  0.00    -0.222 A  
HETATM   15  C   UNL     1      -9.853  17.137  67.296  1.00  0.00    -0.265 A  
HETATM   16  C   UNL     1     -10.894  17.270  68.203  1.00  0.00    -0.294 A  
HETATM   17  C   UNL     1     -11.255  16.187  69.005  1.00  0.00    -0.347 A  
HETATM   18  C   UNL     1     -10.557  14.958  68.958  1.00  0.00    -0.245 A  
HETATM   19  C   UNL     1     -11.075  13.846  69.832  1.00  0.00     0.006 C  
HETATM   20  C   UNL     1     -11.912  14.296  71.016  1.00  0.00    -0.374 C  
HETATM   21  C   UNL     1     -12.871  15.390  70.668  1.00  0.00    -0.430 C  
HETATM   22  N   UNL     1     -12.400  16.334  69.796  1.00  0.00    -0.342 N  
HETATM   23  O   UNL     1     -13.961  15.515  71.218  1.00  0.00    -0.543 OA 
HETATM   24  H   UNL     1     -12.922  17.207  69.717  1.00  0.00     0.000 HD 
ENDBRANCH  12  13
ENDBRANCH  11  12
ENDBRANCH   8  11
ENDBRANCH   7   8
ENDBRANCH   5   7
TORSDOF 5
ENDMDL
MODEL      210
REMARK 921   NORMALIZED FREE ENERGY PREDICTED BY IDOCK:   -3.94 KCAL/MOL
REMARK 922        TOTAL FREE ENERGY PREDICTED BY IDOCK:   -5.72 KCAL/MOL
REMARK 923 INTER-LIGAND FREE ENERGY PREDICTED BY IDOCK:   -5.30 KCAL/MOL
REMARK 924 INTRA-LIGAND FREE ENERGY PREDICTED BY IDOCK:   -0.42 KCAL/MOL
REMARK 927      BINDING AFFINITY PREDICTED BY RF-SCORE:    0.00 PKD
ROOT
HETATM    1  C   UNL     1      -7.783   7.422  64.509  1.00  0.00    -0.126 C  
HETATM    2  C   UNL     1      -6.946   7.884  65.715  1.00  0.00    -0.056 C  
HETATM    3  C   UNL     1      -6.275   9.222  65.351  1.00  0.00    -0.064 C  
HETATM    4  C   UNL     1      -5.836   6.856  66.006  1.00  0.00    -0.034 C  
HETATM    5  N   UNL     1      -7.776   8.125  66.912  1.00  0.00    -0.095 NA 
HETATM    6  H   UNL     1      -8.393   8.924  66.763  1.00  0.00     0.000 HD 
ENDROOT
BRANCH   5   7
HETATM    7  C   UNL     1      -8.549   6.961  67.360  1.00  0.00    -0.121 C  
BRANCH   7   8
HETATM    8  C   UNL     1      -9.999   7.319  67.752  1.00  0.00    -0.166 C  
HETATM    9  H   UNL     1     -11.738   6.393  67.883  1.00  0.00     0.000 HD 
HETATM   10  O   UNL     1     -10.846   6.172  67.642  1.00  0.00    -0.282 OA 
BRANCH   8  11
HETATM   11  C   UNL     1     -10.002   7.864  69.192  1.00  0.00    -0.184 C  
BRANCH  11  12
HETATM   12  O   UNL     1     -10.175   9.282  69.181  1.00  0.00    -0.193 OA 
BRANCH  12  13
HETATM   13  C   UNL     1     -11.161   9.852  69.947  1.00  0.00    -0.275 A  
HETATM   14  C   UNL     1     -11.670   8.945  70.896  1.00  0.00    -0.312 A  
HETATM   15  C   UNL     1     -12.600   9.338  71.859  1.00  0.00    -0.468 A  
HETATM   16  C   UNL     1     -12.997  10.666  71.920  1.00  0.00    -0.542 A  
HETATM   17  C   UNL     1     -12.482  11.584  71.004  1.00  0.00    -0.356 A  
HETATM   18  C   UNL     1     -11.594  11.194  69.975  1.00  0.00    -0.421 A  
HETATM   19  C   UNL     1     -11.064  12.284  69.082  1.00  0.00    -0.261 C  
HETATM   20  C   UNL     1     -11.911  13.544  69.033  1.00  0.00    -0.376 C  
HETATM   21  C   UNL     1     -12.421  13.954  70.378  1.00  0.00    -0.334 C  
HETATM   22  N   UNL     1     -12.807  12.931  71.202  1.00  0.00    -0.294 N  
HETATM   23  O   UNL     1     -12.607  15.128  70.687  1.00  0.00    -0.345 OA 
HETATM   24  H   UNL     1     -13.371  13.168  72.018  1.00  0.00     0.000 HD 
ENDBRANCH  12  13
ENDBRANCH  11  12
ENDBRANCH   8  11
ENDBRANCH   7   8
ENDBRANCH   5   7
TORSDOF 5
ENDMDL
MODEL      211
REMARK 921   NORMALIZED FREE ENERGY PREDICTED BY IDOCK:   -3.93 KCAL/MOL
REMARK 922        TOTAL FREE ENERGY PREDICTED BY IDOCK:   -5.71 KCAL/MOL
REMARK 923 INTER-LIGAND FREE ENERGY PREDICTED BY IDOCK:   -5.61 KCAL/MOL
REMARK 924 INTRA-LIGAND FREE ENERGY PREDICTED BY IDOCK:   -0.10 KCAL/MOL
REMARK 927      BINDING AFFINITY PREDICTED BY RF-SCORE:    0.00 PKD
ROOT
HETATM    1  C   UNL     1      -7.738  19.113  68.264  1.00  0.00    -0.350 C  
HETATM    2  C   UNL     1      -8.838  19.577  67.293  1.00  0.00    -0.303 C  
HETATM    3  C   UNL     1      -8.596  21.062  66.964  1.00  0.00     0.087 C  
HETATM    4  C   UNL     1     -10.217  19.456  67.968  1.00  0.00    -0.531 C  
HETATM    5  N   UNL     1      -8.804  18.837  66.016  1.00  0.00    -0.472 NA 
HETATM    6  H   UNL     1      -7.954  19.061  65.497  1.00  0.00     0.000 HD 
ENDROOT
BRANCH   5   7
HETATM    7  C   UNL     1      -8.950  17.383  66.151  1.00  0.00    -0.139 C  
BRANCH   7   8
HETATM    8  C   UNL     1     -10.356  16.883  65.758  1.00  0.00    -0.283 C  
HETATM    9  H   UNL     1     -11.823  17.462  64.569  1.00  0.00     0.000 HD 
HETATM   10  O   UNL     1     -10.958  17.770  64.810  1.00  0.00    -0.855 OA 
BRANCH   8  11
HETATM   11  C   UNL     1     -10.230  15.464  65.173  1.00  0.00    -0.325 C  
BRANCH  11  12
HETATM   12  O   UNL     1     -10.577  14.492  66.160  1.00  0.00    -0.292 OA 
BRANCH  12  13
HETATM   13  C   UNL     1     -10.016  14.564  67.411  1.00  0.00    -0.227 A  
HETATM   14  C   UNL     1      -8.628  14.328  67.371  1.00  0.00    -0.223 A  
HETATM   15  C   UNL     1      -7.830  14.462  68.507  1.00  0.00    -0.138 A  
HETATM   16  C   UNL     1      -8.404  14.889  69.696  1.00  0.00     0.052 A  
HETATM   17  C   UNL     1      -9.773  15.153  69.747  1.00  0.00    -0.079 A  
HETATM   18  C   UNL     1     -10.614  14.955  68.627  1.00  0.00    -0.251 A  
HETATM   19  C   UNL     1     -12.064  15.327  68.789  1.00  0.00    -0.195 C  
HETATM   20  C   UNL     1     -12.562  15.361  70.223  1.00  0.00    -0.377 C  
HETATM   21  C   UNL     1     -11.588  15.998  71.162  1.00  0.00    -0.443 C  
HETATM   22  N   UNL     1     -10.270  15.715  70.929  1.00  0.00     0.119 N  
HETATM   23  O   UNL     1     -11.941  16.629  72.154  1.00  0.00    -0.388 OA 
HETATM   24  H   UNL     1      -9.602  15.928  71.669  1.00  0.00     0.000 HD 
ENDBRANCH  12  13
ENDBRANCH  11  12
ENDBRANCH   8  11
ENDBRANCH   7   8
ENDBRANCH   5   7
TORSDOF 5
ENDMDL
MODEL      212
REMARK 921   NORMALIZED FREE ENERGY PREDICTED BY IDOCK:   -3.91 KCAL/MOL
REMARK 922        TOTAL FREE ENERGY PREDICTED BY IDOCK:   -5.68 KCAL/MOL
REMARK 923 INTER-LIGAND FREE ENERGY PREDICTED BY IDOCK:   -4.93 KCAL/MOL
REMARK 924 INTRA-LIGAND FREE ENERGY PREDICTED BY IDOCK:   -0.76 KCAL/MOL
REMARK 927      BINDING AFFINITY PREDICTED BY RF-SCORE:    0.00 PKD
ROOT
HETATM    1  C   UNL     1     -11.564  10.845  69.197  1.00  0.00    -0.389 C  
HETATM    2  C   UNL     1     -10.798   9.657  69.805  1.00  0.00    -0.250 C  
HETATM    3  C   UNL     1     -11.365   9.386  71.211  1.00  0.00    -0.436 C  
HETATM    4  C   UNL     1      -9.308  10.016  69.952  1.00  0.00    -0.207 C  
HETATM    5  N   UNL     1     -10.972   8.418  69.019  1.00  0.00    -0.429 NA 
HETATM    6  H   UNL     1     -11.939   8.097  69.071  1.00  0.00     0.000 HD 
ENDROOT
BRANCH   5   7
HETATM    7  C   UNL     1     -10.544   8.521  67.619  1.00  0.00    -0.198 C  
BRANCH   7   8
HETATM    8  C   UNL     1      -9.145   7.916  67.375  1.00  0.00    -0.133 C  
HETATM    9  H   UNL     1      -8.393   6.282  66.560  1.00  0.00     0.000 HD 
HETATM   10  O   UNL     1      -9.254   6.654  66.710  1.00  0.00    -0.138 OA 
BRANCH   8  11
HETATM   11  C   UNL     1      -8.319   8.906  66.533  1.00  0.00    -0.115 C  
BRANCH  11  12
HETATM   12  O   UNL     1      -9.110  10.047  66.199  1.00  0.00    -0.149 OA 
BRANCH  12  13
HETATM   13  C   UNL     1      -8.715  11.294  66.613  1.00  0.00    -0.174 A  
HETATM   14  C   UNL     1      -7.427  11.268  67.182  1.00  0.00    -0.130 A  
HETATM   15  C   UNL     1      -6.773  12.438  67.569  1.00  0.00    -0.146 A  
HETATM   16  C   UNL     1      -7.382  13.664  67.344  1.00  0.00    -0.127 A  
HETATM   17  C   UNL     1      -8.647  13.711  66.757  1.00  0.00    -0.029 A  
HETATM   18  C   UNL     1      -9.358  12.535  66.422  1.00  0.00    -0.209 A  
HETATM   19  C   UNL     1     -10.691  12.714  65.744  1.00  0.00    -0.295 C  
HETATM   20  C   UNL     1     -11.349  14.064  65.967  1.00  0.00    -0.328 C  
HETATM   21  C   UNL     1     -10.384  15.203  65.882  1.00  0.00    -0.327 C  
HETATM   22  N   UNL     1      -9.149  14.974  66.424  1.00  0.00    -0.356 N  
HETATM   23  O   UNL     1     -10.706  16.314  65.471  1.00  0.00    -0.359 OA 
HETATM   24  H   UNL     1      -8.551  15.782  66.598  1.00  0.00     0.000 HD 
ENDBRANCH  12  13
ENDBRANCH  11  12
ENDBRANCH   8  11
ENDBRANCH   7   8
ENDBRANCH   5   7
TORSDOF 5
ENDMDL
MODEL      213
REMARK 921   NORMALIZED FREE ENERGY PREDICTED BY IDOCK:   -3.91 KCAL/MOL
REMARK 922        TOTAL FREE ENERGY PREDICTED BY IDOCK:   -5.68 KCAL/MOL
REMARK 923 INTER-LIGAND FREE ENERGY PREDICTED BY IDOCK:   -5.54 KCAL/MOL
REMARK 924 INTRA-LIGAND FREE ENERGY PREDICTED BY IDOCK:   -0.14 KCAL/MOL
REMARK 927      BINDING AFFINITY PREDICTED BY RF-SCORE:    0.00 PKD
ROOT
HETATM    1  C   UNL     1      -8.522   5.142  65.002  1.00  0.00    -0.148 C  
HETATM    2  C   UNL     1      -8.437   5.228  66.536  1.00  0.00    -0.112 C  
HETATM    3  C   UNL     1      -7.376   4.221  67.017  1.00  0.00    -0.073 C  
HETATM    4  C   UNL     1      -9.789   4.832  67.158  1.00  0.00    -0.222 C  
HETATM    5  N   UNL     1      -8.010   6.565  66.997  1.00  0.00    -0.111 NA 
HETATM    6  H   UNL     1      -7.045   6.745  66.719  1.00  0.00     0.000 HD 
ENDROOT
BRANCH   5   7
HETATM    7  C   UNL     1      -8.879   7.664  66.563  1.00  0.00    -0.147 C  
BRANCH   7   8
HETATM    8  C   UNL     1      -8.331   9.053  66.957  1.00  0.00    -0.116 C  
HETATM    9  H   UNL     1      -6.620   9.813  67.585  1.00  0.00     0.000 HD 
HETATM   10  O   UNL     1      -6.956   8.958  67.343  1.00  0.00    -0.073 OA 
BRANCH   8  11
HETATM   11  C   UNL     1      -8.497  10.008  65.761  1.00  0.00    -0.138 C  
BRANCH  11  12
HETATM   12  O   UNL     1      -9.644  10.838  65.950  1.00  0.00    -0.190 OA 
BRANCH  12  13
HETATM   13  C   UNL     1      -9.480  12.162  66.271  1.00  0.00    -0.232 A  
HETATM   14  C   UNL     1      -8.368  12.357  67.113  1.00  0.00    -0.181 A  
HETATM   15  C   UNL     1      -7.940  13.634  67.477  1.00  0.00    -0.189 A  
HETATM   16  C   UNL     1      -8.590  14.744  66.957  1.00  0.00    -0.260 A  
HETATM   17  C   UNL     1      -9.677  14.569  66.099  1.00  0.00    -0.316 A  
HETATM   18  C   UNL     1     -10.173  13.285  65.774  1.00  0.00    -0.296 A  
HETATM   19  C   UNL     1     -11.315  13.223  64.795  1.00  0.00    -0.350 C  
HETATM   20  C   UNL     1     -12.133  14.498  64.681  1.00  0.00    -0.486 C  
HETATM   21  C   UNL     1     -11.288  15.731  64.662  1.00  0.00    -0.337 C  
HETATM   22  N   UNL     1     -10.202  15.717  65.494  1.00  0.00    -0.370 N  
HETATM   23  O   UNL     1     -11.606  16.743  64.043  1.00  0.00    -1.195 OA 
HETATM   24  H   UNL     1      -9.743  16.607  65.688  1.00  0.00     0.000 HD 
ENDBRANCH  12  13
ENDBRANCH  11  12
ENDBRANCH   8  11
ENDBRANCH   7   8
ENDBRANCH   5   7
TORSDOF 5
ENDMDL
MODEL      214
REMARK 921   NORMALIZED FREE ENERGY PREDICTED BY IDOCK:   -3.88 KCAL/MOL
REMARK 922        TOTAL FREE ENERGY PREDICTED BY IDOCK:   -5.64 KCAL/MOL
REMARK 923 INTER-LIGAND FREE ENERGY PREDICTED BY IDOCK:   -5.39 KCAL/MOL
REMARK 924 INTRA-LIGAND FREE ENERGY PREDICTED BY IDOCK:   -0.24 KCAL/MOL
REMARK 927      BINDING AFFINITY PREDICTED BY RF-SCORE:    0.00 PKD
ROOT
HETATM    1  C   UNL     1     -11.982  13.570  66.752  1.00  0.00    -0.453 C  
HETATM    2  C   UNL     1     -11.367  14.109  68.056  1.00  0.00    -0.299 C  
HETATM    3  C   UNL     1     -11.550  15.638  68.080  1.00  0.00    -0.245 C  
HETATM    4  C   UNL     1      -9.856  13.809  68.084  1.00  0.00    -0.239 C  
HETATM    5  N   UNL     1     -12.039  13.570  69.255  1.00  0.00    -0.316 NA 
HETATM    6  H   UNL     1     -12.996  13.919  69.312  1.00  0.00     0.000 HD 
ENDROOT
BRANCH   5   7
HETATM    7  C   UNL     1     -12.022  12.107  69.357  1.00  0.00    -0.270 C  
BRANCH   7   8
HETATM    8  C   UNL     1     -12.062  11.607  70.817  1.00  0.00    -0.283 C  
HETATM    9  H   UNL     1     -13.060  12.027  72.468  1.00  0.00     0.000 HD 
HETATM   10  O   UNL     1     -13.036  12.335  71.570  1.00  0.00    -0.379 OA 
BRANCH   8  11
HETATM   11  C   UNL     1     -12.387  10.102  70.815  1.00  0.00    -0.328 C  
BRANCH  11  12
HETATM   12  O   UNL     1     -11.612   9.431  71.810  1.00  0.00    -0.377 OA 
BRANCH  12  13
HETATM   13  C   UNL     1     -11.123   8.174  71.557  1.00  0.00    -0.252 A  
HETATM   14  C   UNL     1     -11.668   7.218  72.436  1.00  0.00    -0.278 A  
HETATM   15  C   UNL     1     -11.403   5.856  72.294  1.00  0.00    -0.351 A  
HETATM   16  C   UNL     1     -10.626   5.422  71.230  1.00  0.00    -0.276 A  
HETATM   17  C   UNL     1     -10.099   6.352  70.333  1.00  0.00    -0.185 A  
HETATM   18  C   UNL     1     -10.295   7.743  70.499  1.00  0.00    -0.205 A  
HETATM   19  C   UNL     1      -9.724   8.644  69.437  1.00  0.00    -0.176 C  
HETATM   20  C   UNL     1      -8.590   8.043  68.626  1.00  0.00    -0.128 C  
HETATM   21  C   UNL     1      -8.837   6.617  68.248  1.00  0.00    -0.124 C  
HETATM   22  N   UNL     1      -9.444   5.849  69.203  1.00  0.00    -0.126 N  
HETATM   23  O   UNL     1      -8.415   6.125  67.205  1.00  0.00    -0.106 OA 
HETATM   24  H   UNL     1      -9.418   4.836  69.083  1.00  0.00     0.000 HD 
ENDBRANCH  12  13
ENDBRANCH  11  12
ENDBRANCH   8  11
ENDBRANCH   7   8
ENDBRANCH   5   7
TORSDOF 5
ENDMDL
MODEL      215
REMARK 921   NORMALIZED FREE ENERGY PREDICTED BY IDOCK:   -3.88 KCAL/MOL
REMARK 922        TOTAL FREE ENERGY PREDICTED BY IDOCK:   -5.64 KCAL/MOL
REMARK 923 INTER-LIGAND FREE ENERGY PREDICTED BY IDOCK:   -5.13 KCAL/MOL
REMARK 924 INTRA-LIGAND FREE ENERGY PREDICTED BY IDOCK:   -0.51 KCAL/MOL
REMARK 927      BINDING AFFINITY PREDICTED BY RF-SCORE:    0.00 PKD
ROOT
HETATM    1  C   UNL     1     -10.253  16.044  68.199  1.00  0.00    -0.243 C  
HETATM    2  C   UNL     1      -9.687  15.888  66.776  1.00  0.00    -0.238 C  
HETATM    3  C   UNL     1      -8.186  15.562  66.887  1.00  0.00    -0.287 C  
HETATM    4  C   UNL     1      -9.831  17.216  66.008  1.00  0.00    -0.239 C  
HETATM    5  N   UNL     1     -10.322  14.776  66.040  1.00  0.00    -0.290 NA 
HETATM    6  H   UNL     1     -10.076  13.883  66.466  1.00  0.00     0.000 HD 
ENDROOT
BRANCH   5   7
HETATM    7  C   UNL     1     -11.778  14.891  65.902  1.00  0.00    -0.175 C  
BRANCH   7   8
HETATM    8  C   UNL     1     -12.521  13.592  66.283  1.00  0.00    -0.366 C  
HETATM    9  H   UNL     1     -13.440  12.118  65.344  1.00  0.00     0.000 HD 
HETATM   10  O   UNL     1     -12.983  12.917  65.110  1.00  0.00    -0.758 OA 
BRANCH   8  11
HETATM   11  C   UNL     1     -11.564  12.694  67.089  1.00  0.00    -0.368 C  
BRANCH  11  12
HETATM   12  O   UNL     1     -11.493  11.396  66.497  1.00  0.00    -0.384 OA 
BRANCH  12  13
HETATM   13  C   UNL     1     -10.288  10.918  66.049  1.00  0.00    -0.245 A  
HETATM   14  C   UNL     1     -10.351  10.541  64.694  1.00  0.00    -0.290 A  
HETATM   15  C   UNL     1      -9.216  10.134  63.993  1.00  0.00    -0.315 A  
HETATM   16  C   UNL     1      -7.982  10.148  64.628  1.00  0.00    -0.145 A  
HETATM   17  C   UNL     1      -7.896  10.545  65.963  1.00  0.00    -0.147 A  
HETATM   18  C   UNL     1      -9.044  10.893  66.713  1.00  0.00    -0.164 A  
HETATM   19  C   UNL     1      -8.818  11.357  68.128  1.00  0.00    -0.162 C  
HETATM   20  C   UNL     1      -7.507  10.910  68.749  1.00  0.00    -0.112 C  
HETATM   21  C   UNL     1      -6.351  11.015  67.806  1.00  0.00    -0.058 C  
HETATM   22  N   UNL     1      -6.614  10.677  66.507  1.00  0.00    -0.099 N  
HETATM   23  O   UNL     1      -5.209  11.264  68.183  1.00  0.00    -0.043 OA 
HETATM   24  H   UNL     1      -5.819  10.508  65.891  1.00  0.00     0.000 HD 
ENDBRANCH  12  13
ENDBRANCH  11  12
ENDBRANCH   8  11
ENDBRANCH   7   8
ENDBRANCH   5   7
TORSDOF 5
ENDMDL
MODEL      216
REMARK 921   NORMALIZED FREE ENERGY PREDICTED BY IDOCK:   -3.86 KCAL/MOL
REMARK 922        TOTAL FREE ENERGY PREDICTED BY IDOCK:   -5.62 KCAL/MOL
REMARK 923 INTER-LIGAND FREE ENERGY PREDICTED BY IDOCK:   -5.38 KCAL/MOL
REMARK 924 INTRA-LIGAND FREE ENERGY PREDICTED BY IDOCK:   -0.24 KCAL/MOL
REMARK 927      BINDING AFFINITY PREDICTED BY RF-SCORE:    0.00 PKD
ROOT
HETATM    1  C   UNL     1      -9.174  15.634  68.853  1.00  0.00    -0.226 C  
HETATM    2  C   UNL     1      -8.753  15.769  67.379  1.00  0.00    -0.183 C  
HETATM    3  C   UNL     1      -7.393  16.489  67.329  1.00  0.00    -0.199 C  
HETATM    4  C   UNL     1      -9.778  16.632  66.619  1.00  0.00    -0.280 C  
HETATM    5  N   UNL     1      -8.575  14.456  66.727  1.00  0.00    -0.409 NA 
HETATM    6  H   UNL     1      -7.779  13.963  67.131  1.00  0.00     0.000 HD 
ENDROOT
BRANCH   5   7
HETATM    7  C   UNL     1      -9.767  13.600  66.746  1.00  0.00    -0.275 C  
BRANCH   7   8
HETATM    8  C   UNL     1      -9.708  12.515  67.843  1.00  0.00    -0.205 C  
HETATM    9  H   UNL     1     -10.939  11.723  69.168  1.00  0.00     0.000 HD 
HETATM   10  O   UNL     1     -10.976  12.390  68.494  1.00  0.00    -0.222 OA 
BRANCH   8  11
HETATM   11  C   UNL     1      -9.292  11.181  67.196  1.00  0.00    -0.165 C  
BRANCH  11  12
HETATM   12  O   UNL     1      -8.923  10.240  68.204  1.00  0.00    -0.127 OA 
BRANCH  12  13
HETATM   13  C   UNL     1      -9.650   9.086  68.357  1.00  0.00    -0.152 A  
HETATM   14  C   UNL     1      -9.724   8.357  67.154  1.00  0.00    -0.250 A  
HETATM   15  C   UNL     1     -10.316   7.095  67.098  1.00  0.00    -0.359 A  
HETATM   16  C   UNL     1     -10.799   6.517  68.263  1.00  0.00    -0.359 A  
HETATM   17  C   UNL     1     -10.710   7.214  69.469  1.00  0.00    -0.239 A  
HETATM   18  C   UNL     1     -10.179   8.523  69.537  1.00  0.00    -0.206 A  
HETATM   19  C   UNL     1     -10.085   9.151  70.902  1.00  0.00    -0.356 C  
HETATM   20  C   UNL     1     -11.020   8.564  71.945  1.00  0.00    -0.394 C  
HETATM   21  C   UNL     1     -11.094   7.071  71.886  1.00  0.00    -0.242 C  
HETATM   22  N   UNL     1     -11.081   6.528  70.631  1.00  0.00    -0.287 N  
HETATM   23  O   UNL     1     -11.281   6.377  72.881  1.00  0.00    -0.244 OA 
HETATM   24  H   UNL     1     -11.364   5.552  70.534  1.00  0.00     0.000 HD 
ENDBRANCH  12  13
ENDBRANCH  11  12
ENDBRANCH   8  11
ENDBRANCH   7   8
ENDBRANCH   5   7
TORSDOF 5
ENDMDL
MODEL      217
REMARK 921   NORMALIZED FREE ENERGY PREDICTED BY IDOCK:   -3.85 KCAL/MOL
REMARK 922        TOTAL FREE ENERGY PREDICTED BY IDOCK:   -5.61 KCAL/MOL
REMARK 923 INTER-LIGAND FREE ENERGY PREDICTED BY IDOCK:   -4.70 KCAL/MOL
REMARK 924 INTRA-LIGAND FREE ENERGY PREDICTED BY IDOCK:   -0.91 KCAL/MOL
REMARK 927      BINDING AFFINITY PREDICTED BY RF-SCORE:    0.00 PKD
ROOT
HETATM    1  C   UNL     1     -10.971  14.504  67.312  1.00  0.00    -0.307 C  
HETATM    2  C   UNL     1     -10.016  15.183  66.315  1.00  0.00    -0.288 C  
HETATM    3  C   UNL     1      -8.642  15.337  66.993  1.00  0.00    -0.256 C  
HETATM    4  C   UNL     1     -10.537  16.590  65.967  1.00  0.00    -0.259 C  
HETATM    5  N   UNL     1      -9.812  14.373  65.097  1.00  0.00    -0.538 NA 
HETATM    6  H   UNL     1      -9.310  13.514  65.321  1.00  0.00     0.000 HD 
ENDROOT
BRANCH   5   7
HETATM    7  C   UNL     1     -11.042  14.067  64.357  1.00  0.00    -0.286 C  
BRANCH   7   8
HETATM    8  C   UNL     1     -11.051  12.638  63.774  1.00  0.00    -0.453 C  
HETATM    9  H   UNL     1      -9.849  11.506  62.690  1.00  0.00     0.000 HD 
HETATM   10  O   UNL     1      -9.844  12.386  63.049  1.00  0.00    -0.220 OA 
BRANCH   8  11
HETATM   11  C   UNL     1     -11.214  11.634  64.929  1.00  0.00    -0.222 C  
BRANCH  11  12
HETATM   12  O   UNL     1     -10.042  11.627  65.744  1.00  0.00    -0.223 OA 
BRANCH  12  13
HETATM   13  C   UNL     1      -9.489  10.432  66.130  1.00  0.00    -0.181 A  
HETATM   14  C   UNL     1      -9.162   9.629  65.020  1.00  0.00    -0.310 A  
HETATM   15  C   UNL     1      -8.483   8.419  65.166  1.00  0.00    -0.179 A  
HETATM   16  C   UNL     1      -8.073   8.016  66.429  1.00  0.00    -0.107 A  
HETATM   17  C   UNL     1      -8.366   8.812  67.537  1.00  0.00    -0.109 A  
HETATM   18  C   UNL     1      -9.114  10.006  67.422  1.00  0.00    -0.146 A  
HETATM   19  C   UNL     1      -9.317  10.807  68.680  1.00  0.00    -0.184 C  
HETATM   20  C   UNL     1      -9.176  10.022  69.972  1.00  0.00    -0.146 C  
HETATM   21  C   UNL     1      -8.022   9.070  69.950  1.00  0.00    -0.103 C  
HETATM   22  N   UNL     1      -7.806   8.429  68.761  1.00  0.00    -0.112 N  
HETATM   23  O   UNL     1      -7.383   8.781  70.959  1.00  0.00    -0.073 OA 
HETATM   24  H   UNL     1      -7.193   7.614  68.768  1.00  0.00     0.000 HD 
ENDBRANCH  12  13
ENDBRANCH  11  12
ENDBRANCH   8  11
ENDBRANCH   7   8
ENDBRANCH   5   7
TORSDOF 5
ENDMDL
MODEL      218
REMARK 921   NORMALIZED FREE ENERGY PREDICTED BY IDOCK:   -3.85 KCAL/MOL
REMARK 922        TOTAL FREE ENERGY PREDICTED BY IDOCK:   -5.61 KCAL/MOL
REMARK 923 INTER-LIGAND FREE ENERGY PREDICTED BY IDOCK:   -5.01 KCAL/MOL
REMARK 924 INTRA-LIGAND FREE ENERGY PREDICTED BY IDOCK:   -0.59 KCAL/MOL
REMARK 927      BINDING AFFINITY PREDICTED BY RF-SCORE:    0.00 PKD
ROOT
HETATM    1  C   UNL     1      -8.482  15.330  69.048  1.00  0.00    -0.221 C  
HETATM    2  C   UNL     1      -8.417  14.419  67.808  1.00  0.00    -0.173 C  
HETATM    3  C   UNL     1      -6.965  13.936  67.642  1.00  0.00    -0.189 C  
HETATM    4  C   UNL     1      -8.801  15.221  66.550  1.00  0.00    -0.335 C  
HETATM    5  N   UNL     1      -9.263  13.218  67.953  1.00  0.00    -0.205 NA 
HETATM    6  H   UNL     1      -8.894  12.609  68.684  1.00  0.00     0.000 HD 
ENDROOT
BRANCH   5   7
HETATM    7  C   UNL     1     -10.683  13.499  68.193  1.00  0.00    -0.252 C  
BRANCH   7   8
HETATM    8  C   UNL     1     -11.574  12.245  68.055  1.00  0.00    -0.349 C  
HETATM    9  H   UNL     1     -12.768  11.457  66.694  1.00  0.00     0.000 HD 
HETATM   10  O   UNL     1     -12.220  12.228  66.778  1.00  0.00    -0.558 OA 
BRANCH   8  11
HETATM   11  C   UNL     1     -10.697  10.993  68.240  1.00  0.00    -0.196 C  
BRANCH  11  12
HETATM   12  O   UNL     1     -11.100   9.971  67.327  1.00  0.00    -0.229 OA 
BRANCH  12  13
HETATM   13  C   UNL     1     -10.152   9.298  66.599  1.00  0.00    -0.271 A  
HETATM   14  C   UNL     1      -9.211  10.178  66.031  1.00  0.00    -0.198 A  
HETATM   15  C   UNL     1      -8.091   9.710  65.344  1.00  0.00    -0.127 A  
HETATM   16  C   UNL     1      -7.866   8.344  65.260  1.00  0.00    -0.111 A  
HETATM   17  C   UNL     1      -8.774   7.457  65.840  1.00  0.00    -0.140 A  
HETATM   18  C   UNL     1      -9.953   7.906  66.479  1.00  0.00    -0.267 A  
HETATM   19  C   UNL     1     -10.826   6.858  67.115  1.00  0.00    -0.447 C  
HETATM   20  C   UNL     1     -10.647   5.453  66.566  1.00  0.00    -0.353 C  
HETATM   21  C   UNL     1      -9.212   5.097  66.337  1.00  0.00    -0.141 C  
HETATM   22  N   UNL     1      -8.424   6.102  65.848  1.00  0.00    -0.139 N  
HETATM   23  O   UNL     1      -8.788   3.951  66.456  1.00  0.00    -0.115 OA 
HETATM   24  H   UNL     1      -7.516   5.845  65.460  1.00  0.00     0.000 HD 
ENDBRANCH  12  13
ENDBRANCH  11  12
ENDBRANCH   8  11
ENDBRANCH   7   8
ENDBRANCH   5   7
TORSDOF 5
ENDMDL
MODEL      219
REMARK 921   NORMALIZED FREE ENERGY PREDICTED BY IDOCK:   -3.83 KCAL/MOL
REMARK 922        TOTAL FREE ENERGY PREDICTED BY IDOCK:   -5.58 KCAL/MOL
REMARK 923 INTER-LIGAND FREE ENERGY PREDICTED BY IDOCK:   -5.82 KCAL/MOL
REMARK 924 INTRA-LIGAND FREE ENERGY PREDICTED BY IDOCK:    0.24 KCAL/MOL
REMARK 927      BINDING AFFINITY PREDICTED BY RF-SCORE:    0.00 PKD
ROOT
HETATM    1  C   UNL     1     -12.369  12.829  65.537  1.00  0.00    -0.495 C  
HETATM    2  C   UNL     1     -11.823  13.547  64.289  1.00  0.00    -0.428 C  
HETATM    3  C   UNL     1     -12.255  15.023  64.354  1.00  0.00    -0.353 C  
HETATM    4  C   UNL     1     -12.435  12.925  63.019  1.00  0.00     0.045 C  
HETATM    5  N   UNL     1     -10.347  13.526  64.234  1.00  0.00    -0.671 NA 
HETATM    6  H   UNL     1      -9.956  14.087  64.990  1.00  0.00     0.000 HD 
ENDROOT
BRANCH   5   7
HETATM    7  C   UNL     1      -9.757  12.182  64.238  1.00  0.00    -0.050 C  
BRANCH   7   8
HETATM    8  C   UNL     1      -9.963  11.441  65.576  1.00  0.00    -0.239 C  
HETATM    9  H   UNL     1     -10.499   9.635  66.167  1.00  0.00     0.000 HD 
HETATM   10  O   UNL     1     -10.373  10.090  65.343  1.00  0.00    -0.245 OA 
BRANCH   8  11
HETATM   11  C   UNL     1      -8.645  11.483  66.371  1.00  0.00    -0.159 C  
BRANCH  11  12
HETATM   12  O   UNL     1      -8.624  12.625  67.228  1.00  0.00    -0.180 OA 
BRANCH  12  13
HETATM   13  C   UNL     1      -9.681  12.863  68.070  1.00  0.00    -0.224 A  
HETATM   14  C   UNL     1     -10.209  14.156  67.888  1.00  0.00    -0.235 A  
HETATM   15  C   UNL     1     -11.359  14.578  68.554  1.00  0.00    -0.309 A  
HETATM   16  C   UNL     1     -12.033  13.689  69.379  1.00  0.00    -0.394 A  
HETATM   17  C   UNL     1     -11.540  12.395  69.551  1.00  0.00    -0.286 A  
HETATM   18  C   UNL     1     -10.336  11.969  68.942  1.00  0.00    -0.117 A  
HETATM   19  C   UNL     1      -9.935  10.533  69.158  1.00  0.00    -0.236 C  
HETATM   20  C   UNL     1     -10.540   9.874  70.385  1.00  0.00    -0.364 C  
HETATM   21  C   UNL     1     -11.985  10.212  70.573  1.00  0.00    -0.311 C  
HETATM   22  N   UNL     1     -12.334  11.501  70.277  1.00  0.00    -0.294 N  
HETATM   23  O   UNL     1     -12.787   9.432  71.080  1.00  0.00    -0.277 OA 
HETATM   24  H   UNL     1     -13.239  11.835  70.610  1.00  0.00     0.000 HD 
ENDBRANCH  12  13
ENDBRANCH  11  12
ENDBRANCH   8  11
ENDBRANCH   7   8
ENDBRANCH   5   7
TORSDOF 5
ENDMDL
MODEL      220
REMARK 921   NORMALIZED FREE ENERGY PREDICTED BY IDOCK:   -3.82 KCAL/MOL
REMARK 922        TOTAL FREE ENERGY PREDICTED BY IDOCK:   -5.57 KCAL/MOL
REMARK 923 INTER-LIGAND FREE ENERGY PREDICTED BY IDOCK:   -4.91 KCAL/MOL
REMARK 924 INTRA-LIGAND FREE ENERGY PREDICTED BY IDOCK:   -0.66 KCAL/MOL
REMARK 927      BINDING AFFINITY PREDICTED BY RF-SCORE:    0.00 PKD
ROOT
HETATM    1  C   UNL     1      -5.894  10.281  65.348  1.00  0.00    -0.110 C  
HETATM    2  C   UNL     1      -7.233   9.628  64.958  1.00  0.00    -0.116 C  
HETATM    3  C   UNL     1      -6.986   8.127  64.719  1.00  0.00    -0.074 C  
HETATM    4  C   UNL     1      -7.751  10.243  63.644  1.00  0.00    -0.109 C  
HETATM    5  N   UNL     1      -8.241   9.739  66.032  1.00  0.00    -0.115 NA 
HETATM    6  H   UNL     1      -7.962   9.184  66.840  1.00  0.00     0.000 HD 
ENDROOT
BRANCH   5   7
HETATM    7  C   UNL     1      -8.548  11.115  66.439  1.00  0.00    -0.172 C  
BRANCH   7   8
HETATM    8  C   UNL     1     -10.053  11.446  66.347  1.00  0.00    -0.218 C  
HETATM    9  H   UNL     1     -11.574  10.972  65.181  1.00  0.00     0.000 HD 
HETATM   10  O   UNL     1     -10.648  10.768  65.237  1.00  0.00    -0.249 OA 
BRANCH   8  11
HETATM   11  C   UNL     1     -10.731  11.034  67.666  1.00  0.00    -0.238 C  
BRANCH  11  12
HETATM   12  O   UNL     1      -9.928  10.072  68.353  1.00  0.00    -0.153 OA 
BRANCH  12  13
HETATM   13  C   UNL     1     -10.458   8.848  68.673  1.00  0.00    -0.193 A  
HETATM   14  C   UNL     1     -10.612   8.035  67.533  1.00  0.00    -0.302 A  
HETATM   15  C   UNL     1     -11.026   6.707  67.631  1.00  0.00    -0.392 A  
HETATM   16  C   UNL     1     -11.243   6.152  68.884  1.00  0.00    -0.338 A  
HETATM   17  C   UNL     1     -11.070   6.935  70.027  1.00  0.00    -0.299 A  
HETATM   18  C   UNL     1     -10.720   8.303  69.948  1.00  0.00    -0.234 A  
HETATM   19  C   UNL     1     -10.508   9.029  71.250  1.00  0.00    -0.381 C  
HETATM   20  C   UNL     1     -11.185   8.399  72.454  1.00  0.00    -0.438 C  
HETATM   21  C   UNL     1     -11.061   6.909  72.478  1.00  0.00    -0.266 C  
HETATM   22  N   UNL     1     -11.163   6.287  71.264  1.00  0.00    -0.288 N  
HETATM   23  O   UNL     1     -10.998   6.266  73.522  1.00  0.00    -0.224 OA 
HETATM   24  H   UNL     1     -11.320   5.279  71.259  1.00  0.00     0.000 HD 
ENDBRANCH  12  13
ENDBRANCH  11  12
ENDBRANCH   8  11
ENDBRANCH   7   8
ENDBRANCH   5   7
TORSDOF 5
ENDMDL
MODEL      221
REMARK 921   NORMALIZED FREE ENERGY PREDICTED BY IDOCK:   -3.81 KCAL/MOL
REMARK 922        TOTAL FREE ENERGY PREDICTED BY IDOCK:   -5.56 KCAL/MOL
REMARK 923 INTER-LIGAND FREE ENERGY PREDICTED BY IDOCK:   -5.39 KCAL/MOL
REMARK 924 INTRA-LIGAND FREE ENERGY PREDICTED BY IDOCK:   -0.17 KCAL/MOL
REMARK 927      BINDING AFFINITY PREDICTED BY RF-SCORE:    0.00 PKD
ROOT
HETATM    1  C   UNL     1     -10.407  12.514  64.140  1.00  0.00    -0.416 C  
HETATM    2  C   UNL     1     -11.907  12.793  64.344  1.00  0.00    -0.384 C  
HETATM    3  C   UNL     1     -12.705  11.721  63.579  1.00  0.00    -0.428 C  
HETATM    4  C   UNL     1     -12.268  14.169  63.753  1.00  0.00    -0.183 C  
HETATM    5  N   UNL     1     -12.304  12.702  65.763  1.00  0.00    -0.619 NA 
HETATM    6  H   UNL     1     -12.219  11.741  66.095  1.00  0.00     0.000 HD 
ENDROOT
BRANCH   5   7
HETATM    7  C   UNL     1     -11.582  13.615  66.657  1.00  0.00    -0.364 C  
BRANCH   7   8
HETATM    8  C   UNL     1     -10.376  12.946  67.351  1.00  0.00    -0.233 C  
HETATM    9  H   UNL     1      -8.987  13.457  68.657  1.00  0.00     0.000 HD 
HETATM   10  O   UNL     1      -9.728  13.870  68.230  1.00  0.00    -0.213 OA 
BRANCH   8  11
HETATM   11  C   UNL     1     -10.874  11.712  68.125  1.00  0.00    -0.217 C  
BRANCH  11  12
HETATM   12  O   UNL     1      -9.769  10.893  68.508  1.00  0.00    -0.168 OA 
BRANCH  12  13
HETATM   13  C   UNL     1      -9.934   9.940  69.481  1.00  0.00    -0.222 A  
HETATM   14  C   UNL     1     -11.071  10.196  70.271  1.00  0.00    -0.384 A  
HETATM   15  C   UNL     1     -11.501   9.299  71.249  1.00  0.00    -0.418 A  
HETATM   16  C   UNL     1     -10.826   8.099  71.416  1.00  0.00    -0.281 A  
HETATM   17  C   UNL     1      -9.712   7.816  70.624  1.00  0.00    -0.177 A  
HETATM   18  C   UNL     1      -9.216   8.741  69.677  1.00  0.00    -0.150 A  
HETATM   19  C   UNL     1      -8.042   8.300  68.843  1.00  0.00    -0.115 C  
HETATM   20  C   UNL     1      -7.211   7.180  69.445  1.00  0.00    -0.084 C  
HETATM   21  C   UNL     1      -8.046   6.106  70.067  1.00  0.00    -0.119 C  
HETATM   22  N   UNL     1      -9.159   6.536  70.737  1.00  0.00    -0.154 N  
HETATM   23  O   UNL     1      -7.700   4.929  70.090  1.00  0.00    -0.060 OA 
HETATM   24  H   UNL     1      -9.618   5.875  71.365  1.00  0.00     0.000 HD 
ENDBRANCH  12  13
ENDBRANCH  11  12
ENDBRANCH   8  11
ENDBRANCH   7   8
ENDBRANCH   5   7
TORSDOF 5
ENDMDL
MODEL      222
REMARK 921   NORMALIZED FREE ENERGY PREDICTED BY IDOCK:   -3.81 KCAL/MOL
REMARK 922        TOTAL FREE ENERGY PREDICTED BY IDOCK:   -5.55 KCAL/MOL
REMARK 923 INTER-LIGAND FREE ENERGY PREDICTED BY IDOCK:   -5.09 KCAL/MOL
REMARK 924 INTRA-LIGAND FREE ENERGY PREDICTED BY IDOCK:   -0.46 KCAL/MOL
REMARK 927      BINDING AFFINITY PREDICTED BY RF-SCORE:    0.00 PKD
ROOT
HETATM    1  C   UNL     1     -10.377  13.274  65.518  1.00  0.00    -0.298 C  
HETATM    2  C   UNL     1     -11.684  13.523  66.293  1.00  0.00    -0.367 C  
HETATM    3  C   UNL     1     -12.785  13.883  65.279  1.00  0.00    -0.485 C  
HETATM    4  C   UNL     1     -11.505  14.717  67.249  1.00  0.00    -0.378 C  
HETATM    5  N   UNL     1     -12.138  12.321  67.022  1.00  0.00    -0.543 NA 
HETATM    6  H   UNL     1     -12.416  11.592  66.365  1.00  0.00     0.000 HD 
ENDROOT
BRANCH   5   7
HETATM    7  C   UNL     1     -11.170  11.794  67.990  1.00  0.00    -0.263 C  
BRANCH   7   8
HETATM    8  C   UNL     1     -11.069  10.254  67.960  1.00  0.00    -0.274 C  
HETATM    9  H   UNL     1     -10.149   8.880  66.880  1.00  0.00     0.000 HD 
HETATM   10  O   UNL     1     -10.210   9.828  66.898  1.00  0.00    -0.223 OA 
BRANCH   8  11
HETATM   11  C   UNL     1     -10.539   9.766  69.320  1.00  0.00    -0.221 C  
BRANCH  11  12
HETATM   12  O   UNL     1     -10.763   8.363  69.461  1.00  0.00    -0.227 OA 
BRANCH  12  13
HETATM   13  C   UNL     1      -9.736   7.483  69.229  1.00  0.00    -0.163 A  
HETATM   14  C   UNL     1      -8.684   7.659  70.149  1.00  0.00    -0.141 A  
HETATM   15  C   UNL     1      -7.584   6.801  70.176  1.00  0.00    -0.099 A  
HETATM   16  C   UNL     1      -7.545   5.716  69.312  1.00  0.00    -0.087 A  
HETATM   17  C   UNL     1      -8.591   5.512  68.412  1.00  0.00    -0.099 A  
HETATM   18  C   UNL     1      -9.681   6.408  68.317  1.00  0.00    -0.127 A  
HETATM   19  C   UNL     1     -10.775   6.052  67.346  1.00  0.00    -0.393 C  
HETATM   20  C   UNL     1     -10.363   5.104  66.233  1.00  0.00    -0.313 C  
HETATM   21  C   UNL     1      -9.489   3.989  66.713  1.00  0.00    -0.199 C  
HETATM   22  N   UNL     1      -8.568   4.327  67.666  1.00  0.00    -0.102 N  
HETATM   23  O   UNL     1      -9.502   2.871  66.204  1.00  0.00    -0.086 OA 
HETATM   24  H   UNL     1      -7.809   3.670  67.846  1.00  0.00     0.000 HD 
ENDBRANCH  12  13
ENDBRANCH  11  12
ENDBRANCH   8  11
ENDBRANCH   7   8
ENDBRANCH   5   7
TORSDOF 5
ENDMDL
MODEL      223
REMARK 921   NORMALIZED FREE ENERGY PREDICTED BY IDOCK:   -3.80 KCAL/MOL
REMARK 922        TOTAL FREE ENERGY PREDICTED BY IDOCK:   -5.54 KCAL/MOL
REMARK 923 INTER-LIGAND FREE ENERGY PREDICTED BY IDOCK:   -5.29 KCAL/MOL
REMARK 924 INTRA-LIGAND FREE ENERGY PREDICTED BY IDOCK:   -0.25 KCAL/MOL
REMARK 927      BINDING AFFINITY PREDICTED BY RF-SCORE:    0.00 PKD
ROOT
HETATM    1  C   UNL     1      -8.918  18.819  68.943  1.00  0.00    -0.239 C  
HETATM    2  C   UNL     1      -8.664  18.859  67.426  1.00  0.00    -0.274 C  
HETATM    3  C   UNL     1      -7.163  19.118  67.195  1.00  0.00    -0.221 C  
HETATM    4  C   UNL     1      -9.452  20.021  66.794  1.00  0.00    -0.530 C  
HETATM    5  N   UNL     1      -8.990  17.576  66.771  1.00  0.00    -0.248 NA 
HETATM    6  H   UNL     1      -8.345  16.847  67.075  1.00  0.00     0.000 HD 
ENDROOT
BRANCH   5   7
HETATM    7  C   UNL     1     -10.378  17.136  66.952  1.00  0.00    -0.308 C  
BRANCH   7   8
HETATM    8  C   UNL     1     -10.485  15.689  67.477  1.00  0.00    -0.285 C  
HETATM    9  H   UNL     1     -11.326  14.755  69.001  1.00  0.00     0.000 HD 
HETATM   10  O   UNL     1     -11.261  15.646  68.678  1.00  0.00    -0.296 OA 
BRANCH   8  11
HETATM   11  C   UNL     1     -11.122  14.812  66.384  1.00  0.00    -0.340 C  
BRANCH  11  12
HETATM   12  O   UNL     1     -10.166  13.877  65.883  1.00  0.00    -0.297 OA 
BRANCH  12  13
HETATM   13  C   UNL     1      -9.580  12.979  66.740  1.00  0.00    -0.248 A  
HETATM   14  C   UNL     1      -8.174  13.050  66.684  1.00  0.00     0.239 A  
HETATM   15  C   UNL     1      -7.369  12.311  67.550  1.00  0.00    -0.137 A  
HETATM   16  C   UNL     1      -7.962  11.525  68.527  1.00  0.00    -0.143 A  
HETATM   17  C   UNL     1      -9.353  11.463  68.615  1.00  0.00    -0.150 A  
HETATM   18  C   UNL     1     -10.189  12.147  67.702  1.00  0.00    -0.206 A  
HETATM   19  C   UNL     1     -11.674  12.049  67.932  1.00  0.00    -0.393 C  
HETATM   20  C   UNL     1     -12.120  10.848  68.748  1.00  0.00    -0.124 C  
HETATM   21  C   UNL     1     -11.230  10.579  69.920  1.00  0.00    -0.307 C  
HETATM   22  N   UNL     1      -9.893  10.770  69.704  1.00  0.00    -0.438 N  
HETATM   23  O   UNL     1     -11.646  10.098  70.970  1.00  0.00    -0.349 OA 
HETATM   24  H   UNL     1      -9.243  10.380  70.386  1.00  0.00     0.000 HD 
ENDBRANCH  12  13
ENDBRANCH  11  12
ENDBRANCH   8  11
ENDBRANCH   7   8
ENDBRANCH   5   7
TORSDOF 5
ENDMDL
MODEL      224
REMARK 921   NORMALIZED FREE ENERGY PREDICTED BY IDOCK:   -3.78 KCAL/MOL
REMARK 922        TOTAL FREE ENERGY PREDICTED BY IDOCK:   -5.52 KCAL/MOL
REMARK 923 INTER-LIGAND FREE ENERGY PREDICTED BY IDOCK:   -5.13 KCAL/MOL
REMARK 924 INTRA-LIGAND FREE ENERGY PREDICTED BY IDOCK:   -0.39 KCAL/MOL
REMARK 927      BINDING AFFINITY PREDICTED BY RF-SCORE:    0.00 PKD
ROOT
HETATM    1  C   UNL     1     -11.539  12.675  63.658  1.00  0.00    -0.575 C  
HETATM    2  C   UNL     1     -11.479  13.263  65.079  1.00  0.00    -0.305 C  
HETATM    3  C   UNL     1     -12.843  13.902  65.394  1.00  0.00    -0.466 C  
HETATM    4  C   UNL     1     -10.407  14.368  65.143  1.00  0.00    -0.447 C  
HETATM    5  N   UNL     1     -11.235  12.226  66.102  1.00  0.00    -0.312 NA 
HETATM    6  H   UNL     1     -12.035  11.596  66.166  1.00  0.00     0.000 HD 
ENDROOT
BRANCH   5   7
HETATM    7  C   UNL     1      -9.998  11.462  65.911  1.00  0.00    -0.234 C  
BRANCH   7   8
HETATM    8  C   UNL     1     -10.256   9.978  65.572  1.00  0.00    -0.178 C  
HETATM    9  H   UNL     1      -9.296   8.507  64.669  1.00  0.00     0.000 HD 
HETATM   10  O   UNL     1      -9.136   9.420  64.878  1.00  0.00    -0.219 OA 
BRANCH   8  11
HETATM   11  C   UNL     1     -10.525   9.211  66.880  1.00  0.00    -0.217 C  
BRANCH  11  12
HETATM   12  O   UNL     1      -9.469   9.445  67.813  1.00  0.00    -0.132 OA 
BRANCH  12  13
HETATM   13  C   UNL     1      -9.059   8.432  68.643  1.00  0.00    -0.140 A  
HETATM   14  C   UNL     1      -7.815   7.907  68.245  1.00  0.00    -0.120 A  
HETATM   15  C   UNL     1      -7.148   6.947  69.006  1.00  0.00    -0.088 A  
HETATM   16  C   UNL     1      -7.695   6.534  70.212  1.00  0.00    -0.098 A  
HETATM   17  C   UNL     1      -8.915   7.064  70.636  1.00  0.00    -0.154 A  
HETATM   18  C   UNL     1      -9.643   7.984  69.847  1.00  0.00    -0.171 A  
HETATM   19  C   UNL     1     -10.918   8.527  70.434  1.00  0.00    -0.254 C  
HETATM   20  C   UNL     1     -11.542   7.668  71.520  1.00  0.00    -0.304 C  
HETATM   21  C   UNL     1     -10.533   7.116  72.476  1.00  0.00    -0.223 C  
HETATM   22  N   UNL     1      -9.347   6.720  71.921  1.00  0.00    -0.147 N  
HETATM   23  O   UNL     1     -10.786   6.910  73.660  1.00  0.00    -0.343 OA 
HETATM   24  H   UNL     1      -8.734   6.130  72.485  1.00  0.00     0.000 HD 
ENDBRANCH  12  13
ENDBRANCH  11  12
ENDBRANCH   8  11
ENDBRANCH   7   8
ENDBRANCH   5   7
TORSDOF 5
ENDMDL
MODEL      225
REMARK 921   NORMALIZED FREE ENERGY PREDICTED BY IDOCK:   -3.78 KCAL/MOL
REMARK 922        TOTAL FREE ENERGY PREDICTED BY IDOCK:   -5.52 KCAL/MOL
REMARK 923 INTER-LIGAND FREE ENERGY PREDICTED BY IDOCK:   -4.89 KCAL/MOL
REMARK 924 INTRA-LIGAND FREE ENERGY PREDICTED BY IDOCK:   -0.63 KCAL/MOL
REMARK 927      BINDING AFFINITY PREDICTED BY RF-SCORE:    0.00 PKD
ROOT
HETATM    1  C   UNL     1      -8.871   4.962  65.867  1.00  0.00    -0.130 C  
HETATM    2  C   UNL     1      -8.381   4.184  67.101  1.00  0.00    -0.100 C  
HETATM    3  C   UNL     1      -7.185   3.312  66.676  1.00  0.00    -0.066 C  
HETATM    4  C   UNL     1      -9.497   3.250  67.607  1.00  0.00    -0.214 C  
HETATM    5  N   UNL     1      -7.908   5.080  68.175  1.00  0.00    -0.086 NA 
HETATM    6  H   UNL     1      -7.062   5.569  67.883  1.00  0.00     0.000 HD 
ENDROOT
BRANCH   5   7
HETATM    7  C   UNL     1      -8.911   6.037  68.655  1.00  0.00    -0.118 C  
BRANCH   7   8
HETATM    8  C   UNL     1      -8.358   7.473  68.781  1.00  0.00    -0.129 C  
HETATM    9  H   UNL     1      -6.713   8.443  68.280  1.00  0.00     0.000 HD 
HETATM   10  O   UNL     1      -7.052   7.559  68.203  1.00  0.00    -0.079 OA 
BRANCH   8  11
HETATM   11  C   UNL     1      -9.331   8.440  68.081  1.00  0.00    -0.133 C  
BRANCH  11  12
HETATM   12  O   UNL     1      -8.603   9.471  67.412  1.00  0.00    -0.125 OA 
BRANCH  12  13
HETATM   13  C   UNL     1      -8.871   9.747  66.095  1.00  0.00    -0.141 A  
HETATM   14  C   UNL     1      -8.052   8.996  65.230  1.00  0.00    -0.126 A  
HETATM   15  C   UNL     1      -8.225   9.028  63.847  1.00  0.00    -0.172 A  
HETATM   16  C   UNL     1      -9.261   9.775  63.307  1.00  0.00    -0.219 A  
HETATM   17  C   UNL     1     -10.100  10.505  64.151  1.00  0.00    -0.281 A  
HETATM   18  C   UNL     1      -9.899  10.545  65.550  1.00  0.00    -0.324 A  
HETATM   19  C   UNL     1     -10.902  11.321  66.361  1.00  0.00    -0.306 C  
HETATM   20  C   UNL     1     -11.673  12.377  65.589  1.00  0.00    -0.468 C  
HETATM   21  C   UNL     1     -12.109  11.907  64.238  1.00  0.00    -0.249 C  
HETATM   22  N   UNL     1     -11.211  11.123  63.566  1.00  0.00    -0.638 N  
HETATM   23  O   UNL     1     -13.144  12.295  63.704  1.00  0.00    -0.780 OA 
HETATM   24  H   UNL     1     -11.362  10.980  62.568  1.00  0.00     0.000 HD 
ENDBRANCH  12  13
ENDBRANCH  11  12
ENDBRANCH   8  11
ENDBRANCH   7   8
ENDBRANCH   5   7
TORSDOF 5
ENDMDL
MODEL      226
REMARK 921   NORMALIZED FREE ENERGY PREDICTED BY IDOCK:   -3.78 KCAL/MOL
REMARK 922        TOTAL FREE ENERGY PREDICTED BY IDOCK:   -5.51 KCAL/MOL
REMARK 923 INTER-LIGAND FREE ENERGY PREDICTED BY IDOCK:   -4.96 KCAL/MOL
REMARK 924 INTRA-LIGAND FREE ENERGY PREDICTED BY IDOCK:   -0.55 KCAL/MOL
REMARK 927      BINDING AFFINITY PREDICTED BY RF-SCORE:    0.00 PKD
ROOT
HETATM    1  C   UNL     1      -9.247   8.571  70.299  1.00  0.00    -0.164 C  
HETATM    2  C   UNL     1     -10.192   9.542  69.569  1.00  0.00    -0.213 C  
HETATM    3  C   UNL     1     -11.479   9.679  70.403  1.00  0.00    -0.325 C  
HETATM    4  C   UNL     1     -10.572   8.965  68.193  1.00  0.00    -0.211 C  
HETATM    5  N   UNL     1      -9.611  10.893  69.438  1.00  0.00    -0.426 NA 
HETATM    6  H   UNL     1      -9.522  11.332  70.355  1.00  0.00     0.000 HD 
ENDROOT
BRANCH   5   7
HETATM    7  C   UNL     1      -8.330  10.939  68.725  1.00  0.00    -0.151 C  
BRANCH   7   8
HETATM    8  C   UNL     1      -7.865  12.379  68.419  1.00  0.00    -0.142 C  
HETATM    9  H   UNL     1      -6.491  13.254  67.302  1.00  0.00     0.000 HD 
HETATM   10  O   UNL     1      -6.777  12.368  67.490  1.00  0.00    -0.116 OA 
BRANCH   8  11
HETATM   11  C   UNL     1      -9.057  13.173  67.854  1.00  0.00    -0.207 C  
BRANCH  11  12
HETATM   12  O   UNL     1      -9.447  14.195  68.772  1.00  0.00    -0.186 OA 
BRANCH  12  13
HETATM   13  C   UNL     1      -9.433  15.508  68.375  1.00  0.00    -0.196 A  
HETATM   14  C   UNL     1     -10.649  15.881  67.770  1.00  0.00    -0.302 A  
HETATM   15  C   UNL     1     -10.905  17.198  67.391  1.00  0.00    -0.164 A  
HETATM   16  C   UNL     1      -9.962  18.180  67.661  1.00  0.00    -0.344 A  
HETATM   17  C   UNL     1      -8.762  17.833  68.284  1.00  0.00    -0.277 A  
HETATM   18  C   UNL     1      -8.451  16.493  68.612  1.00  0.00    -0.243 A  
HETATM   19  C   UNL     1      -7.151  16.251  69.331  1.00  0.00    -0.204 C  
HETATM   20  C   UNL     1      -6.107  17.341  69.156  1.00  0.00    -0.217 C  
HETATM   21  C   UNL     1      -6.686  18.718  69.240  1.00  0.00    -0.262 C  
HETATM   22  N   UNL     1      -7.913  18.881  68.659  1.00  0.00    -0.342 N  
HETATM   23  O   UNL     1      -6.057  19.674  69.685  1.00  0.00    -0.271 OA 
HETATM   24  H   UNL     1      -8.233  19.834  68.486  1.00  0.00     0.000 HD 
ENDBRANCH  12  13
ENDBRANCH  11  12
ENDBRANCH   8  11
ENDBRANCH   7   8
ENDBRANCH   5   7
TORSDOF 5
ENDMDL
MODEL      227
REMARK 921   NORMALIZED FREE ENERGY PREDICTED BY IDOCK:   -3.77 KCAL/MOL
REMARK 922        TOTAL FREE ENERGY PREDICTED BY IDOCK:   -5.51 KCAL/MOL
REMARK 923 INTER-LIGAND FREE ENERGY PREDICTED BY IDOCK:   -4.76 KCAL/MOL
REMARK 924 INTRA-LIGAND FREE ENERGY PREDICTED BY IDOCK:   -0.74 KCAL/MOL
REMARK 927      BINDING AFFINITY PREDICTED BY RF-SCORE:    0.00 PKD
ROOT
HETATM    1  C   UNL     1      -5.326   9.664  68.837  1.00  0.00    -0.036 C  
HETATM    2  C   UNL     1      -6.665  10.422  68.799  1.00  0.00    -0.053 C  
HETATM    3  C   UNL     1      -6.413  11.869  69.261  1.00  0.00    -0.111 C  
HETATM    4  C   UNL     1      -7.660   9.774  69.779  1.00  0.00    -0.137 C  
HETATM    5  N   UNL     1      -7.228  10.492  67.435  1.00  0.00    -0.090 NA 
HETATM    6  H   UNL     1      -6.639  11.071  66.837  1.00  0.00     0.000 HD 
ENDROOT
BRANCH   5   7
HETATM    7  C   UNL     1      -7.467   9.187  66.808  1.00  0.00    -0.087 C  
BRANCH   7   8
HETATM    8  C   UNL     1      -7.795   9.297  65.303  1.00  0.00    -0.105 C  
HETATM    9  H   UNL     1      -8.918   8.343  63.989  1.00  0.00     0.000 HD 
HETATM   10  O   UNL     1      -8.717   8.274  64.915  1.00  0.00    -0.105 OA 
BRANCH   8  11
HETATM   11  C   UNL     1      -8.380  10.694  65.025  1.00  0.00    -0.106 C  
BRANCH  11  12
HETATM   12  O   UNL     1      -9.803  10.621  64.932  1.00  0.00    -0.252 OA 
BRANCH  12  13
HETATM   13  C   UNL     1     -10.564  11.709  65.282  1.00  0.00    -0.281 A  
HETATM   14  C   UNL     1     -11.227  12.258  64.167  1.00  0.00    -0.430 A  
HETATM   15  C   UNL     1     -12.146  13.299  64.302  1.00  0.00    -0.475 A  
HETATM   16  C   UNL     1     -12.456  13.774  65.568  1.00  0.00    -0.548 A  
HETATM   17  C   UNL     1     -11.828  13.224  66.686  1.00  0.00    -0.395 A  
HETATM   18  C   UNL     1     -10.841  12.217  66.568  1.00  0.00    -0.297 A  
HETATM   19  C   UNL     1     -10.276  11.663  67.849  1.00  0.00    -0.203 C  
HETATM   20  C   UNL     1     -10.415  12.571  69.058  1.00  0.00    -0.024 C  
HETATM   21  C   UNL     1     -11.753  13.235  69.136  1.00  0.00    -0.329 C  
HETATM   22  N   UNL     1     -12.282  13.641  67.942  1.00  0.00    -0.382 N  
HETATM   23  O   UNL     1     -12.292  13.515  70.203  1.00  0.00    -0.317 OA 
HETATM   24  H   UNL     1     -13.064  14.296  67.969  1.00  0.00     0.000 HD 
ENDBRANCH  12  13
ENDBRANCH  11  12
ENDBRANCH   8  11
ENDBRANCH   7   8
ENDBRANCH   5   7
TORSDOF 5
ENDMDL
MODEL      228
REMARK 921   NORMALIZED FREE ENERGY PREDICTED BY IDOCK:   -3.76 KCAL/MOL
REMARK 922        TOTAL FREE ENERGY PREDICTED BY IDOCK:   -5.49 KCAL/MOL
REMARK 923 INTER-LIGAND FREE ENERGY PREDICTED BY IDOCK:   -5.09 KCAL/MOL
REMARK 924 INTRA-LIGAND FREE ENERGY PREDICTED BY IDOCK:   -0.40 KCAL/MOL
REMARK 927      BINDING AFFINITY PREDICTED BY RF-SCORE:    0.00 PKD
ROOT
HETATM    1  C   UNL     1      -9.075   6.602  72.553  1.00  0.00    -0.140 C  
HETATM    2  C   UNL     1     -10.337   6.294  71.727  1.00  0.00    -0.206 C  
HETATM    3  C   UNL     1     -11.491   6.002  72.703  1.00  0.00    -0.297 C  
HETATM    4  C   UNL     1     -10.106   5.035  70.870  1.00  0.00    -0.302 C  
HETATM    5  N   UNL     1     -10.751   7.439  70.892  1.00  0.00    -0.232 NA 
HETATM    6  H   UNL     1     -11.064   8.212  71.479  1.00  0.00     0.000 HD 
ENDROOT
BRANCH   5   7
HETATM    7  C   UNL     1      -9.732   7.900  69.943  1.00  0.00    -0.176 C  
BRANCH   7   8
HETATM    8  C   UNL     1      -9.473   9.419  70.032  1.00  0.00    -0.228 C  
HETATM    9  H   UNL     1      -8.064  10.612  70.733  1.00  0.00     0.000 HD 
HETATM   10  O   UNL     1      -8.223   9.678  70.678  1.00  0.00    -0.234 OA 
BRANCH   8  11
HETATM   11  C   UNL     1      -9.484  10.007  68.609  1.00  0.00    -0.156 C  
BRANCH  11  12
HETATM   12  O   UNL     1      -9.123  11.388  68.645  1.00  0.00    -0.175 OA 
BRANCH  12  13
HETATM   13  C   UNL     1      -9.813  12.291  67.874  1.00  0.00    -0.201 A  
HETATM   14  C   UNL     1     -10.975  11.720  67.321  1.00  0.00    -0.318 A  
HETATM   15  C   UNL     1     -11.891  12.481  66.595  1.00  0.00    -0.422 A  
HETATM   16  C   UNL     1     -11.683  13.846  66.456  1.00  0.00    -0.414 A  
HETATM   17  C   UNL     1     -10.550  14.434  67.021  1.00  0.00    -0.274 A  
HETATM   18  C   UNL     1      -9.572  13.670  67.699  1.00  0.00    -0.221 A  
HETATM   19  C   UNL     1      -8.422  14.424  68.312  1.00  0.00    -0.165 C  
HETATM   20  C   UNL     1      -8.156  15.792  67.709  1.00  0.00    -0.156 C  
HETATM   21  C   UNL     1      -9.409  16.562  67.440  1.00  0.00    -0.222 C  
HETATM   22  N   UNL     1     -10.466  15.830  66.972  1.00  0.00    -0.304 N  
HETATM   23  O   UNL     1      -9.461  17.787  67.508  1.00  0.00    -0.253 OA 
HETATM   24  H   UNL     1     -11.247  16.337  66.558  1.00  0.00     0.000 HD 
ENDBRANCH  12  13
ENDBRANCH  11  12
ENDBRANCH   8  11
ENDBRANCH   7   8
ENDBRANCH   5   7
TORSDOF 5
ENDMDL
MODEL      229
REMARK 921   NORMALIZED FREE ENERGY PREDICTED BY IDOCK:   -3.76 KCAL/MOL
REMARK 922        TOTAL FREE ENERGY PREDICTED BY IDOCK:   -5.48 KCAL/MOL
REMARK 923 INTER-LIGAND FREE ENERGY PREDICTED BY IDOCK:   -5.51 KCAL/MOL
REMARK 924 INTRA-LIGAND FREE ENERGY PREDICTED BY IDOCK:    0.03 KCAL/MOL
REMARK 927      BINDING AFFINITY PREDICTED BY RF-SCORE:    0.00 PKD
ROOT
HETATM    1  C   UNL     1      -6.924   7.698  70.756  1.00  0.00    -0.047 C  
HETATM    2  C   UNL     1      -8.147   6.817  70.439  1.00  0.00    -0.116 C  
HETATM    3  C   UNL     1      -8.703   6.269  71.766  1.00  0.00    -0.133 C  
HETATM    4  C   UNL     1      -7.717   5.620  69.570  1.00  0.00    -0.091 C  
HETATM    5  N   UNL     1      -9.233   7.581  69.793  1.00  0.00    -0.148 NA 
HETATM    6  H   UNL     1      -9.624   8.262  70.444  1.00  0.00     0.000 HD 
ENDROOT
BRANCH   5   7
HETATM    7  C   UNL     1      -8.852   8.238  68.537  1.00  0.00    -0.137 C  
BRANCH   7   8
HETATM    8  C   UNL     1      -9.361   9.692  68.443  1.00  0.00    -0.133 C  
HETATM    9  H   UNL     1      -8.870  11.341  67.473  1.00  0.00     0.000 HD 
HETATM   10  O   UNL     1      -8.556  10.447  67.531  1.00  0.00    -0.124 OA 
BRANCH   8  11
HETATM   11  C   UNL     1     -10.831   9.672  67.985  1.00  0.00    -0.196 C  
BRANCH  11  12
HETATM   12  O   UNL     1     -11.669  10.229  68.999  1.00  0.00    -0.147 OA 
BRANCH  12  13
HETATM   13  C   UNL     1     -11.917  11.578  69.011  1.00  0.00    -0.311 A  
HETATM   14  C   UNL     1     -12.062  12.068  70.323  1.00  0.00    -0.395 A  
HETATM   15  C   UNL     1     -12.206  13.431  70.584  1.00  0.00    -0.427 A  
HETATM   16  C   UNL     1     -12.155  14.335  69.533  1.00  0.00    -0.376 A  
HETATM   17  C   UNL     1     -11.985  13.869  68.229  1.00  0.00    -0.357 A  
HETATM   18  C   UNL     1     -11.909  12.488  67.933  1.00  0.00    -0.383 A  
HETATM   19  C   UNL     1     -11.670  12.111  66.495  1.00  0.00    -0.392 C  
HETATM   20  C   UNL     1     -12.059  13.172  65.479  1.00  0.00    -0.490 C  
HETATM   21  C   UNL     1     -11.658  14.551  65.897  1.00  0.00    -0.349 C  
HETATM   22  N   UNL     1     -11.798  14.830  67.228  1.00  0.00    -0.415 N  
HETATM   23  O   UNL     1     -11.345  15.422  65.090  1.00  0.00    -0.340 OA 
HETATM   24  H   UNL     1     -11.764  15.809  67.513  1.00  0.00     0.000 HD 
ENDBRANCH  12  13
ENDBRANCH  11  12
ENDBRANCH   8  11
ENDBRANCH   7   8
ENDBRANCH   5   7
TORSDOF 5
ENDMDL
MODEL      230
REMARK 921   NORMALIZED FREE ENERGY PREDICTED BY IDOCK:   -3.75 KCAL/MOL
REMARK 922        TOTAL FREE ENERGY PREDICTED BY IDOCK:   -5.48 KCAL/MOL
REMARK 923 INTER-LIGAND FREE ENERGY PREDICTED BY IDOCK:   -4.88 KCAL/MOL
REMARK 924 INTRA-LIGAND FREE ENERGY PREDICTED BY IDOCK:   -0.60 KCAL/MOL
REMARK 927      BINDING AFFINITY PREDICTED BY RF-SCORE:    0.00 PKD
ROOT
HETATM    1  C   UNL     1      -7.681  19.325  68.682  1.00  0.00    -0.394 C  
HETATM    2  C   UNL     1      -7.124  19.595  67.273  1.00  0.00    -0.209 C  
HETATM    3  C   UNL     1      -5.698  19.019  67.200  1.00  0.00    -0.166 C  
HETATM    4  C   UNL     1      -7.039  21.114  67.027  1.00  0.00    -0.278 C  
HETATM    5  N   UNL     1      -7.918  18.929  66.221  1.00  0.00    -0.320 NA 
HETATM    6  H   UNL     1      -7.826  17.916  66.295  1.00  0.00     0.000 HD 
ENDROOT
BRANCH   5   7
HETATM    7  C   UNL     1      -9.334  19.312  66.192  1.00  0.00    -0.269 C  
BRANCH   7   8
HETATM    8  C   UNL     1     -10.271  18.177  66.657  1.00  0.00    -0.381 C  
HETATM    9  H   UNL     1     -11.882  17.995  67.785  1.00  0.00     0.000 HD 
HETATM   10  O   UNL     1     -11.305  18.694  67.500  1.00  0.00     0.020 OA 
BRANCH   8  11
HETATM   11  C   UNL     1     -10.871  17.492  65.415  1.00  0.00     0.059 C  
BRANCH  11  12
HETATM   12  O   UNL     1     -10.057  16.385  65.023  1.00  0.00    -0.486 OA 
BRANCH  12  13
HETATM   13  C   UNL     1     -10.073  15.232  65.767  1.00  0.00    -0.356 A  
HETATM   14  C   UNL     1     -11.034  14.320  65.289  1.00  0.00    -0.347 A  
HETATM   15  C   UNL     1     -11.151  13.035  65.819  1.00  0.00    -0.302 A  
HETATM   16  C   UNL     1     -10.267  12.622  66.805  1.00  0.00    -0.246 A  
HETATM   17  C   UNL     1      -9.291  13.503  67.272  1.00  0.00    -0.233 A  
HETATM   18  C   UNL     1      -9.200  14.834  66.801  1.00  0.00    -0.282 A  
HETATM   19  C   UNL     1      -8.071  15.672  67.340  1.00  0.00    -0.195 C  
HETATM   20  C   UNL     1      -7.502  15.207  68.669  1.00  0.00    -0.124 C  
HETATM   21  C   UNL     1      -7.343  13.722  68.745  1.00  0.00    -0.103 C  
HETATM   22  N   UNL     1      -8.340  12.989  68.161  1.00  0.00    -0.158 N  
HETATM   23  O   UNL     1      -6.450  13.184  69.393  1.00  0.00    -0.108 OA 
HETATM   24  H   UNL     1      -8.395  11.997  68.391  1.00  0.00     0.000 HD 
ENDBRANCH  12  13
ENDBRANCH  11  12
ENDBRANCH   8  11
ENDBRANCH   7   8
ENDBRANCH   5   7
TORSDOF 5
ENDMDL
MODEL      231
REMARK 921   NORMALIZED FREE ENERGY PREDICTED BY IDOCK:   -3.75 KCAL/MOL
REMARK 922        TOTAL FREE ENERGY PREDICTED BY IDOCK:   -5.47 KCAL/MOL
REMARK 923 INTER-LIGAND FREE ENERGY PREDICTED BY IDOCK:   -4.58 KCAL/MOL
REMARK 924 INTRA-LIGAND FREE ENERGY PREDICTED BY IDOCK:   -0.90 KCAL/MOL
REMARK 927      BINDING AFFINITY PREDICTED BY RF-SCORE:    0.00 PKD
ROOT
HETATM    1  C   UNL     1      -7.416   9.469  65.977  1.00  0.00    -0.100 C  
HETATM    2  C   UNL     1      -8.498   9.512  67.071  1.00  0.00    -0.128 C  
HETATM    3  C   UNL     1      -7.818   9.273  68.431  1.00  0.00    -0.094 C  
HETATM    4  C   UNL     1      -9.518   8.381  66.841  1.00  0.00    -0.239 C  
HETATM    5  N   UNL     1      -9.168  10.826  67.142  1.00  0.00    -0.147 NA 
HETATM    6  H   UNL     1      -8.514  11.541  67.462  1.00  0.00     0.000 HD 
ENDROOT
BRANCH   5   7
HETATM    7  C   UNL     1      -9.815  11.249  65.895  1.00  0.00    -0.232 C  
BRANCH   7   8
HETATM    8  C   UNL     1     -11.281  11.686  66.099  1.00  0.00    -0.254 C  
HETATM    9  H   UNL     1     -12.662  11.524  67.501  1.00  0.00     0.000 HD 
HETATM   10  O   UNL     1     -11.760  11.255  67.376  1.00  0.00    -0.580 OA 
BRANCH   8  11
HETATM   11  C   UNL     1     -11.361  13.219  65.976  1.00  0.00    -0.305 C  
BRANCH  11  12
HETATM   12  O   UNL     1     -10.047  13.778  65.933  1.00  0.00    -0.299 OA 
BRANCH  12  13
HETATM   13  C   UNL     1      -9.668  14.697  66.879  1.00  0.00    -0.242 A  
HETATM   14  C   UNL     1     -10.724  15.570  67.207  1.00  0.00    -0.308 A  
HETATM   15  C   UNL     1     -10.604  16.513  68.227  1.00  0.00    -0.326 A  
HETATM   16  C   UNL     1      -9.437  16.562  68.975  1.00  0.00    -0.249 A  
HETATM   17  C   UNL     1      -8.390  15.687  68.682  1.00  0.00    -0.177 A  
HETATM   18  C   UNL     1      -8.462  14.772  67.606  1.00  0.00    -0.185 A  
HETATM   19  C   UNL     1      -7.292  13.842  67.423  1.00  0.00    -0.125 C  
HETATM   20  C   UNL     1      -5.989  14.319  68.039  1.00  0.00    -0.150 C  
HETATM   21  C   UNL     1      -6.173  14.921  69.395  1.00  0.00    -0.114 C  
HETATM   22  N   UNL     1      -7.297  15.684  69.556  1.00  0.00    -0.213 N  
HETATM   23  O   UNL     1      -5.318  14.849  70.274  1.00  0.00    -0.107 OA 
HETATM   24  H   UNL     1      -7.342  16.295  70.372  1.00  0.00     0.000 HD 
ENDBRANCH  12  13
ENDBRANCH  11  12
ENDBRANCH   8  11
ENDBRANCH   7   8
ENDBRANCH   5   7
TORSDOF 5
ENDMDL
MODEL      232
REMARK 921   NORMALIZED FREE ENERGY PREDICTED BY IDOCK:   -3.75 KCAL/MOL
REMARK 922        TOTAL FREE ENERGY PREDICTED BY IDOCK:   -5.47 KCAL/MOL
REMARK 923 INTER-LIGAND FREE ENERGY PREDICTED BY IDOCK:   -4.77 KCAL/MOL
REMARK 924 INTRA-LIGAND FREE ENERGY PREDICTED BY IDOCK:   -0.70 KCAL/MOL
REMARK 927      BINDING AFFINITY PREDICTED BY RF-SCORE:    0.00 PKD
ROOT
HETATM    1  C   UNL     1      -9.824  17.864  69.317  1.00  0.00    -0.049 C  
HETATM    2  C   UNL     1     -10.318  16.426  69.076  1.00  0.00    -0.278 C  
HETATM    3  C   UNL     1     -11.105  15.972  70.319  1.00  0.00    -0.380 C  
HETATM    4  C   UNL     1      -9.113  15.482  68.902  1.00  0.00    -0.219 C  
HETATM    5  N   UNL     1     -11.235  16.336  67.922  1.00  0.00    -0.270 NA 
HETATM    6  H   UNL     1     -12.106  16.829  68.121  1.00  0.00     0.000 HD 
ENDROOT
BRANCH   5   7
HETATM    7  C   UNL     1     -10.664  16.802  66.653  1.00  0.00    -0.107 C  
BRANCH   7   8
HETATM    8  C   UNL     1     -10.713  15.729  65.545  1.00  0.00    -0.383 C  
HETATM    9  H   UNL     1      -9.443  14.515  64.642  1.00  0.00     0.000 HD 
HETATM   10  O   UNL     1      -9.412  15.176  65.325  1.00  0.00    -0.128 OA 
BRANCH   8  11
HETATM   11  C   UNL     1     -11.710  14.632  65.962  1.00  0.00    -0.306 C  
BRANCH  11  12
HETATM   12  O   UNL     1     -11.342  13.383  65.375  1.00  0.00    -0.290 OA 
BRANCH  12  13
HETATM   13  C   UNL     1     -10.694  12.440  66.132  1.00  0.00    -0.260 A  
HETATM   14  C   UNL     1     -10.980  12.590  67.503  1.00  0.00    -0.288 A  
HETATM   15  C   UNL     1     -10.524  11.674  68.451  1.00  0.00    -0.230 A  
HETATM   16  C   UNL     1      -9.814  10.558  68.032  1.00  0.00    -0.166 A  
HETATM   17  C   UNL     1      -9.544  10.379  66.674  1.00  0.00    -0.177 A  
HETATM   18  C   UNL     1      -9.935  11.331  65.704  1.00  0.00    -0.292 A  
HETATM   19  C   UNL     1      -9.636  11.000  64.266  1.00  0.00    -0.303 C  
HETATM   20  C   UNL     1      -8.521   9.991  64.057  1.00  0.00    -0.179 C  
HETATM   21  C   UNL     1      -8.585   8.847  65.018  1.00  0.00    -0.176 C  
HETATM   22  N   UNL     1      -8.952   9.169  66.296  1.00  0.00    -0.149 N  
HETATM   23  O   UNL     1      -8.212   7.714  64.726  1.00  0.00    -0.135 OA 
HETATM   24  H   UNL     1      -8.782   8.477  67.026  1.00  0.00     0.000 HD 
ENDBRANCH  12  13
ENDBRANCH  11  12
ENDBRANCH   8  11
ENDBRANCH   7   8
ENDBRANCH   5   7
TORSDOF 5
ENDMDL
MODEL      233
REMARK 921   NORMALIZED FREE ENERGY PREDICTED BY IDOCK:   -3.74 KCAL/MOL
REMARK 922        TOTAL FREE ENERGY PREDICTED BY IDOCK:   -5.46 KCAL/MOL
REMARK 923 INTER-LIGAND FREE ENERGY PREDICTED BY IDOCK:   -4.99 KCAL/MOL
REMARK 924 INTRA-LIGAND FREE ENERGY PREDICTED BY IDOCK:   -0.47 KCAL/MOL
REMARK 927      BINDING AFFINITY PREDICTED BY RF-SCORE:    0.00 PKD
ROOT
HETATM    1  C   UNL     1      -6.575  15.455  67.729  1.00  0.00    -0.178 C  
HETATM    2  C   UNL     1      -7.347  14.726  68.843  1.00  0.00    -0.130 C  
HETATM    3  C   UNL     1      -8.559  15.591  69.235  1.00  0.00    -0.263 C  
HETATM    4  C   UNL     1      -6.449  14.572  70.085  1.00  0.00    -0.156 C  
HETATM    5  N   UNL     1      -7.869  13.418  68.398  1.00  0.00    -0.136 NA 
HETATM    6  H   UNL     1      -8.591  13.547  67.689  1.00  0.00     0.000 HD 
ENDROOT
BRANCH   5   7
HETATM    7  C   UNL     1      -6.844  12.485  67.919  1.00  0.00    -0.105 C  
BRANCH   7   8
HETATM    8  C   UNL     1      -6.876  11.129  68.656  1.00  0.00    -0.070 C  
HETATM    9  H   UNL     1      -6.051  10.331  70.262  1.00  0.00     0.000 HD 
HETATM   10  O   UNL     1      -6.030  11.165  69.809  1.00  0.00    -0.069 OA 
BRANCH   8  11
HETATM   11  C   UNL     1      -8.330  10.818  69.054  1.00  0.00    -0.136 C  
BRANCH  11  12
HETATM   12  O   UNL     1      -8.367   9.712  69.958  1.00  0.00    -0.151 OA 
BRANCH  12  13
HETATM   13  C   UNL     1      -9.510   9.455  70.673  1.00  0.00    -0.262 A  
HETATM   14  C   UNL     1     -10.625  10.117  70.123  1.00  0.00    -0.337 A  
HETATM   15  C   UNL     1     -11.914   9.912  70.615  1.00  0.00    -0.361 A  
HETATM   16  C   UNL     1     -12.115   8.996  71.637  1.00  0.00    -0.422 A  
HETATM   17  C   UNL     1     -11.024   8.311  72.176  1.00  0.00    -0.326 A  
HETATM   18  C   UNL     1      -9.701   8.556  71.742  1.00  0.00    -0.337 A  
HETATM   19  C   UNL     1      -8.615   7.715  72.360  1.00  0.00    -0.162 C  
HETATM   20  C   UNL     1      -8.962   7.104  73.706  1.00  0.00    -0.227 C  
HETATM   21  C   UNL     1     -10.354   6.560  73.755  1.00  0.00    -0.326 C  
HETATM   22  N   UNL     1     -11.302   7.300  73.103  1.00  0.00    -0.582 N  
HETATM   23  O   UNL     1     -10.661   5.587  74.438  1.00  0.00    -0.252 OA 
HETATM   24  H   UNL     1     -12.281   7.099  73.306  1.00  0.00     0.000 HD 
ENDBRANCH  12  13
ENDBRANCH  11  12
ENDBRANCH   8  11
ENDBRANCH   7   8
ENDBRANCH   5   7
TORSDOF 5
ENDMDL
MODEL      234
REMARK 921   NORMALIZED FREE ENERGY PREDICTED BY IDOCK:   -3.73 KCAL/MOL
REMARK 922        TOTAL FREE ENERGY PREDICTED BY IDOCK:   -5.45 KCAL/MOL
REMARK 923 INTER-LIGAND FREE ENERGY PREDICTED BY IDOCK:   -4.99 KCAL/MOL
REMARK 924 INTRA-LIGAND FREE ENERGY PREDICTED BY IDOCK:   -0.46 KCAL/MOL
REMARK 927      BINDING AFFINITY PREDICTED BY RF-SCORE:    0.00 PKD
ROOT
HETATM    1  C   UNL     1     -10.035   4.543  65.644  1.00  0.00    -0.245 C  
HETATM    2  C   UNL     1      -9.014   4.885  66.743  1.00  0.00    -0.110 C  
HETATM    3  C   UNL     1      -7.827   3.912  66.618  1.00  0.00    -0.089 C  
HETATM    4  C   UNL     1      -9.652   4.686  68.130  1.00  0.00    -0.204 C  
HETATM    5  N   UNL     1      -8.474   6.252  66.597  1.00  0.00    -0.111 NA 
HETATM    6  H   UNL     1      -7.907   6.322  65.751  1.00  0.00     0.000 HD 
ENDROOT
BRANCH   5   7
HETATM    7  C   UNL     1      -9.487   7.313  66.621  1.00  0.00    -0.177 C  
BRANCH   7   8
HETATM    8  C   UNL     1      -8.891   8.704  66.926  1.00  0.00    -0.132 C  
HETATM    9  H   UNL     1      -7.112   9.468  67.315  1.00  0.00     0.000 HD 
HETATM   10  O   UNL     1      -7.478   8.611  67.128  1.00  0.00    -0.087 OA 
BRANCH   8  11
HETATM   11  C   UNL     1      -9.214   9.648  65.752  1.00  0.00    -0.210 C  
BRANCH  11  12
HETATM   12  O   UNL     1     -10.524  10.196  65.909  1.00  0.00    -0.183 OA 
BRANCH  12  13
HETATM   13  C   UNL     1     -10.690  11.375  66.593  1.00  0.00    -0.269 A  
HETATM   14  C   UNL     1     -10.499  12.491  65.756  1.00  0.00    -0.296 A  
HETATM   15  C   UNL     1     -10.729  13.791  66.206  1.00  0.00    -0.285 A  
HETATM   16  C   UNL     1     -11.207  13.992  67.493  1.00  0.00    -0.328 A  
HETATM   17  C   UNL     1     -11.426  12.895  68.328  1.00  0.00    -0.311 A  
HETATM   18  C   UNL     1     -11.132  11.574  67.917  1.00  0.00    -0.317 A  
HETATM   19  C   UNL     1     -11.464  10.469  68.885  1.00  0.00    -0.292 C  
HETATM   20  C   UNL     1     -11.568  10.898  70.338  1.00  0.00    -0.418 C  
HETATM   21  C   UNL     1     -12.293  12.195  70.511  1.00  0.00    -0.272 C  
HETATM   22  N   UNL     1     -12.041  13.145  69.560  1.00  0.00    -0.275 N  
HETATM   23  O   UNL     1     -12.970  12.447  71.504  1.00  0.00    -0.383 OA 
HETATM   24  H   UNL     1     -12.321  14.104  69.763  1.00  0.00     0.000 HD 
ENDBRANCH  12  13
ENDBRANCH  11  12
ENDBRANCH   8  11
ENDBRANCH   7   8
ENDBRANCH   5   7
TORSDOF 5
ENDMDL
MODEL      235
REMARK 921   NORMALIZED FREE ENERGY PREDICTED BY IDOCK:   -3.72 KCAL/MOL
REMARK 922        TOTAL FREE ENERGY PREDICTED BY IDOCK:   -5.44 KCAL/MOL
REMARK 923 INTER-LIGAND FREE ENERGY PREDICTED BY IDOCK:   -5.00 KCAL/MOL
REMARK 924 INTRA-LIGAND FREE ENERGY PREDICTED BY IDOCK:   -0.44 KCAL/MOL
REMARK 927      BINDING AFFINITY PREDICTED BY RF-SCORE:    0.00 PKD
ROOT
HETATM    1  C   UNL     1     -12.859   6.897  71.909  1.00  0.00    -0.290 C  
HETATM    2  C   UNL     1     -11.335   6.709  72.019  1.00  0.00    -0.280 C  
HETATM    3  C   UNL     1     -11.062   5.536  72.979  1.00  0.00    -0.350 C  
HETATM    4  C   UNL     1     -10.694   7.975  72.617  1.00  0.00    -0.426 C  
HETATM    5  N   UNL     1     -10.721   6.363  70.721  1.00  0.00    -0.237 NA 
HETATM    6  H   UNL     1     -11.028   5.438  70.418  1.00  0.00     0.000 HD 
ENDROOT
BRANCH   5   7
HETATM    7  C   UNL     1     -10.946   7.349  69.658  1.00  0.00    -0.172 C  
BRANCH   7   8
HETATM    8  C   UNL     1     -10.414   6.883  68.286  1.00  0.00    -0.206 C  
HETATM    9  H   UNL     1     -11.061   5.794  66.772  1.00  0.00     0.000 HD 
HETATM   10  O   UNL     1     -11.389   6.080  67.616  1.00  0.00    -0.104 OA 
BRANCH   8  11
HETATM   11  C   UNL     1     -10.059   8.125  67.447  1.00  0.00    -0.233 C  
BRANCH  11  12
HETATM   12  O   UNL     1      -9.946   9.272  68.290  1.00  0.00    -0.161 OA 
BRANCH  12  13
HETATM   13  C   UNL     1      -9.961  10.528  67.735  1.00  0.00    -0.171 A  
HETATM   14  C   UNL     1     -11.269  10.936  67.410  1.00  0.00    -0.345 A  
HETATM   15  C   UNL     1     -11.539  12.221  66.940  1.00  0.00    -0.427 A  
HETATM   16  C   UNL     1     -10.505  13.140  66.837  1.00  0.00    -0.256 A  
HETATM   17  C   UNL     1      -9.207  12.761  67.181  1.00  0.00    -0.219 A  
HETATM   18  C   UNL     1      -8.898  11.443  67.591  1.00  0.00    -0.139 A  
HETATM   19  C   UNL     1      -7.471  11.170  67.989  1.00  0.00    -0.094 C  
HETATM   20  C   UNL     1      -6.449  12.138  67.420  1.00  0.00    -0.149 C  
HETATM   21  C   UNL     1      -6.907  13.561  67.467  1.00  0.00    -0.143 C  
HETATM   22  N   UNL     1      -8.232  13.765  67.194  1.00  0.00    -0.332 N  
HETATM   23  O   UNL     1      -6.132  14.502  67.614  1.00  0.00    -0.267 OA 
HETATM   24  H   UNL     1      -8.531  14.718  66.985  1.00  0.00     0.000 HD 
ENDBRANCH  12  13
ENDBRANCH  11  12
ENDBRANCH   8  11
ENDBRANCH   7   8
ENDBRANCH   5   7
TORSDOF 5
ENDMDL
MODEL      236
REMARK 921   NORMALIZED FREE ENERGY PREDICTED BY IDOCK:   -3.72 KCAL/MOL
REMARK 922        TOTAL FREE ENERGY PREDICTED BY IDOCK:   -5.44 KCAL/MOL
REMARK 923 INTER-LIGAND FREE ENERGY PREDICTED BY IDOCK:   -4.98 KCAL/MOL
REMARK 924 INTRA-LIGAND FREE ENERGY PREDICTED BY IDOCK:   -0.45 KCAL/MOL
REMARK 927      BINDING AFFINITY PREDICTED BY RF-SCORE:    0.00 PKD
ROOT
HETATM    1  C   UNL     1     -11.805  15.218  72.095  1.00  0.00    -0.526 C  
HETATM    2  C   UNL     1     -13.138  14.602  71.633  1.00  0.00    -0.346 C  
HETATM    3  C   UNL     1     -14.274  15.568  72.016  1.00  0.00    -0.606 C  
HETATM    4  C   UNL     1     -13.378  13.268  72.363  1.00  0.00    -0.616 C  
HETATM    5  N   UNL     1     -13.192  14.425  70.168  1.00  0.00    -0.365 NA 
HETATM    6  H   UNL     1     -13.203  15.331  69.700  1.00  0.00     0.000 HD 
ENDROOT
BRANCH   5   7
HETATM    7  C   UNL     1     -12.126  13.580  69.617  1.00  0.00    -0.306 C  
BRANCH   7   8
HETATM    8  C   UNL     1     -11.462  14.192  68.365  1.00  0.00    -0.302 C  
HETATM    9  H   UNL     1     -12.030  14.821  66.582  1.00  0.00     0.000 HD 
HETATM   10  O   UNL     1     -12.439  14.444  67.352  1.00  0.00    -0.184 OA 
BRANCH   8  11
HETATM   11  C   UNL     1     -10.748  15.495  68.772  1.00  0.00    -0.249 C  
BRANCH  11  12
HETATM   12  O   UNL     1      -9.600  15.704  67.948  1.00  0.00    -0.206 OA 
BRANCH  12  13
HETATM   13  C   UNL     1      -8.355  15.766  68.521  1.00  0.00    -0.175 A  
HETATM   14  C   UNL     1      -7.897  17.093  68.626  1.00  0.00    -0.265 A  
HETATM   15  C   UNL     1      -6.706  17.408  69.280  1.00  0.00    -0.222 A  
HETATM   16  C   UNL     1      -5.976  16.397  69.888  1.00  0.00    -0.195 A  
HETATM   17  C   UNL     1      -6.428  15.079  69.817  1.00  0.00    -0.163 A  
HETATM   18  C   UNL     1      -7.594  14.727  69.098  1.00  0.00    -0.151 A  
HETATM   19  C   UNL     1      -8.011  13.281  69.140  1.00  0.00     0.396 C  
HETATM   20  C   UNL     1      -6.901  12.302  69.477  1.00  0.00     0.065 C  
HETATM   21  C   UNL     1      -6.013  12.786  70.579  1.00  0.00    -0.063 C  
HETATM   22  N   UNL     1      -5.731  14.125  70.566  1.00  0.00    -0.143 N  
HETATM   23  O   UNL     1      -5.466  12.025  71.372  1.00  0.00    -0.361 OA 
HETATM   24  H   UNL     1      -4.956  14.451  71.144  1.00  0.00     0.000 HD 
ENDBRANCH  12  13
ENDBRANCH  11  12
ENDBRANCH   8  11
ENDBRANCH   7   8
ENDBRANCH   5   7
TORSDOF 5
ENDMDL
MODEL      237
REMARK 921   NORMALIZED FREE ENERGY PREDICTED BY IDOCK:   -3.70 KCAL/MOL
REMARK 922        TOTAL FREE ENERGY PREDICTED BY IDOCK:   -5.42 KCAL/MOL
REMARK 923 INTER-LIGAND FREE ENERGY PREDICTED BY IDOCK:   -4.91 KCAL/MOL
REMARK 924 INTRA-LIGAND FREE ENERGY PREDICTED BY IDOCK:   -0.51 KCAL/MOL
REMARK 927      BINDING AFFINITY PREDICTED BY RF-SCORE:    0.00 PKD
ROOT
HETATM    1  C   UNL     1     -11.983  13.792  68.608  1.00  0.00    -0.401 C  
HETATM    2  C   UNL     1     -11.287  14.160  67.285  1.00  0.00    -0.332 C  
HETATM    3  C   UNL     1     -10.610  15.532  67.461  1.00  0.00    -0.297 C  
HETATM    4  C   UNL     1     -12.333  14.283  66.161  1.00  0.00    -0.411 C  
HETATM    5  N   UNL     1     -10.229  13.195  66.924  1.00  0.00    -0.243 NA 
HETATM    6  H   UNL     1      -9.459  13.246  67.590  1.00  0.00     0.000 HD 
ENDROOT
BRANCH   5   7
HETATM    7  C   UNL     1     -10.691  11.809  66.784  1.00  0.00    -0.253 C  
BRANCH   7   8
HETATM    8  C   UNL     1      -9.954  10.834  67.727  1.00  0.00    -0.171 C  
HETATM    9  H   UNL     1      -8.684  10.954  69.235  1.00  0.00     0.000 HD 
HETATM   10  O   UNL     1      -9.138  11.554  68.655  1.00  0.00    -0.178 OA 
BRANCH   8  11
HETATM   11  C   UNL     1     -10.998   9.978  68.468  1.00  0.00    -0.209 C  
BRANCH  11  12
HETATM   12  O   UNL     1     -10.366   8.857  69.087  1.00  0.00    -0.212 OA 
BRANCH  12  13
HETATM   13  C   UNL     1     -10.508   8.657  70.437  1.00  0.00    -0.208 A  
HETATM   14  C   UNL     1     -11.855   8.752  70.837  1.00  0.00    -0.267 A  
HETATM   15  C   UNL     1     -12.253   8.472  72.144  1.00  0.00    -0.446 A  
HETATM   16  C   UNL     1     -11.310   8.038  73.064  1.00  0.00    -0.235 A  
HETATM   17  C   UNL     1      -9.975   7.911  72.679  1.00  0.00    -0.266 A  
HETATM   18  C   UNL     1      -9.537   8.259  71.379  1.00  0.00    -0.231 A  
HETATM   19  C   UNL     1      -8.083   8.027  71.065  1.00  0.00    -0.097 C  
HETATM   20  C   UNL     1      -7.167   7.960  72.275  1.00  0.00    -0.096 C  
HETATM   21  C   UNL     1      -7.752   7.175  73.405  1.00  0.00    -0.085 C  
HETATM   22  N   UNL     1      -9.096   7.336  73.603  1.00  0.00    -0.184 N  
HETATM   23  O   UNL     1      -7.063   6.526  74.187  1.00  0.00    -0.088 OA 
HETATM   24  H   UNL     1      -9.486   7.013  74.489  1.00  0.00     0.000 HD 
ENDBRANCH  12  13
ENDBRANCH  11  12
ENDBRANCH   8  11
ENDBRANCH   7   8
ENDBRANCH   5   7
TORSDOF 5
ENDMDL
MODEL      238
REMARK 921   NORMALIZED FREE ENERGY PREDICTED BY IDOCK:   -3.69 KCAL/MOL
REMARK 922        TOTAL FREE ENERGY PREDICTED BY IDOCK:   -5.40 KCAL/MOL
REMARK 923 INTER-LIGAND FREE ENERGY PREDICTED BY IDOCK:   -4.89 KCAL/MOL
REMARK 924 INTRA-LIGAND FREE ENERGY PREDICTED BY IDOCK:   -0.51 KCAL/MOL
REMARK 927      BINDING AFFINITY PREDICTED BY RF-SCORE:    0.00 PKD
ROOT
HETATM    1  C   UNL     1      -8.817   8.652  66.223  1.00  0.00    -0.187 C  
HETATM    2  C   UNL     1      -9.686   8.833  67.481  1.00  0.00    -0.167 C  
HETATM    3  C   UNL     1     -10.003   7.438  68.052  1.00  0.00    -0.195 C  
HETATM    4  C   UNL     1     -11.018   9.508  67.103  1.00  0.00    -0.019 C  
HETATM    5  N   UNL     1      -8.987   9.589  68.539  1.00  0.00    -0.127 NA 
HETATM    6  H   UNL     1      -8.200   9.049  68.900  1.00  0.00     0.000 HD 
ENDROOT
BRANCH   5   7
HETATM    7  C   UNL     1      -8.545  10.929  68.138  1.00  0.00    -0.133 C  
BRANCH   7   8
HETATM    8  C   UNL     1      -7.332  11.429  68.952  1.00  0.00    -0.114 C  
HETATM    9  H   UNL     1      -5.402  11.029  69.074  1.00  0.00     0.000 HD 
HETATM   10  O   UNL     1      -6.148  10.721  68.573  1.00  0.00    -0.044 OA 
BRANCH   8  11
HETATM   11  C   UNL     1      -7.165  12.941  68.712  1.00  0.00    -0.081 C  
BRANCH  11  12
HETATM   12  O   UNL     1      -7.572  13.276  67.385  1.00  0.00    -0.159 OA 
BRANCH  12  13
HETATM   13  C   UNL     1      -8.086  14.522  67.126  1.00  0.00    -0.168 A  
HETATM   14  C   UNL     1      -7.235  15.542  67.595  1.00  0.00    -0.203 A  
HETATM   15  C   UNL     1      -7.497  16.888  67.342  1.00  0.00    -0.187 A  
HETATM   16  C   UNL     1      -8.594  17.234  66.565  1.00  0.00    -0.298 A  
HETATM   17  C   UNL     1      -9.433  16.235  66.070  1.00  0.00    -0.334 A  
HETATM   18  C   UNL     1      -9.227  14.869  66.373  1.00  0.00    -0.317 A  
HETATM   19  C   UNL     1     -10.166  13.880  65.735  1.00  0.00    -0.331 C  
HETATM   20  C   UNL     1     -11.500  14.454  65.292  1.00  0.00    -0.350 C  
HETATM   21  C   UNL     1     -11.367  15.790  64.631  1.00  0.00    -0.337 C  
HETATM   22  N   UNL     1     -10.437  16.630  65.178  1.00  0.00    -0.192 N  
HETATM   23  O   UNL     1     -12.124  16.166  63.740  1.00  0.00    -0.946 OA 
HETATM   24  H   UNL     1     -10.477  17.615  64.917  1.00  0.00     0.000 HD 
ENDBRANCH  12  13
ENDBRANCH  11  12
ENDBRANCH   8  11
ENDBRANCH   7   8
ENDBRANCH   5   7
TORSDOF 5
ENDMDL
MODEL      239
REMARK 921   NORMALIZED FREE ENERGY PREDICTED BY IDOCK:   -3.69 KCAL/MOL
REMARK 922        TOTAL FREE ENERGY PREDICTED BY IDOCK:   -5.40 KCAL/MOL
REMARK 923 INTER-LIGAND FREE ENERGY PREDICTED BY IDOCK:   -4.95 KCAL/MOL
REMARK 924 INTRA-LIGAND FREE ENERGY PREDICTED BY IDOCK:   -0.45 KCAL/MOL
REMARK 927      BINDING AFFINITY PREDICTED BY RF-SCORE:    0.00 PKD
ROOT
HETATM    1  C   UNL     1     -10.510   4.733  70.144  1.00  0.00    -0.022 C  
HETATM    2  C   UNL     1     -10.018   6.159  70.452  1.00  0.00    -0.181 C  
HETATM    3  C   UNL     1      -9.034   6.579  69.345  1.00  0.00    -0.132 C  
HETATM    4  C   UNL     1      -9.263   6.173  71.794  1.00  0.00    -0.149 C  
HETATM    5  N   UNL     1     -11.121   7.142  70.452  1.00  0.00    -0.271 NA 
HETATM    6  H   UNL     1     -11.502   7.247  69.512  1.00  0.00     0.000 HD 
ENDROOT
BRANCH   5   7
HETATM    7  C   UNL     1     -12.195   6.852  71.409  1.00  0.00    -0.372 C  
BRANCH   7   8
HETATM    8  C   UNL     1     -13.281   7.949  71.441  1.00  0.00    -0.245 C  
HETATM    9  H   UNL     1     -15.013   8.249  72.339  1.00  0.00     0.000 HD 
HETATM   10  O   UNL     1     -14.346   7.574  72.320  1.00  0.00    -0.196 OA 
BRANCH   8  11
HETATM   11  C   UNL     1     -12.635   9.270  71.898  1.00  0.00    -0.390 C  
BRANCH  11  12
HETATM   12  O   UNL     1     -13.254  10.374  71.236  1.00  0.00    -0.374 OA 
BRANCH  12  13
HETATM   13  C   UNL     1     -12.478  11.297  70.582  1.00  0.00    -0.348 A  
HETATM   14  C   UNL     1     -11.831  10.733  69.466  1.00  0.00    -0.380 A  
HETATM   15  C   UNL     1     -11.080  11.510  68.584  1.00  0.00    -0.291 A  
HETATM   16  C   UNL     1     -11.008  12.882  68.778  1.00  0.00    -0.292 A  
HETATM   17  C   UNL     1     -11.665  13.462  69.864  1.00  0.00    -0.267 A  
HETATM   18  C   UNL     1     -12.372  12.685  70.811  1.00  0.00    -0.372 A  
HETATM   19  C   UNL     1     -13.086  13.430  71.907  1.00  0.00    -0.476 C  
HETATM   20  C   UNL     1     -12.554  14.824  72.189  1.00  0.00    -0.410 C  
HETATM   21  C   UNL     1     -12.238  15.588  70.942  1.00  0.00    -0.400 C  
HETATM   22  N   UNL     1     -11.676  14.860  69.929  1.00  0.00    -0.286 N  
HETATM   23  O   UNL     1     -12.350  16.808  70.867  1.00  0.00     0.906 OA 
HETATM   24  H   UNL     1     -11.234  15.373  69.166  1.00  0.00     0.000 HD 
ENDBRANCH  12  13
ENDBRANCH  11  12
ENDBRANCH   8  11
ENDBRANCH   7   8
ENDBRANCH   5   7
TORSDOF 5
ENDMDL
MODEL      240
REMARK 921   NORMALIZED FREE ENERGY PREDICTED BY IDOCK:   -3.68 KCAL/MOL
REMARK 922        TOTAL FREE ENERGY PREDICTED BY IDOCK:   -5.39 KCAL/MOL
REMARK 923 INTER-LIGAND FREE ENERGY PREDICTED BY IDOCK:   -5.09 KCAL/MOL
REMARK 924 INTRA-LIGAND FREE ENERGY PREDICTED BY IDOCK:   -0.30 KCAL/MOL
REMARK 927      BINDING AFFINITY PREDICTED BY RF-SCORE:    0.00 PKD
ROOT
HETATM    1  C   UNL     1      -8.733   4.479  64.551  1.00  0.00    -0.148 C  
HETATM    2  C   UNL     1      -8.428   4.446  66.059  1.00  0.00    -0.113 C  
HETATM    3  C   UNL     1      -7.080   3.732  66.264  1.00  0.00    -0.063 C  
HETATM    4  C   UNL     1      -9.514   3.638  66.794  1.00  0.00    -0.203 C  
HETATM    5  N   UNL     1      -8.295   5.801  66.631  1.00  0.00    -0.109 NA 
HETATM    6  H   UNL     1      -7.467   6.265  66.257  1.00  0.00     0.000 HD 
ENDROOT
BRANCH   5   7
HETATM    7  C   UNL     1      -9.477   6.653  66.460  1.00  0.00    -0.152 C  
BRANCH   7   8
HETATM    8  C   UNL     1      -9.274   8.079  67.016  1.00  0.00    -0.147 C  
HETATM    9  H   UNL     1      -7.776   9.175  67.689  1.00  0.00     0.000 HD 
HETATM   10  O   UNL     1      -7.900   8.297  67.347  1.00  0.00    -0.103 OA 
BRANCH   8  11
HETATM   11  C   UNL     1      -9.750   9.093  65.960  1.00  0.00    -0.287 C  
BRANCH  11  12
HETATM   12  O   UNL     1     -10.505  10.134  66.582  1.00  0.00    -0.228 OA 
BRANCH  12  13
HETATM   13  C   UNL     1     -10.537  11.383  66.015  1.00  0.00    -0.266 A  
HETATM   14  C   UNL     1     -10.695  11.315  64.618  1.00  0.00    -0.371 A  
HETATM   15  C   UNL     1     -10.868  12.462  63.843  1.00  0.00    -0.465 A  
HETATM   16  C   UNL     1     -10.939  13.700  64.466  1.00  0.00    -0.405 A  
HETATM   17  C   UNL     1     -10.811  13.784  65.853  1.00  0.00    -0.283 A  
HETATM   18  C   UNL     1     -10.564  12.642  66.651  1.00  0.00    -0.267 A  
HETATM   19  C   UNL     1     -10.500  12.852  68.141  1.00  0.00    -0.245 C  
HETATM   20  C   UNL     1     -10.182  14.271  68.577  1.00  0.00    -0.245 C  
HETATM   21  C   UNL     1     -10.910  15.303  67.775  1.00  0.00    -0.295 C  
HETATM   22  N   UNL     1     -11.033  15.035  66.439  1.00  0.00    -0.334 N  
HETATM   23  O   UNL     1     -11.265  16.379  68.247  1.00  0.00    -0.355 OA 
HETATM   24  H   UNL     1     -11.305  15.803  65.826  1.00  0.00     0.000 HD 
ENDBRANCH  12  13
ENDBRANCH  11  12
ENDBRANCH   8  11
ENDBRANCH   7   8
ENDBRANCH   5   7
TORSDOF 5
ENDMDL
MODEL      241
REMARK 921   NORMALIZED FREE ENERGY PREDICTED BY IDOCK:   -3.66 KCAL/MOL
REMARK 922        TOTAL FREE ENERGY PREDICTED BY IDOCK:   -5.36 KCAL/MOL
REMARK 923 INTER-LIGAND FREE ENERGY PREDICTED BY IDOCK:   -4.73 KCAL/MOL
REMARK 924 INTRA-LIGAND FREE ENERGY PREDICTED BY IDOCK:   -0.63 KCAL/MOL
REMARK 927      BINDING AFFINITY PREDICTED BY RF-SCORE:    0.00 PKD
ROOT
HETATM    1  C   UNL     1      -9.276  15.582  65.605  1.00  0.00    -0.085 C  
HETATM    2  C   UNL     1     -10.640  15.004  65.189  1.00  0.00    -0.418 C  
HETATM    3  C   UNL     1     -11.373  16.060  64.341  1.00  0.00    -0.253 C  
HETATM    4  C   UNL     1     -11.492  14.721  66.441  1.00  0.00    -0.319 C  
HETATM    5  N   UNL     1     -10.503  13.793  64.355  1.00  0.00    -0.609 NA 
HETATM    6  H   UNL     1     -10.088  14.028  63.453  1.00  0.00     0.000 HD 
ENDROOT
BRANCH   5   7
HETATM    7  C   UNL     1      -9.759  12.698  64.988  1.00  0.00     0.031 C  
BRANCH   7   8
HETATM    8  C   UNL     1      -9.642  11.452  64.085  1.00  0.00    -0.191 C  
HETATM    9  H   UNL     1      -8.939  11.020  62.291  1.00  0.00     0.000 HD 
HETATM   10  O   UNL     1      -9.011  11.788  62.846  1.00  0.00    -0.226 OA 
BRANCH   8  11
HETATM   11  C   UNL     1      -8.838  10.373  64.833  1.00  0.00    -0.190 C  
BRANCH  11  12
HETATM   12  O   UNL     1      -9.719   9.386  65.369  1.00  0.00    -0.280 OA 
BRANCH  12  13
HETATM   13  C   UNL     1      -9.753   9.168  66.724  1.00  0.00    -0.210 A  
HETATM   14  C   UNL     1      -8.803   8.206  67.118  1.00  0.00    -0.138 A  
HETATM   15  C   UNL     1      -8.578   7.907  68.462  1.00  0.00    -0.128 A  
HETATM   16  C   UNL     1      -9.268   8.608  69.440  1.00  0.00    -0.150 A  
HETATM   17  C   UNL     1     -10.195   9.583  69.068  1.00  0.00    -0.200 A  
HETATM   18  C   UNL     1     -10.491   9.852  67.712  1.00  0.00    -0.292 A  
HETATM   19  C   UNL     1     -11.468  10.964  67.435  1.00  0.00    -0.175 C  
HETATM   20  C   UNL     1     -12.400  11.302  68.585  1.00  0.00     0.207 C  
HETATM   21  C   UNL     1     -11.705  11.321  69.910  1.00  0.00    -0.352 C  
HETATM   22  N   UNL     1     -10.755  10.354  70.093  1.00  0.00    -0.406 N  
HETATM   23  O   UNL     1     -12.044  12.066  70.825  1.00  0.00    -0.349 OA 
HETATM   24  H   UNL     1     -10.432  10.183  71.045  1.00  0.00     0.000 HD 
ENDBRANCH  12  13
ENDBRANCH  11  12
ENDBRANCH   8  11
ENDBRANCH   7   8
ENDBRANCH   5   7
TORSDOF 5
ENDMDL
MODEL      242
REMARK 921   NORMALIZED FREE ENERGY PREDICTED BY IDOCK:   -3.65 KCAL/MOL
REMARK 922        TOTAL FREE ENERGY PREDICTED BY IDOCK:   -5.34 KCAL/MOL
REMARK 923 INTER-LIGAND FREE ENERGY PREDICTED BY IDOCK:   -4.73 KCAL/MOL
REMARK 924 INTRA-LIGAND FREE ENERGY PREDICTED BY IDOCK:   -0.62 KCAL/MOL
REMARK 927      BINDING AFFINITY PREDICTED BY RF-SCORE:    0.00 PKD
ROOT
HETATM    1  C   UNL     1     -11.622  12.241  66.557  1.00  0.00    -0.440 C  
HETATM    2  C   UNL     1     -10.445  11.866  67.475  1.00  0.00    -0.209 C  
HETATM    3  C   UNL     1      -9.268  12.808  67.160  1.00  0.00    -0.219 C  
HETATM    4  C   UNL     1      -9.993  10.423  67.182  1.00  0.00    -0.239 C  
HETATM    5  N   UNL     1     -10.773  12.042  68.904  1.00  0.00    -0.308 NA 
HETATM    6  H   UNL     1     -10.904  13.030  69.120  1.00  0.00     0.000 HD 
ENDROOT
BRANCH   5   7
HETATM    7  C   UNL     1     -11.928  11.262  69.363  1.00  0.00    -0.341 C  
BRANCH   7   8
HETATM    8  C   UNL     1     -12.044  11.211  70.902  1.00  0.00    -0.322 C  
HETATM    9  H   UNL     1     -13.348  11.762  72.278  1.00  0.00     0.000 HD 
HETATM   10  O   UNL     1     -13.278  11.794  71.332  1.00  0.00    -0.299 OA 
BRANCH   8  11
HETATM   11  C   UNL     1     -11.945   9.744  71.357  1.00  0.00    -0.411 C  
BRANCH  11  12
HETATM   12  O   UNL     1     -10.588   9.301  71.299  1.00  0.00    -0.299 OA 
BRANCH  12  13
HETATM   13  C   UNL     1     -10.305   8.032  70.858  1.00  0.00    -0.200 A  
HETATM   14  C   UNL     1     -11.478   7.316  70.552  1.00  0.00    -0.310 A  
HETATM   15  C   UNL     1     -11.431   6.045  69.978  1.00  0.00    -0.236 A  
HETATM   16  C   UNL     1     -10.202   5.491  69.652  1.00  0.00    -0.336 A  
HETATM   17  C   UNL     1      -9.030   6.198  69.924  1.00  0.00    -0.139 A  
HETATM   18  C   UNL     1      -9.050   7.456  70.570  1.00  0.00    -0.157 A  
HETATM   19  C   UNL     1      -7.726   8.147  70.760  1.00  0.00    -0.080 C  
HETATM   20  C   UNL     1      -6.514   7.232  70.733  1.00  0.00    -0.043 C  
HETATM   21  C   UNL     1      -6.593   6.195  69.658  1.00  0.00    -0.047 C  
HETATM   22  N   UNL     1      -7.832   5.655  69.446  1.00  0.00    -0.087 N  
HETATM   23  O   UNL     1      -5.599   5.758  69.085  1.00  0.00    -0.007 OA 
HETATM   24  H   UNL     1      -7.887   4.794  68.901  1.00  0.00     0.000 HD 
ENDBRANCH  12  13
ENDBRANCH  11  12
ENDBRANCH   8  11
ENDBRANCH   7   8
ENDBRANCH   5   7
TORSDOF 5
ENDMDL
MODEL      243
REMARK 921   NORMALIZED FREE ENERGY PREDICTED BY IDOCK:   -3.64 KCAL/MOL
REMARK 922        TOTAL FREE ENERGY PREDICTED BY IDOCK:   -5.33 KCAL/MOL
REMARK 923 INTER-LIGAND FREE ENERGY PREDICTED BY IDOCK:   -4.91 KCAL/MOL
REMARK 924 INTRA-LIGAND FREE ENERGY PREDICTED BY IDOCK:   -0.43 KCAL/MOL
REMARK 927      BINDING AFFINITY PREDICTED BY RF-SCORE:    0.00 PKD
ROOT
HETATM    1  C   UNL     1      -7.563   3.790  68.364  1.00  0.00    -0.061 C  
HETATM    2  C   UNL     1      -7.926   4.273  69.779  1.00  0.00    -0.056 C  
HETATM    3  C   UNL     1      -6.636   4.314  70.620  1.00  0.00    -0.031 C  
HETATM    4  C   UNL     1      -8.895   3.275  70.440  1.00  0.00    -0.148 C  
HETATM    5  N   UNL     1      -8.488   5.639  69.776  1.00  0.00    -0.106 NA 
HETATM    6  H   UNL     1      -7.778   6.315  69.496  1.00  0.00     0.000 HD 
ENDROOT
BRANCH   5   7
HETATM    7  C   UNL     1      -9.695   5.798  68.956  1.00  0.00    -0.140 C  
BRANCH   7   8
HETATM    8  C   UNL     1     -10.760   6.693  69.625  1.00  0.00    -0.260 C  
HETATM    9  H   UNL     1     -11.648   6.825  71.384  1.00  0.00     0.000 HD 
HETATM   10  O   UNL     1     -10.992   6.274  70.973  1.00  0.00    -0.256 OA 
BRANCH   8  11
HETATM   11  C   UNL     1     -10.275   8.154  69.583  1.00  0.00    -0.205 C  
BRANCH  11  12
HETATM   12  O   UNL     1     -10.634   8.755  68.338  1.00  0.00    -0.207 OA 
BRANCH  12  13
HETATM   13  C   UNL     1     -11.064  10.058  68.311  1.00  0.00    -0.190 A  
HETATM   14  C   UNL     1     -11.606  10.451  69.550  1.00  0.00    -0.288 A  
HETATM   15  C   UNL     1     -12.002  11.767  69.792  1.00  0.00    -0.392 A  
HETATM   16  C   UNL     1     -11.811  12.727  68.809  1.00  0.00    -0.346 A  
HETATM   17  C   UNL     1     -11.250  12.361  67.584  1.00  0.00    -0.288 A  
HETATM   18  C   UNL     1     -10.908  11.020  67.291  1.00  0.00    -0.335 A  
HETATM   19  C   UNL     1     -10.259  10.758  65.958  1.00  0.00    -0.310 C  
HETATM   20  C   UNL     1     -10.520  11.813  64.898  1.00  0.00    -0.334 C  
HETATM   21  C   UNL     1     -10.437  13.207  65.432  1.00  0.00    -0.296 C  
HETATM   22  N   UNL     1     -10.950  13.392  66.687  1.00  0.00    -0.285 N  
HETATM   23  O   UNL     1     -10.053  14.155  64.753  1.00  0.00    -0.374 OA 
HETATM   24  H   UNL     1     -11.128  14.349  66.990  1.00  0.00     0.000 HD 
ENDBRANCH  12  13
ENDBRANCH  11  12
ENDBRANCH   8  11
ENDBRANCH   7   8
ENDBRANCH   5   7
TORSDOF 5
ENDMDL
MODEL      244
REMARK 921   NORMALIZED FREE ENERGY PREDICTED BY IDOCK:   -3.64 KCAL/MOL
REMARK 922        TOTAL FREE ENERGY PREDICTED BY IDOCK:   -5.33 KCAL/MOL
REMARK 923 INTER-LIGAND FREE ENERGY PREDICTED BY IDOCK:   -4.84 KCAL/MOL
REMARK 924 INTRA-LIGAND FREE ENERGY PREDICTED BY IDOCK:   -0.48 KCAL/MOL
REMARK 927      BINDING AFFINITY PREDICTED BY RF-SCORE:    0.00 PKD
ROOT
HETATM    1  C   UNL     1      -6.560   6.523  71.428  1.00  0.00    -0.054 C  
HETATM    2  C   UNL     1      -7.976   7.055  71.713  1.00  0.00    -0.099 C  
HETATM    3  C   UNL     1      -8.015   7.568  73.165  1.00  0.00    -0.139 C  
HETATM    4  C   UNL     1      -9.000   5.912  71.583  1.00  0.00    -0.142 C  
HETATM    5  N   UNL     1      -8.332   8.191  70.840  1.00  0.00    -0.116 NA 
HETATM    6  H   UNL     1      -7.752   9.002  71.057  1.00  0.00     0.000 HD 
ENDROOT
BRANCH   5   7
HETATM    7  C   UNL     1      -8.276   7.895  69.404  1.00  0.00    -0.130 C  
BRANCH   7   8
HETATM    8  C   UNL     1      -9.585   8.254  68.667  1.00  0.00    -0.149 C  
HETATM    9  H   UNL     1     -10.925   7.324  67.554  1.00  0.00     0.000 HD 
HETATM   10  O   UNL     1     -10.120   7.103  68.007  1.00  0.00    -0.156 OA 
BRANCH   8  11
HETATM   11  C   UNL     1     -10.590   8.814  69.690  1.00  0.00    -0.219 C  
BRANCH  11  12
HETATM   12  O   UNL     1     -11.513   9.691  69.043  1.00  0.00     0.016 OA 
BRANCH  12  13
HETATM   13  C   UNL     1     -11.383  11.048  69.194  1.00  0.00    -0.280 A  
HETATM   14  C   UNL     1     -10.543  11.602  68.208  1.00  0.00    -0.232 A  
HETATM   15  C   UNL     1     -10.355  12.979  68.095  1.00  0.00    -0.244 A  
HETATM   16  C   UNL     1     -11.050  13.833  68.939  1.00  0.00    -0.300 A  
HETATM   17  C   UNL     1     -11.908  13.303  69.905  1.00  0.00    -0.310 A  
HETATM   18  C   UNL     1     -12.059  11.908  70.085  1.00  0.00    -0.382 A  
HETATM   19  C   UNL     1     -13.054  11.458  71.121  1.00  0.00    -0.216 C  
HETATM   20  C   UNL     1     -13.378  12.487  72.190  1.00  0.00    -0.540 C  
HETATM   21  C   UNL     1     -13.548  13.866  71.637  1.00  0.00    -0.336 C  
HETATM   22  N   UNL     1     -12.689  14.210  70.630  1.00  0.00    -0.333 N  
HETATM   23  O   UNL     1     -14.317  14.687  72.130  1.00  0.00    -0.485 OA 
HETATM   24  H   UNL     1     -12.611  15.198  70.391  1.00  0.00     0.000 HD 
ENDBRANCH  12  13
ENDBRANCH  11  12
ENDBRANCH   8  11
ENDBRANCH   7   8
ENDBRANCH   5   7
TORSDOF 5
ENDMDL
MODEL      245
REMARK 921   NORMALIZED FREE ENERGY PREDICTED BY IDOCK:   -3.64 KCAL/MOL
REMARK 922        TOTAL FREE ENERGY PREDICTED BY IDOCK:   -5.33 KCAL/MOL
REMARK 923 INTER-LIGAND FREE ENERGY PREDICTED BY IDOCK:   -4.89 KCAL/MOL
REMARK 924 INTRA-LIGAND FREE ENERGY PREDICTED BY IDOCK:   -0.43 KCAL/MOL
REMARK 927      BINDING AFFINITY PREDICTED BY RF-SCORE:    0.00 PKD
ROOT
HETATM    1  C   UNL     1      -6.436   3.233  71.374  1.00  0.00    -0.019 C  
HETATM    2  C   UNL     1      -7.223   3.606  72.642  1.00  0.00    -0.049 C  
HETATM    3  C   UNL     1      -6.216   3.837  73.784  1.00  0.00    -0.024 C  
HETATM    4  C   UNL     1      -8.145   2.440  73.047  1.00  0.00    -0.058 C  
HETATM    5  N   UNL     1      -7.990   4.857  72.477  1.00  0.00    -0.093 NA 
HETATM    6  H   UNL     1      -7.357   5.651  72.379  1.00  0.00     0.000 HD 
ENDROOT
BRANCH   5   7
HETATM    7  C   UNL     1      -8.957   4.837  71.373  1.00  0.00    -0.133 C  
BRANCH   7   8
HETATM    8  C   UNL     1     -10.335   5.404  71.775  1.00  0.00    -0.212 C  
HETATM    9  H   UNL     1     -11.892   4.817  72.839  1.00  0.00     0.000 HD 
HETATM   10  O   UNL     1     -11.044   4.467  72.592  1.00  0.00    -0.124 OA 
BRANCH   8  11
HETATM   11  C   UNL     1     -10.125   6.733  72.523  1.00  0.00    -0.172 C  
BRANCH  11  12
HETATM   12  O   UNL     1      -9.905   7.792  71.592  1.00  0.00    -0.160 OA 
BRANCH  12  13
HETATM   13  C   UNL     1     -10.890   8.722  71.374  1.00  0.00    -0.289 A  
HETATM   14  C   UNL     1     -11.973   8.547  72.258  1.00  0.00    -0.454 A  
HETATM   15  C   UNL     1     -13.038   9.446  72.298  1.00  0.00    -0.509 A  
HETATM   16  C   UNL     1     -13.012  10.570  71.484  1.00  0.00    -0.565 A  
HETATM   17  C   UNL     1     -11.935  10.773  70.621  1.00  0.00    -0.367 A  
HETATM   18  C   UNL     1     -10.878   9.839  70.512  1.00  0.00    -0.387 A  
HETATM   19  C   UNL     1      -9.745  10.195  69.587  1.00  0.00    -0.250 C  
HETATM   20  C   UNL     1     -10.090  11.208  68.509  1.00  0.00    -0.208 C  
HETATM   21  C   UNL     1     -10.932  12.334  69.018  1.00  0.00    -0.201 C  
HETATM   22  N   UNL     1     -11.892  11.990  69.931  1.00  0.00    -0.373 N  
HETATM   23  O   UNL     1     -10.863  13.472  68.562  1.00  0.00    -0.248 OA 
HETATM   24  H   UNL     1     -12.629  12.668  70.122  1.00  0.00     0.000 HD 
ENDBRANCH  12  13
ENDBRANCH  11  12
ENDBRANCH   8  11
ENDBRANCH   7   8
ENDBRANCH   5   7
TORSDOF 5
ENDMDL
MODEL      246
REMARK 921   NORMALIZED FREE ENERGY PREDICTED BY IDOCK:   -3.63 KCAL/MOL
REMARK 922        TOTAL FREE ENERGY PREDICTED BY IDOCK:   -5.32 KCAL/MOL
REMARK 923 INTER-LIGAND FREE ENERGY PREDICTED BY IDOCK:   -4.38 KCAL/MOL
REMARK 924 INTRA-LIGAND FREE ENERGY PREDICTED BY IDOCK:   -0.94 KCAL/MOL
REMARK 927      BINDING AFFINITY PREDICTED BY RF-SCORE:    0.00 PKD
ROOT
HETATM    1  C   UNL     1      -6.905  10.142  68.892  1.00  0.00    -0.054 C  
HETATM    2  C   UNL     1      -8.255   9.431  68.690  1.00  0.00    -0.112 C  
HETATM    3  C   UNL     1      -9.137  10.318  67.791  1.00  0.00    -0.138 C  
HETATM    4  C   UNL     1      -8.967   9.267  70.046  1.00  0.00    -0.216 C  
HETATM    5  N   UNL     1      -8.105   8.131  68.006  1.00  0.00    -0.127 NA 
HETATM    6  H   UNL     1      -7.792   8.269  67.045  1.00  0.00     0.000 HD 
ENDROOT
BRANCH   5   7
HETATM    7  C   UNL     1      -7.229   7.178  68.697  1.00  0.00    -0.094 C  
BRANCH   7   8
HETATM    8  C   UNL     1      -7.697   5.715  68.546  1.00  0.00    -0.089 C  
HETATM    9  H   UNL     1      -7.205   3.950  69.283  1.00  0.00     0.000 HD 
HETATM   10  O   UNL     1      -6.916   4.850  69.376  1.00  0.00    -0.051 OA 
BRANCH   8  11
HETATM   11  C   UNL     1      -9.188   5.632  68.922  1.00  0.00    -0.119 C  
BRANCH  11  12
HETATM   12  O   UNL     1      -9.337   5.058  70.221  1.00  0.00    -0.138 OA 
BRANCH  12  13
HETATM   13  C   UNL     1      -9.690   5.855  71.281  1.00  0.00    -0.173 A  
HETATM   14  C   UNL     1      -8.606   6.071  72.152  1.00  0.00    -0.128 A  
HETATM   15  C   UNL     1      -8.699   6.942  73.237  1.00  0.00    -0.145 A  
HETATM   16  C   UNL     1      -9.872   7.657  73.436  1.00  0.00    -0.362 A  
HETATM   17  C   UNL     1     -10.948   7.476  72.567  1.00  0.00    -0.313 A  
HETATM   18  C   UNL     1     -10.900   6.545  71.503  1.00  0.00    -0.288 A  
HETATM   19  C   UNL     1     -12.103   6.480  70.600  1.00  0.00    -0.265 C  
HETATM   20  C   UNL     1     -13.393   7.000  71.209  1.00  0.00    -0.282 C  
HETATM   21  C   UNL     1     -13.200   8.258  71.994  1.00  0.00    -0.319 C  
HETATM   22  N   UNL     1     -12.049   8.325  72.730  1.00  0.00    -0.560 N  
HETATM   23  O   UNL     1     -14.066   9.124  72.080  1.00  0.00    -0.407 OA 
HETATM   24  H   UNL     1     -11.989   9.044  73.451  1.00  0.00     0.000 HD 
ENDBRANCH  12  13
ENDBRANCH  11  12
ENDBRANCH   8  11
ENDBRANCH   7   8
ENDBRANCH   5   7
TORSDOF 5
ENDMDL
MODEL      247
REMARK 921   NORMALIZED FREE ENERGY PREDICTED BY IDOCK:   -3.63 KCAL/MOL
REMARK 922        TOTAL FREE ENERGY PREDICTED BY IDOCK:   -5.31 KCAL/MOL
REMARK 923 INTER-LIGAND FREE ENERGY PREDICTED BY IDOCK:   -4.95 KCAL/MOL
REMARK 924 INTRA-LIGAND FREE ENERGY PREDICTED BY IDOCK:   -0.37 KCAL/MOL
REMARK 927      BINDING AFFINITY PREDICTED BY RF-SCORE:    0.00 PKD
ROOT
HETATM    1  C   UNL     1      -6.889  10.128  64.678  1.00  0.00    -0.117 C  
HETATM    2  C   UNL     1      -8.161   9.783  63.882  1.00  0.00    -0.150 C  
HETATM    3  C   UNL     1      -7.737   9.087  62.575  1.00  0.00    -0.119 C  
HETATM    4  C   UNL     1      -8.912  11.076  63.512  1.00  0.00    -0.112 C  
HETATM    5  N   UNL     1      -9.040   8.847  64.611  1.00  0.00    -0.430 NA 
HETATM    6  H   UNL     1      -8.591   7.935  64.699  1.00  0.00     0.000 HD 
ENDROOT
BRANCH   5   7
HETATM    7  C   UNL     1      -9.484   9.326  65.924  1.00  0.00    -0.259 C  
BRANCH   7   8
HETATM    8  C   UNL     1      -9.529   8.208  66.987  1.00  0.00    -0.177 C  
HETATM    9  H   UNL     1      -8.234   7.174  68.061  1.00  0.00     0.000 HD 
HETATM   10  O   UNL     1      -8.206   7.862  67.407  1.00  0.00    -0.120 OA 
BRANCH   8  11
HETATM   11  C   UNL     1     -10.371   8.694  68.181  1.00  0.00    -0.216 C  
BRANCH  11  12
HETATM   12  O   UNL     1     -10.981   7.582  68.838  1.00  0.00    -0.091 OA 
BRANCH  12  13
HETATM   13  C   UNL     1     -11.093   7.578  70.205  1.00  0.00    -0.248 A  
HETATM   14  C   UNL     1     -11.646   8.781  70.684  1.00  0.00    -0.236 A  
HETATM   15  C   UNL     1     -11.959   8.959  72.032  1.00  0.00    -0.439 A  
HETATM   16  C   UNL     1     -11.771   7.908  72.918  1.00  0.00    -0.239 A  
HETATM   17  C   UNL     1     -11.248   6.699  72.457  1.00  0.00    -0.266 A  
HETATM   18  C   UNL     1     -10.857   6.521  71.109  1.00  0.00    -0.296 A  
HETATM   19  C   UNL     1     -10.359   5.155  70.719  1.00  0.00    -0.294 C  
HETATM   20  C   UNL     1      -9.840   4.308  71.868  1.00  0.00    -0.248 C  
HETATM   21  C   UNL     1     -10.699   4.396  73.089  1.00  0.00    -0.220 C  
HETATM   22  N   UNL     1     -11.214   5.633  73.362  1.00  0.00    -0.472 N  
HETATM   23  O   UNL     1     -10.836   3.459  73.871  1.00  0.00    -0.200 OA 
HETATM   24  H   UNL     1     -11.600   5.790  74.293  1.00  0.00     0.000 HD 
ENDBRANCH  12  13
ENDBRANCH  11  12
ENDBRANCH   8  11
ENDBRANCH   7   8
ENDBRANCH   5   7
TORSDOF 5
ENDMDL
MODEL      248
REMARK 921   NORMALIZED FREE ENERGY PREDICTED BY IDOCK:   -3.62 KCAL/MOL
REMARK 922        TOTAL FREE ENERGY PREDICTED BY IDOCK:   -5.30 KCAL/MOL
REMARK 923 INTER-LIGAND FREE ENERGY PREDICTED BY IDOCK:   -4.56 KCAL/MOL
REMARK 924 INTRA-LIGAND FREE ENERGY PREDICTED BY IDOCK:   -0.75 KCAL/MOL
REMARK 927      BINDING AFFINITY PREDICTED BY RF-SCORE:    0.00 PKD
ROOT
HETATM    1  C   UNL     1     -11.802  13.390  66.811  1.00  0.00    -0.452 C  
HETATM    2  C   UNL     1     -11.359  13.795  68.228  1.00  0.00    -0.285 C  
HETATM    3  C   UNL     1     -11.764  15.263  68.458  1.00  0.00    -0.352 C  
HETATM    4  C   UNL     1      -9.827  13.697  68.344  1.00  0.00    -0.223 C  
HETATM    5  N   UNL     1     -12.025  12.990  69.272  1.00  0.00    -0.302 NA 
HETATM    6  H   UNL     1     -13.024  13.194  69.295  1.00  0.00     0.000 HD 
ENDROOT
BRANCH   5   7
HETATM    7  C   UNL     1     -11.803  11.544  69.160  1.00  0.00    -0.340 C  
BRANCH   7   8
HETATM    8  C   UNL     1     -11.892  10.817  70.519  1.00  0.00    -0.356 C  
HETATM    9  H   UNL     1     -13.309  10.077  71.678  1.00  0.00     0.000 HD 
HETATM   10  O   UNL     1     -13.255  10.525  70.842  1.00  0.00    -0.353 OA 
BRANCH   8  11
HETATM   11  C   UNL     1     -11.059   9.524  70.444  1.00  0.00    -0.277 C  
BRANCH  11  12
HETATM   12  O   UNL     1      -9.692   9.836  70.175  1.00  0.00    -0.242 OA 
BRANCH  12  13
HETATM   13  C   UNL     1      -8.949   9.002  69.377  1.00  0.00    -0.145 A  
HETATM   14  C   UNL     1      -8.676   7.778  70.017  1.00  0.00    -0.141 A  
HETATM   15  C   UNL     1      -8.034   6.732  69.354  1.00  0.00    -0.115 A  
HETATM   16  C   UNL     1      -7.699   6.878  68.016  1.00  0.00    -0.113 A  
HETATM   17  C   UNL     1      -7.984   8.075  67.358  1.00  0.00    -0.122 A  
HETATM   18  C   UNL     1      -8.570   9.174  68.029  1.00  0.00    -0.125 A  
HETATM   19  C   UNL     1      -8.882  10.391  67.200  1.00  0.00    -0.141 C  
HETATM   20  C   UNL     1      -8.081  10.516  65.915  1.00  0.00    -0.154 C  
HETATM   21  C   UNL     1      -7.942   9.216  65.189  1.00  0.00    -0.117 C  
HETATM   22  N   UNL     1      -7.755   8.114  65.978  1.00  0.00    -0.088 N  
HETATM   23  O   UNL     1      -7.871   9.145  63.965  1.00  0.00    -0.116 OA 
HETATM   24  H   UNL     1      -7.424   7.260  65.529  1.00  0.00     0.000 HD 
ENDBRANCH  12  13
ENDBRANCH  11  12
ENDBRANCH   8  11
ENDBRANCH   7   8
ENDBRANCH   5   7
TORSDOF 5
ENDMDL
MODEL      249
REMARK 921   NORMALIZED FREE ENERGY PREDICTED BY IDOCK:   -3.61 KCAL/MOL
REMARK 922        TOTAL FREE ENERGY PREDICTED BY IDOCK:   -5.29 KCAL/MOL
REMARK 923 INTER-LIGAND FREE ENERGY PREDICTED BY IDOCK:   -4.86 KCAL/MOL
REMARK 924 INTRA-LIGAND FREE ENERGY PREDICTED BY IDOCK:   -0.43 KCAL/MOL
REMARK 927      BINDING AFFINITY PREDICTED BY RF-SCORE:    0.00 PKD
ROOT
HETATM    1  C   UNL     1     -11.804  12.610  66.697  1.00  0.00    -0.449 C  
HETATM    2  C   UNL     1     -10.682  11.935  67.506  1.00  0.00    -0.225 C  
HETATM    3  C   UNL     1      -9.366  12.684  67.225  1.00  0.00    -0.195 C  
HETATM    4  C   UNL     1     -10.510  10.476  67.043  1.00  0.00    -0.304 C  
HETATM    5  N   UNL     1     -10.922  12.007  68.962  1.00  0.00    -0.294 NA 
HETATM    6  H   UNL     1     -10.864  12.973  69.284  1.00  0.00     0.000 HD 
ENDROOT
BRANCH   5   7
HETATM    7  C   UNL     1     -12.182  11.397  69.401  1.00  0.00    -0.221 C  
BRANCH   7   8
HETATM    8  C   UNL     1     -12.182  11.037  70.903  1.00  0.00    -0.367 C  
HETATM    9  H   UNL     1     -13.360  11.317  72.463  1.00  0.00     0.000 HD 
HETATM   10  O   UNL     1     -13.360  11.539  71.539  1.00  0.00    -0.284 OA 
BRANCH   8  11
HETATM   11  C   UNL     1     -12.095   9.506  71.044  1.00  0.00    -0.318 C  
BRANCH  11  12
HETATM   12  O   UNL     1     -11.239   9.161  72.134  1.00  0.00    -0.326 OA 
BRANCH  12  13
HETATM   13  C   UNL     1     -10.219   8.264  71.939  1.00  0.00    -0.245 A  
HETATM   14  C   UNL     1      -9.044   8.902  71.495  1.00  0.00    -0.299 A  
HETATM   15  C   UNL     1      -7.846   8.205  71.341  1.00  0.00    -0.110 A  
HETATM   16  C   UNL     1      -7.791   6.861  71.680  1.00  0.00    -0.100 A  
HETATM   17  C   UNL     1      -8.939   6.218  72.146  1.00  0.00    -0.137 A  
HETATM   18  C   UNL     1     -10.181   6.887  72.243  1.00  0.00    -0.207 A  
HETATM   19  C   UNL     1     -11.334   6.103  72.812  1.00  0.00    -0.259 C  
HETATM   20  C   UNL     1     -11.193   4.594  72.722  1.00  0.00    -0.174 C  
HETATM   21  C   UNL     1      -9.815   4.118  73.058  1.00  0.00    -0.133 C  
HETATM   22  N   UNL     1      -8.791   4.905  72.607  1.00  0.00    -0.121 N  
HETATM   23  O   UNL     1      -9.601   3.033  73.591  1.00  0.00    -0.093 OA 
HETATM   24  H   UNL     1      -7.852   4.506  72.606  1.00  0.00     0.000 HD 
ENDBRANCH  12  13
ENDBRANCH  11  12
ENDBRANCH   8  11
ENDBRANCH   7   8
ENDBRANCH   5   7
TORSDOF 5
ENDMDL
MODEL      250
REMARK 921   NORMALIZED FREE ENERGY PREDICTED BY IDOCK:   -3.61 KCAL/MOL
REMARK 922        TOTAL FREE ENERGY PREDICTED BY IDOCK:   -5.29 KCAL/MOL
REMARK 923 INTER-LIGAND FREE ENERGY PREDICTED BY IDOCK:   -3.95 KCAL/MOL
REMARK 924 INTRA-LIGAND FREE ENERGY PREDICTED BY IDOCK:   -1.35 KCAL/MOL
REMARK 927      BINDING AFFINITY PREDICTED BY RF-SCORE:    0.00 PKD
ROOT
HETATM    1  C   UNL     1      -9.934   5.266  67.116  1.00  0.00    -0.211 C  
HETATM    2  C   UNL     1      -9.495   6.710  67.413  1.00  0.00    -0.129 C  
HETATM    3  C   UNL     1      -9.237   6.834  68.926  1.00  0.00    -0.131 C  
HETATM    4  C   UNL     1     -10.625   7.688  67.040  1.00  0.00    -0.406 C  
HETATM    5  N   UNL     1      -8.236   7.064  66.726  1.00  0.00    -0.109 NA 
HETATM    6  H   UNL     1      -7.460   6.523  67.107  1.00  0.00     0.000 HD 
ENDROOT
BRANCH   5   7
HETATM    7  C   UNL     1      -8.283   6.932  65.266  1.00  0.00    -0.129 C  
BRANCH   7   8
HETATM    8  C   UNL     1      -7.569   8.090  64.536  1.00  0.00    -0.114 C  
HETATM    9  H   UNL     1      -6.497   8.331  62.895  1.00  0.00     0.000 HD 
HETATM   10  O   UNL     1      -6.935   7.617  63.344  1.00  0.00    -0.061 OA 
BRANCH   8  11
HETATM   11  C   UNL     1      -8.605   9.181  64.208  1.00  0.00    -0.175 C  
BRANCH  11  12
HETATM   12  O   UNL     1      -8.232  10.415  64.824  1.00  0.00    -0.163 OA 
BRANCH  12  13
HETATM   13  C   UNL     1      -8.803  10.779  66.017  1.00  0.00    -0.180 A  
HETATM   14  C   UNL     1     -10.112  11.266  65.839  1.00  0.00    -0.291 A  
HETATM   15  C   UNL     1     -10.928  11.588  66.924  1.00  0.00    -0.350 A  
HETATM   16  C   UNL     1     -10.461  11.377  68.213  1.00  0.00    -0.221 A  
HETATM   17  C   UNL     1      -9.175  10.871  68.409  1.00  0.00    -0.168 A  
HETATM   18  C   UNL     1      -8.305  10.604  67.326  1.00  0.00    -0.120 A  
HETATM   19  C   UNL     1      -6.964  10.007  67.660  1.00  0.00    -0.085 C  
HETATM   20  C   UNL     1      -6.491  10.245  69.083  1.00  0.00    -0.050 C  
HETATM   21  C   UNL     1      -7.581  10.077  70.093  1.00  0.00    -0.155 C  
HETATM   22  N   UNL     1      -8.812  10.545  69.720  1.00  0.00    -0.378 N  
HETATM   23  O   UNL     1      -7.372   9.665  71.231  1.00  0.00    -0.322 OA 
HETATM   24  H   UNL     1      -9.514  10.665  70.450  1.00  0.00     0.000 HD 
ENDBRANCH  12  13
ENDBRANCH  11  12
ENDBRANCH   8  11
ENDBRANCH   7   8
ENDBRANCH   5   7
TORSDOF 5
ENDMDL
MODEL      251
REMARK 921   NORMALIZED FREE ENERGY PREDICTED BY IDOCK:   -3.61 KCAL/MOL
REMARK 922        TOTAL FREE ENERGY PREDICTED BY IDOCK:   -5.29 KCAL/MOL
REMARK 923 INTER-LIGAND FREE ENERGY PREDICTED BY IDOCK:   -5.18 KCAL/MOL
REMARK 924 INTRA-LIGAND FREE ENERGY PREDICTED BY IDOCK:   -0.11 KCAL/MOL
REMARK 927      BINDING AFFINITY PREDICTED BY RF-SCORE:    0.00 PKD
ROOT
HETATM    1  C   UNL     1      -7.280  15.309  67.317  1.00  0.00    -0.213 C  
HETATM    2  C   UNL     1      -7.472  15.163  68.837  1.00  0.00    -0.143 C  
HETATM    3  C   UNL     1      -8.801  15.839  69.222  1.00  0.00    -0.262 C  
HETATM    4  C   UNL     1      -6.334  15.888  69.579  1.00  0.00    -0.173 C  
HETATM    5  N   UNL     1      -7.564  13.749  69.255  1.00  0.00    -0.330 NA 
HETATM    6  H   UNL     1      -8.418  13.327  68.891  1.00  0.00     0.000 HD 
ENDROOT
BRANCH   5   7
HETATM    7  C   UNL     1      -6.399  12.932  68.899  1.00  0.00    -0.090 C  
BRANCH   7   8
HETATM    8  C   UNL     1      -5.977  11.967  70.027  1.00  0.00    -0.159 C  
HETATM    9  H   UNL     1      -5.737  12.040  71.986  1.00  0.00     0.000 HD 
HETATM   10  O   UNL     1      -5.997  12.635  71.292  1.00  0.00    -0.259 OA 
BRANCH   8  11
HETATM   11  C   UNL     1      -6.935  10.762  70.031  1.00  0.00    -0.084 C  
BRANCH  11  12
HETATM   12  O   UNL     1      -7.794  10.813  68.890  1.00  0.00    -0.118 OA 
BRANCH  12  13
HETATM   13  C   UNL     1      -9.155  10.841  69.064  1.00  0.00    -0.143 A  
HETATM   14  C   UNL     1      -9.781  11.678  68.121  1.00  0.00    -0.189 A  
HETATM   15  C   UNL     1     -11.170  11.773  68.033  1.00  0.00    -0.324 A  
HETATM   16  C   UNL     1     -11.959  10.986  68.859  1.00  0.00    -0.332 A  
HETATM   17  C   UNL     1     -11.355  10.131  69.783  1.00  0.00    -0.256 A  
HETATM   18  C   UNL     1      -9.951  10.072  69.938  1.00  0.00    -0.280 A  
HETATM   19  C   UNL     1      -9.416   9.071  70.927  1.00  0.00    -0.331 C  
HETATM   20  C   UNL     1     -10.402   8.633  71.996  1.00  0.00    -0.416 C  
HETATM   21  C   UNL     1     -11.775   8.388  71.454  1.00  0.00    -0.287 C  
HETATM   22  N   UNL     1     -12.194   9.260  70.487  1.00  0.00    -0.483 N  
HETATM   23  O   UNL     1     -12.532   7.544  71.926  1.00  0.00    -0.306 OA 
HETATM   24  H   UNL     1     -13.189   9.276  70.264  1.00  0.00     0.000 HD 
ENDBRANCH  12  13
ENDBRANCH  11  12
ENDBRANCH   8  11
ENDBRANCH   7   8
ENDBRANCH   5   7
TORSDOF 5
ENDMDL
MODEL      252
REMARK 921   NORMALIZED FREE ENERGY PREDICTED BY IDOCK:   -3.59 KCAL/MOL
REMARK 922        TOTAL FREE ENERGY PREDICTED BY IDOCK:   -5.27 KCAL/MOL
REMARK 923 INTER-LIGAND FREE ENERGY PREDICTED BY IDOCK:   -4.73 KCAL/MOL
REMARK 924 INTRA-LIGAND FREE ENERGY PREDICTED BY IDOCK:   -0.54 KCAL/MOL
REMARK 927      BINDING AFFINITY PREDICTED BY RF-SCORE:    0.00 PKD
ROOT
HETATM    1  C   UNL     1     -10.802  12.632  64.680  1.00  0.00    -0.349 C  
HETATM    2  C   UNL     1     -11.047  13.713  65.749  1.00  0.00    -0.287 C  
HETATM    3  C   UNL     1     -11.596  14.969  65.048  1.00  0.00    -0.332 C  
HETATM    4  C   UNL     1      -9.716  14.087  66.427  1.00  0.00    -0.309 C  
HETATM    5  N   UNL     1     -12.053  13.294  66.746  1.00  0.00    -0.373 NA 
HETATM    6  H   UNL     1     -12.972  13.214  66.311  1.00  0.00     0.000 HD 
ENDROOT
BRANCH   5   7
HETATM    7  C   UNL     1     -11.720  12.060  67.466  1.00  0.00    -0.280 C  
BRANCH   7   8
HETATM    8  C   UNL     1     -11.240  12.319  68.910  1.00  0.00    -0.273 C  
HETATM    9  H   UNL     1     -11.435  13.736  70.271  1.00  0.00     0.000 HD 
HETATM   10  O   UNL     1     -11.730  13.577  69.383  1.00  0.00    -0.286 OA 
BRANCH   8  11
HETATM   11  C   UNL     1     -11.733  11.169  69.808  1.00  0.00    -0.345 C  
BRANCH  11  12
HETATM   12  O   UNL     1     -10.630  10.360  70.219  1.00  0.00    -0.262 OA 
BRANCH  12  13
HETATM   13  C   UNL     1     -10.304   9.238  69.499  1.00  0.00    -0.216 A  
HETATM   14  C   UNL     1     -11.043   8.117  69.921  1.00  0.00    -0.102 A  
HETATM   15  C   UNL     1     -10.962   6.893  69.256  1.00  0.00    -0.260 A  
HETATM   16  C   UNL     1     -10.173   6.787  68.120  1.00  0.00    -0.198 A  
HETATM   17  C   UNL     1      -9.453   7.895  67.671  1.00  0.00    -0.144 A  
HETATM   18  C   UNL     1      -9.465   9.125  68.370  1.00  0.00    -0.150 A  
HETATM   19  C   UNL     1      -8.693  10.264  67.758  1.00  0.00    -0.121 C  
HETATM   20  C   UNL     1      -7.595   9.852  66.794  1.00  0.00    -0.095 C  
HETATM   21  C   UNL     1      -8.009   8.743  65.881  1.00  0.00    -0.104 C  
HETATM   22  N   UNL     1      -8.790   7.772  66.445  1.00  0.00    -0.148 N  
HETATM   23  O   UNL     1      -7.581   8.633  64.735  1.00  0.00    -0.093 OA 
HETATM   24  H   UNL     1      -8.897   6.894  65.936  1.00  0.00     0.000 HD 
ENDBRANCH  12  13
ENDBRANCH  11  12
ENDBRANCH   8  11
ENDBRANCH   7   8
ENDBRANCH   5   7
TORSDOF 5
ENDMDL
MODEL      253
REMARK 921   NORMALIZED FREE ENERGY PREDICTED BY IDOCK:   -3.58 KCAL/MOL
REMARK 922        TOTAL FREE ENERGY PREDICTED BY IDOCK:   -5.26 KCAL/MOL
REMARK 923 INTER-LIGAND FREE ENERGY PREDICTED BY IDOCK:   -4.85 KCAL/MOL
REMARK 924 INTRA-LIGAND FREE ENERGY PREDICTED BY IDOCK:   -0.41 KCAL/MOL
REMARK 927      BINDING AFFINITY PREDICTED BY RF-SCORE:    0.00 PKD
ROOT
HETATM    1  C   UNL     1      -7.872  18.833  68.492  1.00  0.00    -0.367 C  
HETATM    2  C   UNL     1      -9.241  19.330  67.996  1.00  0.00    -0.321 C  
HETATM    3  C   UNL     1      -9.082  20.785  67.518  1.00  0.00    -0.280 C  
HETATM    4  C   UNL     1     -10.254  19.317  69.157  1.00  0.00    -0.188 C  
HETATM    5  N   UNL     1      -9.738  18.546  66.847  1.00  0.00    -0.308 NA 
HETATM    6  H   UNL     1      -9.147  18.700  66.030  1.00  0.00     0.000 HD 
ENDROOT
BRANCH   5   7
HETATM    7  C   UNL     1      -9.883  17.110  67.108  1.00  0.00    -0.271 C  
BRANCH   7   8
HETATM    8  C   UNL     1      -9.067  16.238  66.129  1.00  0.00    -0.341 C  
HETATM    9  H   UNL     1      -7.383  16.388  65.110  1.00  0.00     0.000 HD 
HETATM   10  O   UNL     1      -7.884  16.925  65.711  1.00  0.00    -0.328 OA 
BRANCH   8  11
HETATM   11  C   UNL     1      -8.710  14.913  66.828  1.00  0.00    -0.246 C  
BRANCH  11  12
HETATM   12  O   UNL     1      -9.899  14.251  67.264  1.00  0.00    -0.237 OA 
BRANCH  12  13
HETATM   13  C   UNL     1     -10.185  12.992  66.799  1.00  0.00    -0.246 A  
HETATM   14  C   UNL     1     -11.023  13.034  65.669  1.00  0.00    -0.296 A  
HETATM   15  C   UNL     1     -11.354  11.880  64.958  1.00  0.00    -0.333 A  
HETATM   16  C   UNL     1     -10.804  10.665  65.339  1.00  0.00     0.005 A  
HETATM   17  C   UNL     1      -9.950  10.608  66.442  1.00  0.00    -0.222 A  
HETATM   18  C   UNL     1      -9.658  11.753  67.220  1.00  0.00    -0.182 A  
HETATM   19  C   UNL     1      -8.680  11.577  68.351  1.00  0.00    -0.160 C  
HETATM   20  C   UNL     1      -8.531  10.153  68.856  1.00  0.00    -0.139 C  
HETATM   21  C   UNL     1      -8.481   9.146  67.751  1.00  0.00    -0.117 C  
HETATM   22  N   UNL     1      -9.315   9.387  66.693  1.00  0.00    -0.154 N  
HETATM   23  O   UNL     1      -7.835   8.105  67.832  1.00  0.00    -0.117 OA 
HETATM   24  H   UNL     1      -9.486   8.621  66.041  1.00  0.00     0.000 HD 
ENDBRANCH  12  13
ENDBRANCH  11  12
ENDBRANCH   8  11
ENDBRANCH   7   8
ENDBRANCH   5   7
TORSDOF 5
ENDMDL
MODEL      254
REMARK 921   NORMALIZED FREE ENERGY PREDICTED BY IDOCK:   -3.57 KCAL/MOL
REMARK 922        TOTAL FREE ENERGY PREDICTED BY IDOCK:   -5.25 KCAL/MOL
REMARK 923 INTER-LIGAND FREE ENERGY PREDICTED BY IDOCK:   -4.63 KCAL/MOL
REMARK 924 INTRA-LIGAND FREE ENERGY PREDICTED BY IDOCK:   -0.62 KCAL/MOL
REMARK 927      BINDING AFFINITY PREDICTED BY RF-SCORE:    0.00 PKD
ROOT
HETATM    1  C   UNL     1      -7.073  11.137  66.840  1.00  0.00    -0.131 C  
HETATM    2  C   UNL     1      -7.087  11.720  68.264  1.00  0.00    -0.079 C  
HETATM    3  C   UNL     1      -6.460  13.125  68.216  1.00  0.00    -0.096 C  
HETATM    4  C   UNL     1      -6.226  10.844  69.195  1.00  0.00    -0.047 C  
HETATM    5  N   UNL     1      -8.457  11.871  68.793  1.00  0.00    -0.352 NA 
HETATM    6  H   UNL     1      -8.964  12.583  68.267  1.00  0.00     0.000 HD 
ENDROOT
BRANCH   5   7
HETATM    7  C   UNL     1      -9.232  10.626  68.841  1.00  0.00    -0.183 C  
BRANCH   7   8
HETATM    8  C   UNL     1     -10.748  10.869  69.002  1.00  0.00    -0.224 C  
HETATM    9  H   UNL     1     -12.416  10.243  68.151  1.00  0.00     0.000 HD 
HETATM   10  O   UNL     1     -11.484  10.093  68.051  1.00  0.00    -0.256 OA 
BRANCH   8  11
HETATM   11  C   UNL     1     -11.158  10.502  70.440  1.00  0.00    -0.244 C  
BRANCH  11  12
HETATM   12  O   UNL     1     -11.826   9.240  70.454  1.00  0.00    -0.191 OA 
BRANCH  12  13
HETATM   13  C   UNL     1     -11.241   8.167  71.079  1.00  0.00    -0.258 A  
HETATM   14  C   UNL     1     -11.324   8.274  72.481  1.00  0.00    -0.455 A  
HETATM   15  C   UNL     1     -10.898   7.245  73.320  1.00  0.00    -0.404 A  
HETATM   16  C   UNL     1     -10.428   6.064  72.765  1.00  0.00    -0.243 A  
HETATM   17  C   UNL     1     -10.363   5.930  71.378  1.00  0.00    -0.218 A  
HETATM   18  C   UNL     1     -10.722   6.986  70.508  1.00  0.00    -0.262 A  
HETATM   19  C   UNL     1     -10.663   6.703  69.031  1.00  0.00    -0.299 C  
HETATM   20  C   UNL     1      -9.752   5.554  68.633  1.00  0.00    -0.186 C  
HETATM   21  C   UNL     1      -9.869   4.377  69.547  1.00  0.00    -0.188 C  
HETATM   22  N   UNL     1     -10.017   4.671  70.875  1.00  0.00    -0.206 N  
HETATM   23  O   UNL     1      -9.715   3.221  69.161  1.00  0.00    -0.108 OA 
HETATM   24  H   UNL     1      -9.865   3.918  71.546  1.00  0.00     0.000 HD 
ENDBRANCH  12  13
ENDBRANCH  11  12
ENDBRANCH   8  11
ENDBRANCH   7   8
ENDBRANCH   5   7
TORSDOF 5
ENDMDL
MODEL      255
REMARK 921   NORMALIZED FREE ENERGY PREDICTED BY IDOCK:   -3.57 KCAL/MOL
REMARK 922        TOTAL FREE ENERGY PREDICTED BY IDOCK:   -5.24 KCAL/MOL
REMARK 923 INTER-LIGAND FREE ENERGY PREDICTED BY IDOCK:   -4.70 KCAL/MOL
REMARK 924 INTRA-LIGAND FREE ENERGY PREDICTED BY IDOCK:   -0.54 KCAL/MOL
REMARK 927      BINDING AFFINITY PREDICTED BY RF-SCORE:    0.00 PKD
ROOT
HETATM    1  C   UNL     1      -6.498  11.422  68.814  1.00  0.00    -0.056 C  
HETATM    2  C   UNL     1      -6.784  10.183  67.947  1.00  0.00    -0.067 C  
HETATM    3  C   UNL     1      -6.643   8.932  68.834  1.00  0.00    -0.052 C  
HETATM    4  C   UNL     1      -5.744  10.086  66.815  1.00  0.00    -0.050 C  
HETATM    5  N   UNL     1      -8.159  10.183  67.409  1.00  0.00    -0.113 NA 
HETATM    6  H   UNL     1      -8.836  10.075  68.164  1.00  0.00     0.000 HD 
ENDROOT
BRANCH   5   7
HETATM    7  C   UNL     1      -8.491  11.354  66.589  1.00  0.00    -0.171 C  
BRANCH   7   8
HETATM    8  C   UNL     1      -9.840  11.207  65.853  1.00  0.00    -0.232 C  
HETATM    9  H   UNL     1     -10.979   9.736  65.190  1.00  0.00     0.000 HD 
HETATM   10  O   UNL     1     -10.149   9.826  65.643  1.00  0.00    -0.296 OA 
BRANCH   8  11
HETATM   11  C   UNL     1     -10.937  11.891  66.689  1.00  0.00    -0.291 C  
BRANCH  11  12
HETATM   12  O   UNL     1     -11.155  13.222  66.219  1.00  0.00    -0.286 OA 
BRANCH  12  13
HETATM   13  C   UNL     1     -11.084  14.274  67.097  1.00  0.00    -0.311 A  
HETATM   14  C   UNL     1     -12.015  14.138  68.145  1.00  0.00    -0.367 A  
HETATM   15  C   UNL     1     -12.045  15.030  69.217  1.00  0.00    -0.282 A  
HETATM   16  C   UNL     1     -11.105  16.048  69.283  1.00  0.00    -0.331 A  
HETATM   17  C   UNL     1     -10.158  16.181  68.267  1.00  0.00    -0.232 A  
HETATM   18  C   UNL     1     -10.153  15.333  67.135  1.00  0.00    -0.240 A  
HETATM   19  C   UNL     1      -9.049  15.540  66.133  1.00  0.00    -0.359 C  
HETATM   20  C   UNL     1      -8.407  16.916  66.158  1.00  0.00    -0.286 C  
HETATM   21  C   UNL     1      -8.169  17.420  67.546  1.00  0.00    -0.201 C  
HETATM   22  N   UNL     1      -9.149  17.132  68.456  1.00  0.00    -0.259 N  
HETATM   23  O   UNL     1      -7.226  18.153  67.832  1.00  0.00    -0.215 OA 
HETATM   24  H   UNL     1      -9.144  17.648  69.336  1.00  0.00     0.000 HD 
ENDBRANCH  12  13
ENDBRANCH  11  12
ENDBRANCH   8  11
ENDBRANCH   7   8
ENDBRANCH   5   7
TORSDOF 5
ENDMDL
MODEL      256
REMARK 921   NORMALIZED FREE ENERGY PREDICTED BY IDOCK:   -3.56 KCAL/MOL
REMARK 922        TOTAL FREE ENERGY PREDICTED BY IDOCK:   -5.22 KCAL/MOL
REMARK 923 INTER-LIGAND FREE ENERGY PREDICTED BY IDOCK:   -4.36 KCAL/MOL
REMARK 924 INTRA-LIGAND FREE ENERGY PREDICTED BY IDOCK:   -0.86 KCAL/MOL
REMARK 927      BINDING AFFINITY PREDICTED BY RF-SCORE:    0.00 PKD
ROOT
HETATM    1  C   UNL     1      -8.191   8.044  74.399  1.00  0.00    -0.284 C  
HETATM    2  C   UNL     1      -8.862   7.619  73.080  1.00  0.00    -0.179 C  
HETATM    3  C   UNL     1      -8.338   8.532  71.957  1.00  0.00    -0.209 C  
HETATM    4  C   UNL     1     -10.387   7.815  73.183  1.00  0.00    -0.403 C  
HETATM    5  N   UNL     1      -8.528   6.230  72.706  1.00  0.00    -0.123 NA 
HETATM    6  H   UNL     1      -7.538   6.153  72.474  1.00  0.00     0.000 HD 
ENDROOT
BRANCH   5   7
HETATM    7  C   UNL     1      -8.897   5.224  73.708  1.00  0.00    -0.118 C  
BRANCH   7   8
HETATM    8  C   UNL     1      -8.867   3.784  73.151  1.00  0.00    -0.093 C  
HETATM    9  H   UNL     1      -9.050   1.950  73.859  1.00  0.00     0.000 HD 
HETATM   10  O   UNL     1      -9.068   2.835  74.202  1.00  0.00    -0.078 OA 
BRANCH   8  11
HETATM   11  C   UNL     1      -9.961   3.648  72.075  1.00  0.00    -0.162 C  
BRANCH  11  12
HETATM   12  O   UNL     1      -9.379   3.705  70.772  1.00  0.00    -0.125 OA 
BRANCH  12  13
HETATM   13  C   UNL     1      -9.962   4.479  69.800  1.00  0.00    -0.198 A  
HETATM   14  C   UNL     1     -10.785   5.477  70.357  1.00  0.00    -0.321 A  
HETATM   15  C   UNL     1     -11.390   6.453  69.565  1.00  0.00    -0.460 A  
HETATM   16  C   UNL     1     -11.137   6.476  68.201  1.00  0.00    -0.332 A  
HETATM   17  C   UNL     1     -10.303   5.511  67.636  1.00  0.00    -0.200 A  
HETATM   18  C   UNL     1      -9.736   4.470  68.408  1.00  0.00    -0.188 A  
HETATM   19  C   UNL     1      -8.808   3.521  67.697  1.00  0.00    -0.148 C  
HETATM   20  C   UNL     1      -8.992   3.451  66.191  1.00  0.00    -0.145 C  
HETATM   21  C   UNL     1      -9.199   4.794  65.568  1.00  0.00    -0.154 C  
HETATM   22  N   UNL     1      -9.970   5.667  66.286  1.00  0.00    -0.294 N  
HETATM   23  O   UNL     1      -8.817   5.064  64.432  1.00  0.00    -0.147 OA 
HETATM   24  H   UNL     1     -10.328   6.491  65.802  1.00  0.00     0.000 HD 
ENDBRANCH  12  13
ENDBRANCH  11  12
ENDBRANCH   8  11
ENDBRANCH   7   8
ENDBRANCH   5   7
TORSDOF 5
ENDMDL
MODEL      257
REMARK 921   NORMALIZED FREE ENERGY PREDICTED BY IDOCK:   -3.55 KCAL/MOL
REMARK 922        TOTAL FREE ENERGY PREDICTED BY IDOCK:   -5.22 KCAL/MOL
REMARK 923 INTER-LIGAND FREE ENERGY PREDICTED BY IDOCK:   -4.52 KCAL/MOL
REMARK 924 INTRA-LIGAND FREE ENERGY PREDICTED BY IDOCK:   -0.70 KCAL/MOL
REMARK 927      BINDING AFFINITY PREDICTED BY RF-SCORE:    0.00 PKD
ROOT
HETATM    1  C   UNL     1      -7.632   7.236  65.242  1.00  0.00    -0.102 C  
HETATM    2  C   UNL     1      -8.010   8.260  66.328  1.00  0.00    -0.100 C  
HETATM    3  C   UNL     1      -6.812   8.414  67.283  1.00  0.00    -0.070 C  
HETATM    4  C   UNL     1      -9.208   7.738  67.144  1.00  0.00    -0.174 C  
HETATM    5  N   UNL     1      -8.292   9.595  65.762  1.00  0.00    -0.125 NA 
HETATM    6  H   UNL     1      -7.442  10.002  65.372  1.00  0.00     0.000 HD 
ENDROOT
BRANCH   5   7
HETATM    7  C   UNL     1      -9.371   9.619  64.768  1.00  0.00    -0.222 C  
BRANCH   7   8
HETATM    8  C   UNL     1      -9.899  11.043  64.492  1.00  0.00    -0.290 C  
HETATM    9  H   UNL     1     -10.884  11.972  63.054  1.00  0.00     0.000 HD 
HETATM   10  O   UNL     1     -10.559  11.096  63.224  1.00  0.00    -0.343 OA 
BRANCH   8  11
HETATM   11  C   UNL     1     -10.862  11.442  65.626  1.00  0.00    -0.218 C  
BRANCH  11  12
HETATM   12  O   UNL     1     -10.128  11.726  66.817  1.00  0.00    -0.205 OA 
BRANCH  12  13
HETATM   13  C   UNL     1     -10.329  12.914  67.474  1.00  0.00    -0.223 A  
HETATM   14  C   UNL     1     -11.675  13.075  67.854  1.00  0.00    -0.402 A  
HETATM   15  C   UNL     1     -12.092  14.154  68.634  1.00  0.00    -0.320 A  
HETATM   16  C   UNL     1     -11.153  15.066  69.091  1.00  0.00    -0.278 A  
HETATM   17  C   UNL     1      -9.810  14.908  68.746  1.00  0.00    -0.225 A  
HETATM   18  C   UNL     1      -9.375  13.863  67.898  1.00  0.00    -0.208 A  
HETATM   19  C   UNL     1      -7.895  13.763  67.642  1.00  0.00    -0.185 C  
HETATM   20  C   UNL     1      -7.117  15.048  67.865  1.00  0.00    -0.165 C  
HETATM   21  C   UNL     1      -7.547  15.782  69.095  1.00  0.00    -0.212 C  
HETATM   22  N   UNL     1      -8.891  15.773  69.350  1.00  0.00    -0.260 N  
HETATM   23  O   UNL     1      -6.773  16.458  69.767  1.00  0.00    -0.194 OA 
HETATM   24  H   UNL     1      -9.248  16.445  70.029  1.00  0.00     0.000 HD 
ENDBRANCH  12  13
ENDBRANCH  11  12
ENDBRANCH   8  11
ENDBRANCH   7   8
ENDBRANCH   5   7
TORSDOF 5
ENDMDL
MODEL      258
REMARK 921   NORMALIZED FREE ENERGY PREDICTED BY IDOCK:   -3.54 KCAL/MOL
REMARK 922        TOTAL FREE ENERGY PREDICTED BY IDOCK:   -5.21 KCAL/MOL
REMARK 923 INTER-LIGAND FREE ENERGY PREDICTED BY IDOCK:   -5.11 KCAL/MOL
REMARK 924 INTRA-LIGAND FREE ENERGY PREDICTED BY IDOCK:   -0.10 KCAL/MOL
REMARK 927      BINDING AFFINITY PREDICTED BY RF-SCORE:    0.00 PKD
ROOT
HETATM    1  C   UNL     1     -12.087  12.682  65.865  1.00  0.00    -0.459 C  
HETATM    2  C   UNL     1     -11.254  13.113  64.645  1.00  0.00    -0.340 C  
HETATM    3  C   UNL     1     -10.831  14.580  64.844  1.00  0.00    -0.436 C  
HETATM    4  C   UNL     1     -12.114  13.032  63.370  1.00  0.00    -0.591 C  
HETATM    5  N   UNL     1     -10.017  12.318  64.505  1.00  0.00    -0.458 NA 
HETATM    6  H   UNL     1      -9.380  12.513  65.277  1.00  0.00     0.000 HD 
ENDROOT
BRANCH   5   7
HETATM    7  C   UNL     1     -10.234  10.873  64.375  1.00  0.00    -0.358 C  
BRANCH   7   8
HETATM    8  C   UNL     1      -9.302  10.043  65.284  1.00  0.00    -0.237 C  
HETATM    9  H   UNL     1      -7.375   9.977  65.712  1.00  0.00     0.000 HD 
HETATM   10  O   UNL     1      -7.948  10.487  65.152  1.00  0.00    -0.149 OA 
BRANCH   8  11
HETATM   11  C   UNL     1      -9.782  10.179  66.740  1.00  0.00    -0.187 C  
BRANCH  11  12
HETATM   12  O   UNL     1      -8.925   9.439  67.612  1.00  0.00    -0.119 OA 
BRANCH  12  13
HETATM   13  C   UNL     1      -9.274   8.166  67.989  1.00  0.00    -0.132 A  
HETATM   14  C   UNL     1     -10.302   7.648  67.177  1.00  0.00    -0.385 A  
HETATM   15  C   UNL     1     -10.739   6.329  67.302  1.00  0.00    -0.424 A  
HETATM   16  C   UNL     1     -10.114   5.488  68.211  1.00  0.00    -0.226 A  
HETATM   17  C   UNL     1      -9.076   5.977  69.005  1.00  0.00    -0.122 A  
HETATM   18  C   UNL     1      -8.664   7.329  68.946  1.00  0.00    -0.128 A  
HETATM   19  C   UNL     1      -7.497   7.725  69.811  1.00  0.00    -0.089 C  
HETATM   20  C   UNL     1      -7.241   6.815  71.000  1.00  0.00    -0.077 C  
HETATM   21  C   UNL     1      -7.377   5.365  70.663  1.00  0.00    -0.071 C  
HETATM   22  N   UNL     1      -8.390   5.051  69.799  1.00  0.00    -0.087 N  
HETATM   23  O   UNL     1      -6.714   4.491  71.215  1.00  0.00    -0.029 OA 
HETATM   24  H   UNL     1      -8.665   4.071  69.728  1.00  0.00     0.000 HD 
ENDBRANCH  12  13
ENDBRANCH  11  12
ENDBRANCH   8  11
ENDBRANCH   7   8
ENDBRANCH   5   7
TORSDOF 5
ENDMDL
MODEL      259
REMARK 921   NORMALIZED FREE ENERGY PREDICTED BY IDOCK:   -3.51 KCAL/MOL
REMARK 922        TOTAL FREE ENERGY PREDICTED BY IDOCK:   -5.16 KCAL/MOL
REMARK 923 INTER-LIGAND FREE ENERGY PREDICTED BY IDOCK:   -4.71 KCAL/MOL
REMARK 924 INTRA-LIGAND FREE ENERGY PREDICTED BY IDOCK:   -0.45 KCAL/MOL
REMARK 927      BINDING AFFINITY PREDICTED BY RF-SCORE:    0.00 PKD
ROOT
HETATM    1  C   UNL     1      -6.612  15.799  67.592  1.00  0.00    -0.196 C  
HETATM    2  C   UNL     1      -7.085  15.258  68.953  1.00  0.00    -0.130 C  
HETATM    3  C   UNL     1      -8.412  15.951  69.313  1.00  0.00    -0.242 C  
HETATM    4  C   UNL     1      -6.052  15.608  70.042  1.00  0.00    -0.149 C  
HETATM    5  N   UNL     1      -7.347  13.805  68.916  1.00  0.00    -0.179 NA 
HETATM    6  H   UNL     1      -8.149  13.604  68.318  1.00  0.00     0.000 HD 
ENDROOT
BRANCH   5   7
HETATM    7  C   UNL     1      -6.196  12.988  68.518  1.00  0.00    -0.078 C  
BRANCH   7   8
HETATM    8  C   UNL     1      -6.239  11.563  69.108  1.00  0.00    -0.071 C  
HETATM    9  H   UNL     1      -6.433  10.735  70.890  1.00  0.00     0.000 HD 
HETATM   10  O   UNL     1      -6.407  11.613  70.528  1.00  0.00    -0.265 OA 
BRANCH   8  11
HETATM   11  C   UNL     1      -7.396  10.790  68.448  1.00  0.00    -0.092 C  
BRANCH  11  12
HETATM   12  O   UNL     1      -8.293  11.699  67.809  1.00  0.00    -0.131 OA 
BRANCH  12  13
HETATM   13  C   UNL     1      -8.572  11.553  66.473  1.00  0.00    -0.172 A  
HETATM   14  C   UNL     1      -7.950  10.410  65.935  1.00  0.00    -0.151 A  
HETATM   15  C   UNL     1      -8.183   9.997  64.624  1.00  0.00    -0.163 A  
HETATM   16  C   UNL     1      -9.090  10.698  63.841  1.00  0.00    -0.244 A  
HETATM   17  C   UNL     1      -9.736  11.818  64.366  1.00  0.00    -0.143 A  
HETATM   18  C   UNL     1      -9.461  12.296  65.669  1.00  0.00    -0.078 A  
HETATM   19  C   UNL     1     -10.261  13.479  66.144  1.00  0.00    -0.303 C  
HETATM   20  C   UNL     1     -10.862  14.333  65.041  1.00  0.00    -0.414 C  
HETATM   21  C   UNL     1     -11.444  13.520  63.929  1.00  0.00    -0.250 C  
HETATM   22  N   UNL     1     -10.741  12.398  63.585  1.00  0.00    -0.446 N  
HETATM   23  O   UNL     1     -12.416  13.891  63.276  1.00  0.00    -0.817 OA 
HETATM   24  H   UNL     1     -10.966  11.953  62.695  1.00  0.00     0.000 HD 
ENDBRANCH  12  13
ENDBRANCH  11  12
ENDBRANCH   8  11
ENDBRANCH   7   8
ENDBRANCH   5   7
TORSDOF 5
ENDMDL
MODEL      260
REMARK 921   NORMALIZED FREE ENERGY PREDICTED BY IDOCK:   -3.50 KCAL/MOL
REMARK 922        TOTAL FREE ENERGY PREDICTED BY IDOCK:   -5.15 KCAL/MOL
REMARK 923 INTER-LIGAND FREE ENERGY PREDICTED BY IDOCK:   -4.72 KCAL/MOL
REMARK 924 INTRA-LIGAND FREE ENERGY PREDICTED BY IDOCK:   -0.43 KCAL/MOL
REMARK 927      BINDING AFFINITY PREDICTED BY RF-SCORE:    0.00 PKD
ROOT
HETATM    1  C   UNL     1     -11.841  12.621  66.231  1.00  0.00    -0.471 C  
HETATM    2  C   UNL     1     -10.896  12.581  65.017  1.00  0.00    -0.290 C  
HETATM    3  C   UNL     1     -10.775  14.008  64.453  1.00  0.00    -0.236 C  
HETATM    4  C   UNL     1     -11.495  11.683  63.918  1.00  0.00    -0.433 C  
HETATM    5  N   UNL     1      -9.535  12.139  65.382  1.00  0.00    -0.432 NA 
HETATM    6  H   UNL     1      -9.085  12.833  65.979  1.00  0.00     0.000 HD 
ENDROOT
BRANCH   5   7
HETATM    7  C   UNL     1      -9.473  10.812  66.006  1.00  0.00    -0.194 C  
BRANCH   7   8
HETATM    8  C   UNL     1      -8.797  10.834  67.394  1.00  0.00    -0.129 C  
HETATM    9  H   UNL     1      -8.341  12.180  68.765  1.00  0.00     0.000 HD 
HETATM   10  O   UNL     1      -8.756  12.167  67.911  1.00  0.00    -0.159 OA 
BRANCH   8  11
HETATM   11  C   UNL     1      -9.582   9.905  68.339  1.00  0.00    -0.148 C  
BRANCH  11  12
HETATM   12  O   UNL     1      -8.805   9.618  69.503  1.00  0.00    -0.160 OA 
BRANCH  12  13
HETATM   13  C   UNL     1      -9.283   8.737  70.440  1.00  0.00    -0.180 A  
HETATM   14  C   UNL     1     -10.366   9.280  71.158  1.00  0.00    -0.392 A  
HETATM   15  C   UNL     1     -11.085   8.522  72.082  1.00  0.00    -0.436 A  
HETATM   16  C   UNL     1     -10.762   7.185  72.265  1.00  0.00    -0.252 A  
HETATM   17  C   UNL     1      -9.709   6.623  71.543  1.00  0.00    -0.164 A  
HETATM   18  C   UNL     1      -8.921   7.390  70.653  1.00  0.00    -0.155 A  
HETATM   19  C   UNL     1      -7.848   6.660  69.890  1.00  0.00    -0.115 C  
HETATM   20  C   UNL     1      -7.385   5.357  70.519  1.00  0.00    -0.071 C  
HETATM   21  C   UNL     1      -8.515   4.538  71.057  1.00  0.00    -0.094 C  
HETATM   22  N   UNL     1      -9.521   5.242  71.661  1.00  0.00    -0.147 N  
HETATM   23  O   UNL     1      -8.493   3.311  71.075  1.00  0.00    -0.064 OA 
HETATM   24  H   UNL     1     -10.180   4.722  72.240  1.00  0.00     0.000 HD 
ENDBRANCH  12  13
ENDBRANCH  11  12
ENDBRANCH   8  11
ENDBRANCH   7   8
ENDBRANCH   5   7
TORSDOF 5
ENDMDL
MODEL      261
REMARK 921   NORMALIZED FREE ENERGY PREDICTED BY IDOCK:   -3.50 KCAL/MOL
REMARK 922        TOTAL FREE ENERGY PREDICTED BY IDOCK:   -5.15 KCAL/MOL
REMARK 923 INTER-LIGAND FREE ENERGY PREDICTED BY IDOCK:   -4.82 KCAL/MOL
REMARK 924 INTRA-LIGAND FREE ENERGY PREDICTED BY IDOCK:   -0.33 KCAL/MOL
REMARK 927      BINDING AFFINITY PREDICTED BY RF-SCORE:    0.00 PKD
ROOT
HETATM    1  C   UNL     1     -10.991   6.131  67.943  1.00  0.00    -0.399 C  
HETATM    2  C   UNL     1      -9.540   5.663  68.156  1.00  0.00    -0.114 C  
HETATM    3  C   UNL     1      -9.492   4.137  67.962  1.00  0.00    -0.215 C  
HETATM    4  C   UNL     1      -9.097   5.976  69.598  1.00  0.00    -0.139 C  
HETATM    5  N   UNL     1      -8.611   6.258  67.173  1.00  0.00    -0.108 NA 
HETATM    6  H   UNL     1      -8.813   5.906  66.237  1.00  0.00     0.000 HD 
ENDROOT
BRANCH   5   7
HETATM    7  C   UNL     1      -8.584   7.725  67.172  1.00  0.00    -0.128 C  
BRANCH   7   8
HETATM    8  C   UNL     1      -7.292   8.300  67.791  1.00  0.00    -0.093 C  
HETATM    9  H   UNL     1      -5.470   8.760  67.182  1.00  0.00     0.000 HD 
HETATM   10  O   UNL     1      -6.265   8.405  66.800  1.00  0.00    -0.053 OA 
BRANCH   8  11
HETATM   11  C   UNL     1      -7.607   9.679  68.399  1.00  0.00    -0.081 C  
BRANCH  11  12
HETATM   12  O   UNL     1      -8.556  10.370  67.586  1.00  0.00    -0.118 OA 
BRANCH  12  13
HETATM   13  C   UNL     1      -9.561  11.092  68.179  1.00  0.00    -0.179 A  
HETATM   14  C   UNL     1      -9.845  12.271  67.463  1.00  0.00    -0.193 A  
HETATM   15  C   UNL     1     -10.906  13.104  67.815  1.00  0.00    -0.261 A  
HETATM   16  C   UNL     1     -11.738  12.741  68.864  1.00  0.00    -0.370 A  
HETATM   17  C   UNL     1     -11.488  11.562  69.568  1.00  0.00    -0.311 A  
HETATM   18  C   UNL     1     -10.376  10.739  69.275  1.00  0.00    -0.228 A  
HETATM   19  C   UNL     1     -10.243   9.465  70.066  1.00  0.00    -0.262 C  
HETATM   20  C   UNL     1     -10.970   9.459  71.400  1.00  0.00    -0.443 C  
HETATM   21  C   UNL     1     -12.331  10.073  71.323  1.00  0.00    -0.398 C  
HETATM   22  N   UNL     1     -12.439  11.174  70.519  1.00  0.00    -0.331 N  
HETATM   23  O   UNL     1     -13.266   9.701  72.027  1.00  0.00    -0.400 OA 
HETATM   24  H   UNL     1     -13.272  11.755  70.620  1.00  0.00     0.000 HD 
ENDBRANCH  12  13
ENDBRANCH  11  12
ENDBRANCH   8  11
ENDBRANCH   7   8
ENDBRANCH   5   7
TORSDOF 5
ENDMDL
MODEL      262
REMARK 921   NORMALIZED FREE ENERGY PREDICTED BY IDOCK:   -3.49 KCAL/MOL
REMARK 922        TOTAL FREE ENERGY PREDICTED BY IDOCK:   -5.14 KCAL/MOL
REMARK 923 INTER-LIGAND FREE ENERGY PREDICTED BY IDOCK:   -4.68 KCAL/MOL
REMARK 924 INTRA-LIGAND FREE ENERGY PREDICTED BY IDOCK:   -0.46 KCAL/MOL
REMARK 927      BINDING AFFINITY PREDICTED BY RF-SCORE:    0.00 PKD
ROOT
HETATM    1  C   UNL     1     -13.371   9.815  70.307  1.00  0.00     0.446 C  
HETATM    2  C   UNL     1     -12.384  10.675  71.117  1.00  0.00    -0.400 C  
HETATM    3  C   UNL     1     -11.697   9.770  72.157  1.00  0.00     0.307 C  
HETATM    4  C   UNL     1     -13.151  11.776  71.874  1.00  0.00    -0.482 C  
HETATM    5  N   UNL     1     -11.321  11.253  70.271  1.00  0.00    -0.491 NA 
HETATM    6  H   UNL     1     -10.714  10.516  69.911  1.00  0.00     0.000 HD 
ENDROOT
BRANCH   5   7
HETATM    7  C   UNL     1     -11.807  12.095  69.173  1.00  0.00    -0.305 C  
BRANCH   7   8
HETATM    8  C   UNL     1     -11.394  11.565  67.783  1.00  0.00    -0.296 C  
HETATM    9  H   UNL     1     -12.020  11.741  65.918  1.00  0.00     0.000 HD 
HETATM   10  O   UNL     1     -12.275  12.067  66.773  1.00  0.00    -0.545 OA 
BRANCH   8  11
HETATM   11  C   UNL     1      -9.942  11.993  67.502  1.00  0.00    -0.192 C  
BRANCH  11  12
HETATM   12  O   UNL     1      -9.923  13.222  66.775  1.00  0.00    -0.250 OA 
BRANCH  12  13
HETATM   13  C   UNL     1      -9.197  14.284  67.253  1.00  0.00    -0.214 A  
HETATM   14  C   UNL     1      -8.078  13.856  67.994  1.00  0.00    -0.154 A  
HETATM   15  C   UNL     1      -7.133  14.759  68.480  1.00  0.00    -0.110 A  
HETATM   16  C   UNL     1      -7.266  16.108  68.185  1.00  0.00    -0.140 A  
HETATM   17  C   UNL     1      -8.354  16.547  67.430  1.00  0.00    -0.170 A  
HETATM   18  C   UNL     1      -9.363  15.660  66.988  1.00  0.00    -0.241 A  
HETATM   19  C   UNL     1     -10.458  16.242  66.135  1.00  0.00    -0.330 C  
HETATM   20  C   UNL     1     -10.657  17.741  66.279  1.00  0.00    -0.220 C  
HETATM   21  C   UNL     1      -9.367  18.495  66.340  1.00  0.00    -0.282 C  
HETATM   22  N   UNL     1      -8.361  17.893  67.044  1.00  0.00    -0.228 N  
HETATM   23  O   UNL     1      -9.246  19.635  65.900  1.00  0.00    -0.387 OA 
HETATM   24  H   UNL     1      -7.559  18.465  67.308  1.00  0.00     0.000 HD 
ENDBRANCH  12  13
ENDBRANCH  11  12
ENDBRANCH   8  11
ENDBRANCH   7   8
ENDBRANCH   5   7
TORSDOF 5
ENDMDL
MODEL      263
REMARK 921   NORMALIZED FREE ENERGY PREDICTED BY IDOCK:   -3.49 KCAL/MOL
REMARK 922        TOTAL FREE ENERGY PREDICTED BY IDOCK:   -5.14 KCAL/MOL
REMARK 923 INTER-LIGAND FREE ENERGY PREDICTED BY IDOCK:   -5.27 KCAL/MOL
REMARK 924 INTRA-LIGAND FREE ENERGY PREDICTED BY IDOCK:    0.13 KCAL/MOL
REMARK 927      BINDING AFFINITY PREDICTED BY RF-SCORE:    0.00 PKD
ROOT
HETATM    1  C   UNL     1      -7.114  10.862  66.313  1.00  0.00    -0.119 C  
HETATM    2  C   UNL     1      -8.529  10.823  66.918  1.00  0.00    -0.131 C  
HETATM    3  C   UNL     1      -8.748   9.433  67.543  1.00  0.00    -0.123 C  
HETATM    4  C   UNL     1      -9.577  11.018  65.807  1.00  0.00    -0.260 C  
HETATM    5  N   UNL     1      -8.703  11.818  67.995  1.00  0.00    -0.160 NA 
HETATM    6  H   UNL     1      -8.121  11.578  68.798  1.00  0.00     0.000 HD 
ENDROOT
BRANCH   5   7
HETATM    7  C   UNL     1      -8.459  13.206  67.587  1.00  0.00    -0.194 C  
BRANCH   7   8
HETATM    8  C   UNL     1      -7.272  13.851  68.333  1.00  0.00    -0.110 C  
HETATM    9  H   UNL     1      -5.519  14.635  67.870  1.00  0.00     0.000 HD 
HETATM   10  O   UNL     1      -6.249  14.238  67.410  1.00  0.00    -0.335 OA 
BRANCH   8  11
HETATM   11  C   UNL     1      -7.787  15.070  69.121  1.00  0.00    -0.188 C  
BRANCH  11  12
HETATM   12  O   UNL     1      -6.774  16.075  69.189  1.00  0.00    -0.150 OA 
BRANCH  12  13
HETATM   13  C   UNL     1      -7.102  17.387  68.955  1.00  0.00    -0.233 A  
HETATM   14  C   UNL     1      -6.112  18.263  69.440  1.00  0.00    -0.254 A  
HETATM   15  C   UNL     1      -6.176  19.638  69.214  1.00  0.00    -0.337 A  
HETATM   16  C   UNL     1      -7.211  20.154  68.449  1.00  0.00    -0.259 A  
HETATM   17  C   UNL     1      -8.187  19.298  67.938  1.00  0.00    -0.305 A  
HETATM   18  C   UNL     1      -8.182  17.911  68.214  1.00  0.00    -0.292 A  
HETATM   19  C   UNL     1      -9.255  17.081  67.561  1.00  0.00    -0.231 C  
HETATM   20  C   UNL     1     -10.493  17.851  67.134  1.00  0.00    -0.359 C  
HETATM   21  C   UNL     1     -10.168  19.166  66.499  1.00  0.00    -0.429 C  
HETATM   22  N   UNL     1      -9.124  19.851  67.058  1.00  0.00    -0.331 N  
HETATM   23  O   UNL     1     -10.863  19.665  65.618  1.00  0.00    -0.473 OA 
HETATM   24  H   UNL     1      -9.022  20.837  66.816  1.00  0.00     0.000 HD 
ENDBRANCH  12  13
ENDBRANCH  11  12
ENDBRANCH   8  11
ENDBRANCH   7   8
ENDBRANCH   5   7
TORSDOF 5
ENDMDL
MODEL      264
REMARK 921   NORMALIZED FREE ENERGY PREDICTED BY IDOCK:   -3.48 KCAL/MOL
REMARK 922        TOTAL FREE ENERGY PREDICTED BY IDOCK:   -5.12 KCAL/MOL
REMARK 923 INTER-LIGAND FREE ENERGY PREDICTED BY IDOCK:   -4.34 KCAL/MOL
REMARK 924 INTRA-LIGAND FREE ENERGY PREDICTED BY IDOCK:   -0.78 KCAL/MOL
REMARK 927      BINDING AFFINITY PREDICTED BY RF-SCORE:    0.00 PKD
ROOT
HETATM    1  C   UNL     1      -9.093  15.227  68.520  1.00  0.00    -0.192 C  
HETATM    2  C   UNL     1      -8.443  15.009  67.142  1.00  0.00    -0.218 C  
HETATM    3  C   UNL     1      -7.034  14.427  67.361  1.00  0.00    -0.091 C  
HETATM    4  C   UNL     1      -8.294  16.358  66.415  1.00  0.00    -0.363 C  
HETATM    5  N   UNL     1      -9.192  14.039  66.318  1.00  0.00    -0.487 NA 
HETATM    6  H   UNL     1      -9.138  13.107  66.729  1.00  0.00     0.000 HD 
ENDROOT
BRANCH   5   7
HETATM    7  C   UNL     1     -10.591  14.405  66.068  1.00  0.00    -0.302 C  
BRANCH   7   8
HETATM    8  C   UNL     1     -11.584  13.301  66.489  1.00  0.00    -0.350 C  
HETATM    9  H   UNL     1     -12.913  12.133  65.612  1.00  0.00     0.000 HD 
HETATM   10  O   UNL     1     -12.302  12.813  65.352  1.00  0.00    -0.469 OA 
BRANCH   8  11
HETATM   11  C   UNL     1     -10.799  12.164  67.170  1.00  0.00    -0.244 C  
BRANCH  11  12
HETATM   12  O   UNL     1     -10.804  11.000  66.343  1.00  0.00    -0.257 OA 
BRANCH  12  13
HETATM   13  C   UNL     1      -9.636  10.312  66.129  1.00  0.00    -0.197 A  
HETATM   14  C   UNL     1      -8.961  10.780  64.985  1.00  0.00    -0.211 A  
HETATM   15  C   UNL     1      -7.696  10.307  64.637  1.00  0.00    -0.114 A  
HETATM   16  C   UNL     1      -7.060   9.392  65.463  1.00  0.00    -0.087 A  
HETATM   17  C   UNL     1      -7.703   8.937  66.615  1.00  0.00    -0.100 A  
HETATM   18  C   UNL     1      -9.014   9.348  66.949  1.00  0.00    -0.148 A  
HETATM   19  C   UNL     1      -9.581   8.833  68.246  1.00  0.00    -0.160 C  
HETATM   20  C   UNL     1      -8.936   7.561  68.768  1.00  0.00    -0.129 C  
HETATM   21  C   UNL     1      -7.447   7.565  68.630  1.00  0.00    -0.101 C  
HETATM   22  N   UNL     1      -6.960   8.128  67.482  1.00  0.00    -0.074 N  
HETATM   23  O   UNL     1      -6.706   6.993  69.425  1.00  0.00    -0.046 OA 
HETATM   24  H   UNL     1      -5.987   7.943  67.240  1.00  0.00     0.000 HD 
ENDBRANCH  12  13
ENDBRANCH  11  12
ENDBRANCH   8  11
ENDBRANCH   7   8
ENDBRANCH   5   7
TORSDOF 5
ENDMDL
MODEL      265
REMARK 921   NORMALIZED FREE ENERGY PREDICTED BY IDOCK:   -3.47 KCAL/MOL
REMARK 922        TOTAL FREE ENERGY PREDICTED BY IDOCK:   -5.11 KCAL/MOL
REMARK 923 INTER-LIGAND FREE ENERGY PREDICTED BY IDOCK:   -4.41 KCAL/MOL
REMARK 924 INTRA-LIGAND FREE ENERGY PREDICTED BY IDOCK:   -0.71 KCAL/MOL
REMARK 927      BINDING AFFINITY PREDICTED BY RF-SCORE:    0.00 PKD
ROOT
HETATM    1  C   UNL     1      -8.901   7.109  69.788  1.00  0.00    -0.142 C  
HETATM    2  C   UNL     1      -9.151   8.412  69.009  1.00  0.00    -0.147 C  
HETATM    3  C   UNL     1      -9.616   9.489  70.007  1.00  0.00    -0.272 C  
HETATM    4  C   UNL     1     -10.276   8.198  67.979  1.00  0.00    -0.263 C  
HETATM    5  N   UNL     1      -7.925   8.920  68.361  1.00  0.00    -0.104 NA 
HETATM    6  H   UNL     1      -7.249   9.219  69.064  1.00  0.00     0.000 HD 
ENDROOT
BRANCH   5   7
HETATM    7  C   UNL     1      -7.302   7.982  67.420  1.00  0.00    -0.089 C  
BRANCH   7   8
HETATM    8  C   UNL     1      -6.857   8.658  66.106  1.00  0.00    -0.073 C  
HETATM    9  H   UNL     1      -6.417   8.100  64.263  1.00  0.00     0.000 HD 
HETATM   10  O   UNL     1      -6.691   7.684  65.072  1.00  0.00    -0.046 OA 
BRANCH   8  11
HETATM   11  C   UNL     1      -7.914   9.704  65.706  1.00  0.00    -0.109 C  
BRANCH  11  12
HETATM   12  O   UNL     1      -7.509  11.003  66.140  1.00  0.00    -0.141 OA 
BRANCH  12  13
HETATM   13  C   UNL     1      -8.403  11.810  66.798  1.00  0.00    -0.165 A  
HETATM   14  C   UNL     1      -7.818  12.425  67.921  1.00  0.00    -0.145 A  
HETATM   15  C   UNL     1      -8.505  13.376  68.676  1.00  0.00     0.001 A  
HETATM   16  C   UNL     1      -9.777  13.767  68.284  1.00  0.00    -0.231 A  
HETATM   17  C   UNL     1     -10.362  13.187  67.158  1.00  0.00    -0.247 A  
HETATM   18  C   UNL     1      -9.714  12.169  66.420  1.00  0.00    -0.243 A  
HETATM   19  C   UNL     1     -10.422  11.660  65.192  1.00  0.00    -0.329 C  
HETATM   20  C   UNL     1     -11.923  11.889  65.176  1.00  0.00    -0.113 C  
HETATM   21  C   UNL     1     -12.310  13.246  65.671  1.00  0.00    -0.465 C  
HETATM   22  N   UNL     1     -11.583  13.719  66.728  1.00  0.00    -0.351 N  
HETATM   23  O   UNL     1     -13.293  13.849  65.249  1.00  0.00    -0.732 OA 
HETATM   24  H   UNL     1     -11.958  14.518  67.240  1.00  0.00     0.000 HD 
ENDBRANCH  12  13
ENDBRANCH  11  12
ENDBRANCH   8  11
ENDBRANCH   7   8
ENDBRANCH   5   7
TORSDOF 5
ENDMDL
MODEL      266
REMARK 921   NORMALIZED FREE ENERGY PREDICTED BY IDOCK:   -3.44 KCAL/MOL
REMARK 922        TOTAL FREE ENERGY PREDICTED BY IDOCK:   -5.08 KCAL/MOL
REMARK 923 INTER-LIGAND FREE ENERGY PREDICTED BY IDOCK:   -4.40 KCAL/MOL
REMARK 924 INTRA-LIGAND FREE ENERGY PREDICTED BY IDOCK:   -0.68 KCAL/MOL
REMARK 927      BINDING AFFINITY PREDICTED BY RF-SCORE:    0.00 PKD
ROOT
HETATM    1  C   UNL     1     -12.413  12.721  65.415  1.00  0.00    -0.478 C  
HETATM    2  C   UNL     1     -10.932  12.411  65.695  1.00  0.00    -0.286 C  
HETATM    3  C   UNL     1     -10.081  13.557  65.119  1.00  0.00    -0.278 C  
HETATM    4  C   UNL     1     -10.526  11.109  64.979  1.00  0.00    -0.357 C  
HETATM    5  N   UNL     1     -10.641  12.336  67.141  1.00  0.00    -0.222 NA 
HETATM    6  H   UNL     1     -10.751  13.253  67.574  1.00  0.00     0.000 HD 
ENDROOT
BRANCH   5   7
HETATM    7  C   UNL     1     -11.425  11.332  67.869  1.00  0.00    -0.288 C  
BRANCH   7   8
HETATM    8  C   UNL     1     -11.419  11.558  69.396  1.00  0.00    -0.309 C  
HETATM    9  H   UNL     1     -12.652  12.274  70.762  1.00  0.00     0.000 HD 
HETATM   10  O   UNL     1     -12.656  12.136  69.822  1.00  0.00     0.046 OA 
BRANCH   8  11
HETATM   11  C   UNL     1     -11.178  10.206  70.094  1.00  0.00    -0.310 C  
BRANCH  11  12
HETATM   12  O   UNL     1      -9.842   9.762  69.857  1.00  0.00    -0.216 OA 
BRANCH  12  13
HETATM   13  C   UNL     1      -9.592   8.424  69.679  1.00  0.00    -0.163 A  
HETATM   14  C   UNL     1      -9.845   7.688  70.852  1.00  0.00    -0.179 A  
HETATM   15  C   UNL     1      -9.770   6.295  70.873  1.00  0.00    -0.197 A  
HETATM   16  C   UNL     1      -9.489   5.611  69.700  1.00  0.00    -0.180 A  
HETATM   17  C   UNL     1      -9.261   6.323  68.522  1.00  0.00    -0.123 A  
HETATM   18  C   UNL     1      -9.261   7.737  68.492  1.00  0.00    -0.137 A  
HETATM   19  C   UNL     1      -9.058   8.391  67.151  1.00  0.00    -0.162 C  
HETATM   20  C   UNL     1      -8.366   7.526  66.113  1.00  0.00    -0.138 C  
HETATM   21  C   UNL     1      -8.857   6.113  66.113  1.00  0.00    -0.152 C  
HETATM   22  N   UNL     1      -9.124   5.580  67.344  1.00  0.00    -0.111 N  
HETATM   23  O   UNL     1      -8.900   5.427  65.095  1.00  0.00    -0.156 OA 
HETATM   24  H   UNL     1      -9.230   4.567  67.408  1.00  0.00     0.000 HD 
ENDBRANCH  12  13
ENDBRANCH  11  12
ENDBRANCH   8  11
ENDBRANCH   7   8
ENDBRANCH   5   7
TORSDOF 5
ENDMDL
MODEL      267
REMARK 921   NORMALIZED FREE ENERGY PREDICTED BY IDOCK:   -3.43 KCAL/MOL
REMARK 922        TOTAL FREE ENERGY PREDICTED BY IDOCK:   -5.07 KCAL/MOL
REMARK 923 INTER-LIGAND FREE ENERGY PREDICTED BY IDOCK:   -4.58 KCAL/MOL
REMARK 924 INTRA-LIGAND FREE ENERGY PREDICTED BY IDOCK:   -0.49 KCAL/MOL
REMARK 927      BINDING AFFINITY PREDICTED BY RF-SCORE:    0.00 PKD
ROOT
HETATM    1  C   UNL     1      -7.220  10.214  64.492  1.00  0.00    -0.119 C  
HETATM    2  C   UNL     1      -8.541   9.489  64.178  1.00  0.00    -0.201 C  
HETATM    3  C   UNL     1      -8.208   8.161  63.474  1.00  0.00    -0.058 C  
HETATM    4  C   UNL     1      -9.389  10.341  63.215  1.00  0.00    -0.340 C  
HETATM    5  N   UNL     1      -9.299   9.156  65.401  1.00  0.00    -0.380 NA 
HETATM    6  H   UNL     1      -8.798   8.457  65.950  1.00  0.00     0.000 HD 
ENDROOT
BRANCH   5   7
HETATM    7  C   UNL     1      -9.642  10.311  66.238  1.00  0.00    -0.189 C  
BRANCH   7   8
HETATM    8  C   UNL     1     -10.945  10.104  67.040  1.00  0.00    -0.092 C  
HETATM    9  H   UNL     1     -11.522   9.097  68.638  1.00  0.00     0.000 HD 
HETATM   10  O   UNL     1     -10.720   9.224  68.145  1.00  0.00    -0.213 OA 
BRANCH   8  11
HETATM   11  C   UNL     1     -11.448  11.475  67.528  1.00  0.00    -0.282 C  
BRANCH  11  12
HETATM   12  O   UNL     1     -10.553  12.008  68.505  1.00  0.00    -0.218 OA 
BRANCH  12  13
HETATM   13  C   UNL     1     -10.478  13.366  68.690  1.00  0.00    -0.225 A  
HETATM   14  C   UNL     1     -11.602  13.858  69.381  1.00  0.00    -0.350 A  
HETATM   15  C   UNL     1     -11.689  15.191  69.782  1.00  0.00    -0.347 A  
HETATM   16  C   UNL     1     -10.622  16.046  69.541  1.00  0.00    -0.290 A  
HETATM   17  C   UNL     1      -9.489  15.568  68.881  1.00  0.00    -0.223 A  
HETATM   18  C   UNL     1      -9.408  14.240  68.403  1.00  0.00    -0.208 A  
HETATM   19  C   UNL     1      -8.114  13.826  67.755  1.00  0.00    -0.176 C  
HETATM   20  C   UNL     1      -7.269  14.969  67.220  1.00  0.00    -0.175 C  
HETATM   21  C   UNL     1      -7.221  16.141  68.147  1.00  0.00    -0.134 C  
HETATM   22  N   UNL     1      -8.392  16.432  68.793  1.00  0.00    -0.231 N  
HETATM   23  O   UNL     1      -6.242  16.876  68.236  1.00  0.00    -0.130 OA 
HETATM   24  H   UNL     1      -8.470  17.345  69.242  1.00  0.00     0.000 HD 
ENDBRANCH  12  13
ENDBRANCH  11  12
ENDBRANCH   8  11
ENDBRANCH   7   8
ENDBRANCH   5   7
TORSDOF 5
ENDMDL
MODEL      268
REMARK 921   NORMALIZED FREE ENERGY PREDICTED BY IDOCK:   -3.41 KCAL/MOL
REMARK 922        TOTAL FREE ENERGY PREDICTED BY IDOCK:   -5.04 KCAL/MOL
REMARK 923 INTER-LIGAND FREE ENERGY PREDICTED BY IDOCK:   -4.84 KCAL/MOL
REMARK 924 INTRA-LIGAND FREE ENERGY PREDICTED BY IDOCK:   -0.20 KCAL/MOL
REMARK 927      BINDING AFFINITY PREDICTED BY RF-SCORE:    0.00 PKD
ROOT
HETATM    1  C   UNL     1      -6.168   4.950  70.923  1.00  0.00    -0.019 C  
HETATM    2  C   UNL     1      -7.198   5.460  71.946  1.00  0.00    -0.086 C  
HETATM    3  C   UNL     1      -6.447   5.861  73.229  1.00  0.00    -0.072 C  
HETATM    4  C   UNL     1      -8.184   4.332  72.302  1.00  0.00    -0.103 C  
HETATM    5  N   UNL     1      -7.913   6.661  71.466  1.00  0.00    -0.103 NA 
HETATM    6  H   UNL     1      -7.272   7.452  71.397  1.00  0.00     0.000 HD 
ENDROOT
BRANCH   5   7
HETATM    7  C   UNL     1      -8.633   6.476  70.202  1.00  0.00    -0.140 C  
BRANCH   7   8
HETATM    8  C   UNL     1      -8.193   7.474  69.110  1.00  0.00    -0.131 C  
HETATM    9  H   UNL     1      -7.056   7.451  67.495  1.00  0.00     0.000 HD 
HETATM   10  O   UNL     1      -7.326   6.836  68.167  1.00  0.00    -0.091 OA 
BRANCH   8  11
HETATM   11  C   UNL     1      -9.448   8.027  68.411  1.00  0.00    -0.145 C  
BRANCH  11  12
HETATM   12  O   UNL     1      -9.222   9.371  67.983  1.00  0.00    -0.130 OA 
BRANCH  12  13
HETATM   13  C   UNL     1      -9.246   9.672  66.644  1.00  0.00    -0.151 A  
HETATM   14  C   UNL     1      -8.365   8.854  65.912  1.00  0.00    -0.132 A  
HETATM   15  C   UNL     1      -8.306   8.903  64.519  1.00  0.00    -0.178 A  
HETATM   16  C   UNL     1      -9.173   9.739  63.831  1.00  0.00    -0.248 A  
HETATM   17  C   UNL     1     -10.072  10.538  64.539  1.00  0.00    -0.332 A  
HETATM   18  C   UNL     1     -10.099  10.558  65.953  1.00  0.00    -0.323 A  
HETATM   19  C   UNL     1     -11.151  11.418  66.602  1.00  0.00    -0.333 C  
HETATM   20  C   UNL     1     -11.692  12.538  65.732  1.00  0.00    -0.478 C  
HETATM   21  C   UNL     1     -11.940  12.110  64.321  1.00  0.00    -0.380 C  
HETATM   22  N   UNL     1     -11.016  11.252  63.792  1.00  0.00    -0.532 N  
HETATM   23  O   UNL     1     -12.838  12.587  63.632  1.00  0.00    -0.731 OA 
HETATM   24  H   UNL     1     -11.013  11.124  62.780  1.00  0.00     0.000 HD 
ENDBRANCH  12  13
ENDBRANCH  11  12
ENDBRANCH   8  11
ENDBRANCH   7   8
ENDBRANCH   5   7
TORSDOF 5
ENDMDL
MODEL      269
REMARK 921   NORMALIZED FREE ENERGY PREDICTED BY IDOCK:   -3.40 KCAL/MOL
REMARK 922        TOTAL FREE ENERGY PREDICTED BY IDOCK:   -5.02 KCAL/MOL
REMARK 923 INTER-LIGAND FREE ENERGY PREDICTED BY IDOCK:   -4.59 KCAL/MOL
REMARK 924 INTRA-LIGAND FREE ENERGY PREDICTED BY IDOCK:   -0.44 KCAL/MOL
REMARK 927      BINDING AFFINITY PREDICTED BY RF-SCORE:    0.00 PKD
ROOT
HETATM    1  C   UNL     1      -8.272   9.050  66.860  1.00  0.00    -0.116 C  
HETATM    2  C   UNL     1      -9.599   9.261  67.611  1.00  0.00    -0.142 C  
HETATM    3  C   UNL     1      -9.594   8.362  68.861  1.00  0.00    -0.153 C  
HETATM    4  C   UNL     1     -10.778   8.831  66.718  1.00  0.00    -0.088 C  
HETATM    5  N   UNL     1      -9.763  10.653  68.075  1.00  0.00    -0.154 NA 
HETATM    6  H   UNL     1      -9.074  10.871  68.795  1.00  0.00     0.000 HD 
ENDROOT
BRANCH   5   7
HETATM    7  C   UNL     1      -9.720  11.659  67.008  1.00  0.00    -0.186 C  
BRANCH   7   8
HETATM    8  C   UNL     1     -10.956  12.584  67.006  1.00  0.00    -0.267 C  
HETATM    9  H   UNL     1     -12.059  13.536  68.339  1.00  0.00     0.000 HD 
HETATM   10  O   UNL     1     -11.298  12.967  68.341  1.00  0.00    -0.253 OA 
BRANCH   8  11
HETATM   11  C   UNL     1     -10.646  13.822  66.145  1.00  0.00    -0.291 C  
BRANCH  11  12
HETATM   12  O   UNL     1      -9.466  14.470  66.623  1.00  0.00    -0.257 OA 
BRANCH  12  13
HETATM   13  C   UNL     1      -9.399  15.841  66.630  1.00  0.00    -0.258 A  
HETATM   14  C   UNL     1     -10.503  16.418  65.974  1.00  0.00    -0.333 A  
HETATM   15  C   UNL     1     -10.706  17.798  65.956  1.00  0.00    -0.119 A  
HETATM   16  C   UNL     1      -9.829  18.623  66.645  1.00  0.00    -0.377 A  
HETATM   17  C   UNL     1      -8.744  18.067  67.323  1.00  0.00    -0.243 A  
HETATM   18  C   UNL     1      -8.478  16.678  67.295  1.00  0.00    -0.214 A  
HETATM   19  C   UNL     1      -7.311  16.190  68.110  1.00  0.00    -0.137 C  
HETATM   20  C   UNL     1      -6.263  17.243  68.427  1.00  0.00    -0.153 C  
HETATM   21  C   UNL     1      -6.860  18.559  68.812  1.00  0.00    -0.271 C  
HETATM   22  N   UNL     1      -7.977  18.929  68.115  1.00  0.00    -0.289 N  
HETATM   23  O   UNL     1      -6.321  19.323  69.609  1.00  0.00    -0.284 OA 
HETATM   24  H   UNL     1      -8.273  19.903  68.177  1.00  0.00     0.000 HD 
ENDBRANCH  12  13
ENDBRANCH  11  12
ENDBRANCH   8  11
ENDBRANCH   7   8
ENDBRANCH   5   7
TORSDOF 5
ENDMDL
MODEL      270
REMARK 921   NORMALIZED FREE ENERGY PREDICTED BY IDOCK:   -3.39 KCAL/MOL
REMARK 922        TOTAL FREE ENERGY PREDICTED BY IDOCK:   -5.01 KCAL/MOL
REMARK 923 INTER-LIGAND FREE ENERGY PREDICTED BY IDOCK:   -5.97 KCAL/MOL
REMARK 924 INTRA-LIGAND FREE ENERGY PREDICTED BY IDOCK:    0.96 KCAL/MOL
REMARK 927      BINDING AFFINITY PREDICTED BY RF-SCORE:    0.00 PKD
ROOT
HETATM    1  C   UNL     1     -13.325   9.345  70.654  1.00  0.00     0.202 C  
HETATM    2  C   UNL     1     -11.979  10.078  70.798  1.00  0.00    -0.335 C  
HETATM    3  C   UNL     1     -11.041   9.202  71.649  1.00  0.00    -0.445 C  
HETATM    4  C   UNL     1     -12.187  11.413  71.537  1.00  0.00    -0.017 C  
HETATM    5  N   UNL     1     -11.315  10.288  69.495  1.00  0.00    -0.303 NA 
HETATM    6  H   UNL     1     -11.029   9.395  69.094  1.00  0.00     0.000 HD 
ENDROOT
BRANCH   5   7
HETATM    7  C   UNL     1     -12.108  11.052  68.525  1.00  0.00     0.004 C  
BRANCH   7   8
HETATM    8  C   UNL     1     -11.306  11.429  67.260  1.00  0.00    -0.275 C  
HETATM    9  H   UNL     1     -11.674  12.235  65.495  1.00  0.00     0.000 HD 
HETATM   10  O   UNL     1     -12.167  12.003  66.273  1.00  0.00    -0.548 OA 
BRANCH   8  11
HETATM   11  C   UNL     1     -10.194  12.417  67.656  1.00  0.00    -0.207 C  
BRANCH  11  12
HETATM   12  O   UNL     1     -10.543  13.740  67.248  1.00  0.00    -0.271 OA 
BRANCH  12  13
HETATM   13  C   UNL     1     -10.488  14.769  68.155  1.00  0.00    -0.239 A  
HETATM   14  C   UNL     1      -9.660  15.814  67.704  1.00  0.00    -0.220 A  
HETATM   15  C   UNL     1      -9.544  17.013  68.409  1.00  0.00    -0.277 A  
HETATM   16  C   UNL     1     -10.300  17.204  69.556  1.00  0.00    -0.117 A  
HETATM   17  C   UNL     1     -11.146  16.188  70.004  1.00  0.00    -0.363 A  
HETATM   18  C   UNL     1     -11.226  14.939  69.346  1.00  0.00    -0.302 A  
HETATM   19  C   UNL     1     -12.215  13.943  69.890  1.00  0.00    -0.393 C  
HETATM   20  C   UNL     1     -12.613  14.161  71.340  1.00  0.00    -0.445 C  
HETATM   21  C   UNL     1     -12.846  15.601  71.669  1.00  0.00    -0.463 C  
HETATM   22  N   UNL     1     -11.987  16.488  71.081  1.00  0.00    -0.448 N  
HETATM   23  O   UNL     1     -13.667  15.964  72.507  1.00  0.00    -0.502 OA 
HETATM   24  H   UNL     1     -11.958  17.437  71.454  1.00  0.00     0.000 HD 
ENDBRANCH  12  13
ENDBRANCH  11  12
ENDBRANCH   8  11
ENDBRANCH   7   8
ENDBRANCH   5   7
TORSDOF 5
ENDMDL
MODEL      271
REMARK 921   NORMALIZED FREE ENERGY PREDICTED BY IDOCK:   -3.36 KCAL/MOL
REMARK 922        TOTAL FREE ENERGY PREDICTED BY IDOCK:   -4.97 KCAL/MOL
REMARK 923 INTER-LIGAND FREE ENERGY PREDICTED BY IDOCK:   -4.38 KCAL/MOL
REMARK 924 INTRA-LIGAND FREE ENERGY PREDICTED BY IDOCK:   -0.59 KCAL/MOL
REMARK 927      BINDING AFFINITY PREDICTED BY RF-SCORE:    0.00 PKD
ROOT
HETATM    1  C   UNL     1      -6.694   8.505  66.409  1.00  0.00    -0.070 C  
HETATM    2  C   UNL     1      -8.063   7.837  66.627  1.00  0.00    -0.111 C  
HETATM    3  C   UNL     1      -7.959   6.367  66.181  1.00  0.00    -0.112 C  
HETATM    4  C   UNL     1      -9.127   8.527  65.753  1.00  0.00    -0.222 C  
HETATM    5  N   UNL     1      -8.462   7.834  68.049  1.00  0.00    -0.123 NA 
HETATM    6  H   UNL     1      -7.843   7.231  68.591  1.00  0.00     0.000 HD 
ENDROOT
BRANCH   5   7
HETATM    7  C   UNL     1      -8.542   9.164  68.661  1.00  0.00    -0.128 C  
BRANCH   7   8
HETATM    8  C   UNL     1      -9.793   9.342  69.548  1.00  0.00    -0.181 C  
HETATM    9  H   UNL     1     -10.214   9.363  71.478  1.00  0.00     0.000 HD 
HETATM   10  O   UNL     1      -9.444   9.253  70.933  1.00  0.00    -0.258 OA 
BRANCH   8  11
HETATM   11  C   UNL     1     -10.433  10.707  69.233  1.00  0.00    -0.227 C  
BRANCH  11  12
HETATM   12  O   UNL     1     -10.076  11.124  67.914  1.00  0.00    -0.170 OA 
BRANCH  12  13
HETATM   13  C   UNL     1     -10.301  12.421  67.527  1.00  0.00    -0.215 A  
HETATM   14  C   UNL     1     -11.645  12.629  67.162  1.00  0.00    -0.434 A  
HETATM   15  C   UNL     1     -12.130  13.897  66.843  1.00  0.00    -0.467 A  
HETATM   16  C   UNL     1     -11.284  14.993  66.938  1.00  0.00    -0.323 A  
HETATM   17  C   UNL     1      -9.956  14.810  67.324  1.00  0.00    -0.231 A  
HETATM   18  C   UNL     1      -9.424  13.525  67.582  1.00  0.00    -0.222 A  
HETATM   19  C   UNL     1      -7.993  13.460  68.046  1.00  0.00    -0.148 C  
HETATM   20  C   UNL     1      -7.145  14.667  67.685  1.00  0.00    -0.203 C  
HETATM   21  C   UNL     1      -7.866  15.963  67.882  1.00  0.00    -0.138 C  
HETATM   22  N   UNL     1      -9.190  15.961  67.540  1.00  0.00    -0.206 N  
HETATM   23  O   UNL     1      -7.291  16.998  68.207  1.00  0.00    -0.187 OA 
HETATM   24  H   UNL     1      -9.653  16.864  67.435  1.00  0.00     0.000 HD 
ENDBRANCH  12  13
ENDBRANCH  11  12
ENDBRANCH   8  11
ENDBRANCH   7   8
ENDBRANCH   5   7
TORSDOF 5
ENDMDL
MODEL      272
REMARK 921   NORMALIZED FREE ENERGY PREDICTED BY IDOCK:   -3.35 KCAL/MOL
REMARK 922        TOTAL FREE ENERGY PREDICTED BY IDOCK:   -4.96 KCAL/MOL
REMARK 923 INTER-LIGAND FREE ENERGY PREDICTED BY IDOCK:   -4.36 KCAL/MOL
REMARK 924 INTRA-LIGAND FREE ENERGY PREDICTED BY IDOCK:   -0.60 KCAL/MOL
REMARK 927      BINDING AFFINITY PREDICTED BY RF-SCORE:    0.00 PKD
ROOT
HETATM    1  C   UNL     1      -7.702   7.254  63.974  1.00  0.00    -0.120 C  
HETATM    2  C   UNL     1      -6.789   6.880  65.156  1.00  0.00    -0.051 C  
HETATM    3  C   UNL     1      -5.702   7.963  65.287  1.00  0.00    -0.037 C  
HETATM    4  C   UNL     1      -6.091   5.536  64.872  1.00  0.00    -0.022 C  
HETATM    5  N   UNL     1      -7.522   6.839  66.437  1.00  0.00    -0.073 NA 
HETATM    6  H   UNL     1      -7.834   7.775  66.698  1.00  0.00     0.000 HD 
ENDROOT
BRANCH   5   7
HETATM    7  C   UNL     1      -8.649   5.900  66.464  1.00  0.00    -0.123 C  
BRANCH   7   8
HETATM    8  C   UNL     1      -9.948   6.538  67.000  1.00  0.00    -0.166 C  
HETATM    9  H   UNL     1     -11.397   6.050  68.250  1.00  0.00     0.000 HD 
HETATM   10  O   UNL     1     -10.597   5.657  67.920  1.00  0.00    -0.224 OA 
BRANCH   8  11
HETATM   11  C   UNL     1      -9.598   7.876  67.678  1.00  0.00    -0.150 C  
BRANCH  11  12
HETATM   12  O   UNL     1     -10.703   8.777  67.588  1.00  0.00    -0.234 OA 
BRANCH  12  13
HETATM   13  C   UNL     1     -10.543   9.989  66.966  1.00  0.00    -0.212 A  
HETATM   14  C   UNL     1     -10.090   9.837  65.641  1.00  0.00    -0.282 A  
HETATM   15  C   UNL     1      -9.965  10.928  64.780  1.00  0.00    -0.366 A  
HETATM   16  C   UNL     1     -10.345  12.188  65.219  1.00  0.00    -0.310 A  
HETATM   17  C   UNL     1     -10.821  12.353  66.520  1.00  0.00    -0.250 A  
HETATM   18  C   UNL     1     -10.888  11.275  67.433  1.00  0.00    -0.311 A  
HETATM   19  C   UNL     1     -11.471  11.566  68.790  1.00  0.00    -0.349 C  
HETATM   20  C   UNL     1     -11.426  13.025  69.209  1.00  0.00    -0.348 C  
HETATM   21  C   UNL     1     -11.787  13.960  68.099  1.00  0.00    -0.372 C  
HETATM   22  N   UNL     1     -11.321  13.615  66.860  1.00  0.00    -0.315 N  
HETATM   23  O   UNL     1     -12.353  15.032  68.294  1.00  0.00    -0.043 OA 
HETATM   24  H   UNL     1     -11.339  14.329  66.132  1.00  0.00     0.000 HD 
ENDBRANCH  12  13
ENDBRANCH  11  12
ENDBRANCH   8  11
ENDBRANCH   7   8
ENDBRANCH   5   7
TORSDOF 5
ENDMDL
MODEL      273
REMARK 921   NORMALIZED FREE ENERGY PREDICTED BY IDOCK:   -3.34 KCAL/MOL
REMARK 922        TOTAL FREE ENERGY PREDICTED BY IDOCK:   -4.94 KCAL/MOL
REMARK 923 INTER-LIGAND FREE ENERGY PREDICTED BY IDOCK:   -4.45 KCAL/MOL
REMARK 924 INTRA-LIGAND FREE ENERGY PREDICTED BY IDOCK:   -0.50 KCAL/MOL
REMARK 927      BINDING AFFINITY PREDICTED BY RF-SCORE:    0.00 PKD
ROOT
HETATM    1  C   UNL     1      -6.045   5.533  70.993  1.00  0.00    -0.029 C  
HETATM    2  C   UNL     1      -7.507   5.997  70.868  1.00  0.00    -0.091 C  
HETATM    3  C   UNL     1      -7.936   6.607  72.215  1.00  0.00    -0.100 C  
HETATM    4  C   UNL     1      -8.416   4.787  70.580  1.00  0.00    -0.106 C  
HETATM    5  N   UNL     1      -7.674   7.045  69.841  1.00  0.00    -0.106 NA 
HETATM    6  H   UNL     1      -7.203   7.903  70.129  1.00  0.00     0.000 HD 
ENDROOT
BRANCH   5   7
HETATM    7  C   UNL     1      -7.242   6.653  68.495  1.00  0.00    -0.085 C  
BRANCH   7   8
HETATM    8  C   UNL     1      -8.323   6.902  67.422  1.00  0.00    -0.122 C  
HETATM    9  H   UNL     1      -9.503   5.814  66.271  1.00  0.00     0.000 HD 
HETATM   10  O   UNL     1      -8.838   5.661  66.931  1.00  0.00    -0.113 OA 
BRANCH   8  11
HETATM   11  C   UNL     1      -9.448   7.752  68.041  1.00  0.00    -0.144 C  
BRANCH  11  12
HETATM   12  O   UNL     1     -10.337   8.210  67.022  1.00  0.00    -0.284 OA 
BRANCH  12  13
HETATM   13  C   UNL     1     -10.217   9.489  66.539  1.00  0.00    -0.237 A  
HETATM   14  C   UNL     1      -9.710   9.502  65.225  1.00  0.00    -0.268 A  
HETATM   15  C   UNL     1      -9.610  10.683  64.490  1.00  0.00    -0.341 A  
HETATM   16  C   UNL     1     -10.068  11.870  65.044  1.00  0.00    -0.297 A  
HETATM   17  C   UNL     1     -10.598  11.872  66.335  1.00  0.00    -0.248 A  
HETATM   18  C   UNL     1     -10.643  10.699  67.125  1.00  0.00    -0.312 A  
HETATM   19  C   UNL     1     -11.288  10.815  68.480  1.00  0.00    -0.360 C  
HETATM   20  C   UNL     1     -11.333  12.221  69.053  1.00  0.00    -0.333 C  
HETATM   21  C   UNL     1     -11.701  13.252  68.034  1.00  0.00    -0.359 C  
HETATM   22  N   UNL     1     -11.174  13.065  66.786  1.00  0.00    -0.287 N  
HETATM   23  O   UNL     1     -12.327  14.269  68.318  1.00  0.00    -0.224 OA 
HETATM   24  H   UNL     1     -11.202  13.852  66.137  1.00  0.00     0.000 HD 
ENDBRANCH  12  13
ENDBRANCH  11  12
ENDBRANCH   8  11
ENDBRANCH   7   8
ENDBRANCH   5   7
TORSDOF 5
ENDMDL
MODEL      274
REMARK 921   NORMALIZED FREE ENERGY PREDICTED BY IDOCK:   -3.34 KCAL/MOL
REMARK 922        TOTAL FREE ENERGY PREDICTED BY IDOCK:   -4.94 KCAL/MOL
REMARK 923 INTER-LIGAND FREE ENERGY PREDICTED BY IDOCK:   -4.54 KCAL/MOL
REMARK 924 INTRA-LIGAND FREE ENERGY PREDICTED BY IDOCK:   -0.40 KCAL/MOL
REMARK 927      BINDING AFFINITY PREDICTED BY RF-SCORE:    0.00 PKD
ROOT
HETATM    1  C   UNL     1     -11.800  14.356  66.651  1.00  0.00    -0.417 C  
HETATM    2  C   UNL     1     -11.093  14.615  67.994  1.00  0.00    -0.281 C  
HETATM    3  C   UNL     1     -11.169  16.123  68.296  1.00  0.00    -0.343 C  
HETATM    4  C   UNL     1      -9.608  14.223  67.886  1.00  0.00    -0.221 C  
HETATM    5  N   UNL     1     -11.750  13.912  69.115  1.00  0.00    -0.313 NA 
HETATM    6  H   UNL     1     -12.677  14.302  69.284  1.00  0.00     0.000 HD 
ENDROOT
BRANCH   5   7
HETATM    7  C   UNL     1     -11.830  12.456  68.957  1.00  0.00    -0.300 C  
BRANCH   7   8
HETATM    8  C   UNL     1     -11.735  11.701  70.300  1.00  0.00    -0.266 C  
HETATM    9  H   UNL     1     -12.515  11.852  72.108  1.00  0.00     0.000 HD 
HETATM   10  O   UNL     1     -12.574  12.317  71.282  1.00  0.00    -0.343 OA 
BRANCH   8  11
HETATM   11  C   UNL     1     -12.146  10.234  70.073  1.00  0.00    -0.156 C  
BRANCH  11  12
HETATM   12  O   UNL     1     -11.607   9.407  71.105  1.00  0.00    -0.290 OA 
BRANCH  12  13
HETATM   13  C   UNL     1     -10.642   8.481  70.800  1.00  0.00    -0.206 A  
HETATM   14  C   UNL     1     -10.730   8.062  69.458  1.00  0.00    -0.185 A  
HETATM   15  C   UNL     1      -9.782   7.210  68.893  1.00  0.00    -0.146 A  
HETATM   16  C   UNL     1      -8.694   6.803  69.652  1.00  0.00    -0.137 A  
HETATM   17  C   UNL     1      -8.576   7.230  70.975  1.00  0.00    -0.128 A  
HETATM   18  C   UNL     1      -9.562   8.035  71.591  1.00  0.00    -0.218 A  
HETATM   19  C   UNL     1      -9.296   8.478  73.005  1.00  0.00    -0.139 C  
HETATM   20  C   UNL     1      -8.311   7.614  73.774  1.00  0.00    -0.240 C  
HETATM   21  C   UNL     1      -7.128   7.211  72.953  1.00  0.00    -0.072 C  
HETATM   22  N   UNL     1      -7.390   6.907  71.645  1.00  0.00    -0.083 N  
HETATM   23  O   UNL     1      -6.013   7.038  73.438  1.00  0.00    -0.056 OA 
HETATM   24  H   UNL     1      -6.671   6.409  71.121  1.00  0.00     0.000 HD 
ENDBRANCH  12  13
ENDBRANCH  11  12
ENDBRANCH   8  11
ENDBRANCH   7   8
ENDBRANCH   5   7
TORSDOF 5
ENDMDL
MODEL      275
REMARK 921   NORMALIZED FREE ENERGY PREDICTED BY IDOCK:   -3.33 KCAL/MOL
REMARK 922        TOTAL FREE ENERGY PREDICTED BY IDOCK:   -4.93 KCAL/MOL
REMARK 923 INTER-LIGAND FREE ENERGY PREDICTED BY IDOCK:   -4.43 KCAL/MOL
REMARK 924 INTRA-LIGAND FREE ENERGY PREDICTED BY IDOCK:   -0.50 KCAL/MOL
REMARK 927      BINDING AFFINITY PREDICTED BY RF-SCORE:    0.00 PKD
ROOT
HETATM    1  C   UNL     1      -8.298   5.403  65.645  1.00  0.00    -0.130 C  
HETATM    2  C   UNL     1      -8.667   6.413  66.746  1.00  0.00    -0.119 C  
HETATM    3  C   UNL     1      -8.083   5.909  68.078  1.00  0.00    -0.105 C  
HETATM    4  C   UNL     1     -10.198   6.489  66.894  1.00  0.00    -0.279 C  
HETATM    5  N   UNL     1      -8.090   7.749  66.494  1.00  0.00    -0.108 NA 
HETATM    6  H   UNL     1      -7.073   7.716  66.568  1.00  0.00     0.000 HD 
ENDROOT
BRANCH   5   7
HETATM    7  C   UNL     1      -8.489   8.354  65.219  1.00  0.00    -0.171 C  
BRANCH   7   8
HETATM    8  C   UNL     1      -8.711   9.878  65.322  1.00  0.00    -0.160 C  
HETATM    9  H   UNL     1     -10.116  11.177  64.834  1.00  0.00     0.000 HD 
HETATM   10  O   UNL     1      -9.980  10.239  64.770  1.00  0.00    -0.331 OA 
BRANCH   8  11
HETATM   11  C   UNL     1      -8.622  10.291  66.803  1.00  0.00    -0.127 C  
BRANCH  11  12
HETATM   12  O   UNL     1      -9.765  11.067  67.166  1.00  0.00    -0.171 OA 
BRANCH  12  13
HETATM   13  C   UNL     1      -9.596  12.262  67.820  1.00  0.00    -0.200 A  
HETATM   14  C   UNL     1      -8.404  12.902  67.431  1.00  0.00    -0.190 A  
HETATM   15  C   UNL     1      -8.080  14.183  67.880  1.00  0.00    -0.154 A  
HETATM   16  C   UNL     1      -8.975  14.867  68.689  1.00  0.00    -0.184 A  
HETATM   17  C   UNL     1     -10.174  14.258  69.063  1.00  0.00    -0.149 A  
HETATM   18  C   UNL     1     -10.490  12.934  68.679  1.00  0.00    -0.231 A  
HETATM   19  C   UNL     1     -11.837  12.406  69.098  1.00  0.00    -0.352 C  
HETATM   20  C   UNL     1     -12.461  13.111  70.289  1.00  0.00    -0.233 C  
HETATM   21  C   UNL     1     -12.300  14.597  70.235  1.00  0.00    -0.349 C  
HETATM   22  N   UNL     1     -11.098  15.045  69.759  1.00  0.00    -0.265 N  
HETATM   23  O   UNL     1     -13.132  15.371  70.701  1.00  0.00    -0.426 OA 
HETATM   24  H   UNL     1     -10.859  16.023  69.924  1.00  0.00     0.000 HD 
ENDBRANCH  12  13
ENDBRANCH  11  12
ENDBRANCH   8  11
ENDBRANCH   7   8
ENDBRANCH   5   7
TORSDOF 5
ENDMDL
MODEL      276
REMARK 921   NORMALIZED FREE ENERGY PREDICTED BY IDOCK:   -3.30 KCAL/MOL
REMARK 922        TOTAL FREE ENERGY PREDICTED BY IDOCK:   -4.90 KCAL/MOL
REMARK 923 INTER-LIGAND FREE ENERGY PREDICTED BY IDOCK:   -4.98 KCAL/MOL
REMARK 924 INTRA-LIGAND FREE ENERGY PREDICTED BY IDOCK:    0.08 KCAL/MOL
REMARK 927      BINDING AFFINITY PREDICTED BY RF-SCORE:    0.00 PKD
ROOT
HETATM    1  C   UNL     1      -7.698  11.605  67.100  1.00  0.00    -0.159 C  
HETATM    2  C   UNL     1      -7.752  11.779  68.628  1.00  0.00    -0.126 C  
HETATM    3  C   UNL     1      -7.749  13.287  68.942  1.00  0.00     0.065 C  
HETATM    4  C   UNL     1      -6.498  11.156  69.270  1.00  0.00    -0.088 C  
HETATM    5  N   UNL     1      -8.985  11.215  69.212  1.00  0.00    -0.389 NA 
HETATM    6  H   UNL     1      -9.799  11.750  68.908  1.00  0.00     0.000 HD 
ENDROOT
BRANCH   5   7
HETATM    7  C   UNL     1      -9.186   9.786  68.946  1.00  0.00    -0.155 C  
BRANCH   7   8
HETATM    8  C   UNL     1      -9.972   9.523  67.643  1.00  0.00    -0.180 C  
HETATM    9  H   UNL     1     -11.206   8.149  66.945  1.00  0.00     0.000 HD 
HETATM   10  O   UNL     1     -10.722   8.310  67.747  1.00  0.00    -0.195 OA 
BRANCH   8  11
HETATM   11  C   UNL     1     -10.903  10.721  67.379  1.00  0.00    -0.290 C  
BRANCH  11  12
HETATM   12  O   UNL     1     -12.087  10.607  68.169  1.00  0.00    -0.403 OA 
BRANCH  12  13
HETATM   13  C   UNL     1     -12.327  11.515  69.169  1.00  0.00    -0.004 A  
HETATM   14  C   UNL     1     -12.704  10.880  70.368  1.00  0.00    -0.326 A  
HETATM   15  C   UNL     1     -12.887  11.597  71.550  1.00  0.00    -0.469 A  
HETATM   16  C   UNL     1     -12.643  12.963  71.563  1.00  0.00    -0.269 A  
HETATM   17  C   UNL     1     -12.243  13.605  70.391  1.00  0.00    -0.363 A  
HETATM   18  C   UNL     1     -12.120  12.911  69.164  1.00  0.00    -0.216 A  
HETATM   19  C   UNL     1     -11.628  13.700  67.980  1.00  0.00    -0.368 C  
HETATM   20  C   UNL     1     -11.822  15.203  68.084  1.00  0.00    -0.252 C  
HETATM   21  C   UNL     1     -11.497  15.739  69.442  1.00  0.00    -0.355 C  
HETATM   22  N   UNL     1     -11.874  14.951  70.495  1.00  0.00    -0.284 N  
HETATM   23  O   UNL     1     -11.039  16.864  69.617  1.00  0.00    -0.152 OA 
HETATM   24  H   UNL     1     -11.887  15.375  71.423  1.00  0.00     0.000 HD 
ENDBRANCH  12  13
ENDBRANCH  11  12
ENDBRANCH   8  11
ENDBRANCH   7   8
ENDBRANCH   5   7
TORSDOF 5
ENDMDL
MODEL      277
REMARK 921   NORMALIZED FREE ENERGY PREDICTED BY IDOCK:   -3.30 KCAL/MOL
REMARK 922        TOTAL FREE ENERGY PREDICTED BY IDOCK:   -4.90 KCAL/MOL
REMARK 923 INTER-LIGAND FREE ENERGY PREDICTED BY IDOCK:   -4.12 KCAL/MOL
REMARK 924 INTRA-LIGAND FREE ENERGY PREDICTED BY IDOCK:   -0.77 KCAL/MOL
REMARK 927      BINDING AFFINITY PREDICTED BY RF-SCORE:    0.00 PKD
ROOT
HETATM    1  C   UNL     1      -9.005  10.717  67.775  1.00  0.00    -0.140 C  
HETATM    2  C   UNL     1      -8.133   9.898  68.744  1.00  0.00    -0.102 C  
HETATM    3  C   UNL     1      -6.714  10.496  68.737  1.00  0.00    -0.054 C  
HETATM    4  C   UNL     1      -8.040   8.440  68.258  1.00  0.00    -0.120 C  
HETATM    5  N   UNL     1      -8.628   9.966  70.134  1.00  0.00    -0.321 NA 
HETATM    6  H   UNL     1      -8.525  10.912  70.502  1.00  0.00     0.000 HD 
ENDROOT
BRANCH   5   7
HETATM    7  C   UNL     1     -10.007   9.497  70.312  1.00  0.00    -0.259 C  
BRANCH   7   8
HETATM    8  C   UNL     1     -10.110   8.290  71.269  1.00  0.00    -0.198 C  
HETATM    9  H   UNL     1      -9.797   7.926  73.185  1.00  0.00     0.000 HD 
HETATM   10  O   UNL     1      -9.733   8.669  72.596  1.00  0.00    -0.255 OA 
BRANCH   8  11
HETATM   11  C   UNL     1     -11.555   7.760  71.242  1.00  0.00    -0.277 C  
BRANCH  11  12
HETATM   12  O   UNL     1     -11.558   6.350  71.013  1.00  0.00    -0.324 OA 
BRANCH  12  13
HETATM   13  C   UNL     1     -11.029   5.849  69.849  1.00  0.00    -0.374 A  
HETATM   14  C   UNL     1     -11.515   6.536  68.720  1.00  0.00    -0.099 A  
HETATM   15  C   UNL     1     -11.030   6.276  67.439  1.00  0.00    -0.447 A  
HETATM   16  C   UNL     1     -10.006   5.355  67.273  1.00  0.00    -0.198 A  
HETATM   17  C   UNL     1      -9.493   4.683  68.384  1.00  0.00    -0.145 A  
HETATM   18  C   UNL     1     -10.019   4.879  69.683  1.00  0.00    -0.302 A  
HETATM   19  C   UNL     1      -9.347   4.140  70.809  1.00  0.00    -0.223 C  
HETATM   20  C   UNL     1      -8.565   2.906  70.392  1.00  0.00    -0.112 C  
HETATM   21  C   UNL     1      -7.767   3.118  69.145  1.00  0.00    -0.047 C  
HETATM   22  N   UNL     1      -8.370   3.875  68.178  1.00  0.00    -0.090 N  
HETATM   23  O   UNL     1      -6.697   2.551  68.940  1.00  0.00    -0.033 OA 
HETATM   24  H   UNL     1      -7.972   3.847  67.239  1.00  0.00     0.000 HD 
ENDBRANCH  12  13
ENDBRANCH  11  12
ENDBRANCH   8  11
ENDBRANCH   7   8
ENDBRANCH   5   7
TORSDOF 5
ENDMDL
MODEL      278
REMARK 921   NORMALIZED FREE ENERGY PREDICTED BY IDOCK:   -3.29 KCAL/MOL
REMARK 922        TOTAL FREE ENERGY PREDICTED BY IDOCK:   -4.89 KCAL/MOL
REMARK 923 INTER-LIGAND FREE ENERGY PREDICTED BY IDOCK:   -4.95 KCAL/MOL
REMARK 924 INTRA-LIGAND FREE ENERGY PREDICTED BY IDOCK:    0.06 KCAL/MOL
REMARK 927      BINDING AFFINITY PREDICTED BY RF-SCORE:    0.00 PKD
ROOT
HETATM    1  C   UNL     1      -6.540   5.331  70.275  1.00  0.00    -0.035 C  
HETATM    2  C   UNL     1      -7.051   5.978  71.575  1.00  0.00    -0.078 C  
HETATM    3  C   UNL     1      -5.938   5.874  72.635  1.00  0.00    -0.037 C  
HETATM    4  C   UNL     1      -8.279   5.207  72.095  1.00  0.00    -0.114 C  
HETATM    5  N   UNL     1      -7.357   7.412  71.402  1.00  0.00    -0.078 NA 
HETATM    6  H   UNL     1      -6.502   7.939  71.225  1.00  0.00     0.000 HD 
ENDROOT
BRANCH   5   7
HETATM    7  C   UNL     1      -8.358   7.701  70.369  1.00  0.00    -0.124 C  
BRANCH   7   8
HETATM    8  C   UNL     1      -8.118   9.053  69.664  1.00  0.00    -0.103 C  
HETATM    9  H   UNL     1      -6.811   9.817  68.396  1.00  0.00     0.000 HD 
HETATM   10  O   UNL     1      -6.958   8.985  68.830  1.00  0.00    -0.061 OA 
BRANCH   8  11
HETATM   11  C   UNL     1      -9.367   9.406  68.835  1.00  0.00    -0.154 C  
BRANCH  11  12
HETATM   12  O   UNL     1     -10.540   8.900  69.474  1.00  0.00    -0.230 OA 
BRANCH  12  13
HETATM   13  C   UNL     1     -11.392   9.765  70.114  1.00  0.00    -0.251 A  
HETATM   14  C   UNL     1     -11.997   9.162  71.234  1.00  0.00    -0.394 A  
HETATM   15  C   UNL     1     -12.813   9.886  72.104  1.00  0.00    -0.435 A  
HETATM   16  C   UNL     1     -12.994  11.245  71.894  1.00  0.00    -0.471 A  
HETATM   17  C   UNL     1     -12.381  11.865  70.804  1.00  0.00    -0.320 A  
HETATM   18  C   UNL     1     -11.608  11.137  69.870  1.00  0.00    -0.416 A  
HETATM   19  C   UNL     1     -10.951  11.925  68.768  1.00  0.00    -0.280 C  
HETATM   20  C   UNL     1     -11.593  13.269  68.468  1.00  0.00    -0.368 C  
HETATM   21  C   UNL     1     -11.976  14.018  69.705  1.00  0.00    -0.339 C  
HETATM   22  N   UNL     1     -12.482  13.258  70.724  1.00  0.00    -0.349 N  
HETATM   23  O   UNL     1     -11.963  15.244  69.767  1.00  0.00    -0.313 OA 
HETATM   24  H   UNL     1     -12.968  13.742  71.479  1.00  0.00     0.000 HD 
ENDBRANCH  12  13
ENDBRANCH  11  12
ENDBRANCH   8  11
ENDBRANCH   7   8
ENDBRANCH   5   7
TORSDOF 5
ENDMDL
MODEL      279
REMARK 921   NORMALIZED FREE ENERGY PREDICTED BY IDOCK:   -3.25 KCAL/MOL
REMARK 922        TOTAL FREE ENERGY PREDICTED BY IDOCK:   -4.83 KCAL/MOL
REMARK 923 INTER-LIGAND FREE ENERGY PREDICTED BY IDOCK:   -4.07 KCAL/MOL
REMARK 924 INTRA-LIGAND FREE ENERGY PREDICTED BY IDOCK:   -0.76 KCAL/MOL
REMARK 927      BINDING AFFINITY PREDICTED BY RF-SCORE:    0.00 PKD
ROOT
HETATM    1  C   UNL     1      -8.030  14.780  69.017  1.00  0.00    -0.152 C  
HETATM    2  C   UNL     1      -8.254  15.905  67.991  1.00  0.00    -0.148 C  
HETATM    3  C   UNL     1      -6.917  16.182  67.279  1.00  0.00    -0.234 C  
HETATM    4  C   UNL     1      -8.685  17.195  68.715  1.00  0.00    -0.235 C  
HETATM    5  N   UNL     1      -9.232  15.526  66.951  1.00  0.00    -0.222 NA 
HETATM    6  H   UNL     1      -8.858  14.778  66.368  1.00  0.00     0.000 HD 
ENDROOT
BRANCH   5   7
HETATM    7  C   UNL     1     -10.556  15.158  67.466  1.00  0.00    -0.269 C  
BRANCH   7   8
HETATM    8  C   UNL     1     -11.136  13.901  66.784  1.00  0.00    -0.303 C  
HETATM    9  H   UNL     1     -12.800  13.395  65.848  1.00  0.00     0.000 HD 
HETATM   10  O   UNL     1     -12.443  14.169  66.268  1.00  0.00    -0.466 OA 
BRANCH   8  11
HETATM   11  C   UNL     1     -10.182  13.466  65.656  1.00  0.00    -0.292 C  
BRANCH  11  12
HETATM   12  O   UNL     1      -9.018  12.850  66.207  1.00  0.00    -0.084 OA 
BRANCH  12  13
HETATM   13  C   UNL     1      -9.064  11.535  66.597  1.00  0.00    -0.190 A  
HETATM   14  C   UNL     1      -9.884  10.770  65.745  1.00  0.00    -0.292 A  
HETATM   15  C   UNL     1      -9.990   9.386  65.880  1.00  0.00    -0.327 A  
HETATM   16  C   UNL     1      -9.232   8.735  66.842  1.00  0.00    -0.195 A  
HETATM   17  C   UNL     1      -8.394   9.474  67.678  1.00  0.00    -0.125 A  
HETATM   18  C   UNL     1      -8.324  10.885  67.607  1.00  0.00    -0.116 A  
HETATM   19  C   UNL     1      -7.343  11.566  68.523  1.00  0.00    -0.104 C  
HETATM   20  C   UNL     1      -6.941  10.762  69.747  1.00  0.00    -0.141 C  
HETATM   21  C   UNL     1      -6.697   9.319  69.440  1.00  0.00    -0.048 C  
HETATM   22  N   UNL     1      -7.549   8.755  68.531  1.00  0.00    -0.096 N  
HETATM   23  O   UNL     1      -5.873   8.643  70.049  1.00  0.00    -0.028 OA 
HETATM   24  H   UNL     1      -7.570   7.737  68.470  1.00  0.00     0.000 HD 
ENDBRANCH  12  13
ENDBRANCH  11  12
ENDBRANCH   8  11
ENDBRANCH   7   8
ENDBRANCH   5   7
TORSDOF 5
ENDMDL
MODEL      280
REMARK 921   NORMALIZED FREE ENERGY PREDICTED BY IDOCK:   -3.25 KCAL/MOL
REMARK 922        TOTAL FREE ENERGY PREDICTED BY IDOCK:   -4.83 KCAL/MOL
REMARK 923 INTER-LIGAND FREE ENERGY PREDICTED BY IDOCK:   -4.77 KCAL/MOL
REMARK 924 INTRA-LIGAND FREE ENERGY PREDICTED BY IDOCK:   -0.06 KCAL/MOL
REMARK 927      BINDING AFFINITY PREDICTED BY RF-SCORE:    0.00 PKD
ROOT
HETATM    1  C   UNL     1      -7.054  13.975  67.686  1.00  0.00    -0.193 C  
HETATM    2  C   UNL     1      -6.683  12.921  68.744  1.00  0.00    -0.093 C  
HETATM    3  C   UNL     1      -6.156  13.654  69.991  1.00  0.00    -0.137 C  
HETATM    4  C   UNL     1      -5.555  12.018  68.209  1.00  0.00    -0.051 C  
HETATM    5  N   UNL     1      -7.849  12.121  69.169  1.00  0.00    -0.333 NA 
HETATM    6  H   UNL     1      -8.515  12.705  69.675  1.00  0.00     0.000 HD 
ENDROOT
BRANCH   5   7
HETATM    7  C   UNL     1      -8.524  11.404  68.081  1.00  0.00    -0.152 C  
BRANCH   7   8
HETATM    8  C   UNL     1     -10.060  11.394  68.233  1.00  0.00    -0.196 C  
HETATM    9  H   UNL     1     -11.377  10.981  69.646  1.00  0.00     0.000 HD 
HETATM   10  O   UNL     1     -10.432  10.987  69.553  1.00  0.00    -0.195 OA 
BRANCH   8  11
HETATM   11  C   UNL     1     -10.596  12.804  67.925  1.00  0.00    -0.221 C  
BRANCH  11  12
HETATM   12  O   UNL     1     -10.427  13.103  66.539  1.00  0.00    -0.273 OA 
BRANCH  12  13
HETATM   13  C   UNL     1     -10.497  14.405  66.111  1.00  0.00    -0.291 A  
HETATM   14  C   UNL     1     -11.026  14.495  64.809  1.00  0.00    -0.404 A  
HETATM   15  C   UNL     1     -11.297  15.726  64.211  1.00  0.00    -0.189 A  
HETATM   16  C   UNL     1     -11.090  16.893  64.932  1.00  0.00     0.029 A  
HETATM   17  C   UNL     1     -10.591  16.822  66.234  1.00  0.00    -0.190 A  
HETATM   18  C   UNL     1     -10.242  15.589  66.834  1.00  0.00    -0.279 A  
HETATM   19  C   UNL     1      -9.767  15.636  68.261  1.00  0.00    -0.201 C  
HETATM   20  C   UNL     1      -9.219  16.979  68.713  1.00  0.00    -0.252 C  
HETATM   21  C   UNL     1     -10.040  18.133  68.231  1.00  0.00    -0.386 C  
HETATM   22  N   UNL     1     -10.537  18.016  66.962  1.00  0.00    -0.347 N  
HETATM   23  O   UNL     1     -10.160  19.173  68.872  1.00  0.00    -0.416 OA 
HETATM   24  H   UNL     1     -10.893  18.860  66.513  1.00  0.00     0.000 HD 
ENDBRANCH  12  13
ENDBRANCH  11  12
ENDBRANCH   8  11
ENDBRANCH   7   8
ENDBRANCH   5   7
TORSDOF 5
ENDMDL
MODEL      281
REMARK 921   NORMALIZED FREE ENERGY PREDICTED BY IDOCK:   -3.24 KCAL/MOL
REMARK 922        TOTAL FREE ENERGY PREDICTED BY IDOCK:   -4.81 KCAL/MOL
REMARK 923 INTER-LIGAND FREE ENERGY PREDICTED BY IDOCK:   -4.46 KCAL/MOL
REMARK 924 INTRA-LIGAND FREE ENERGY PREDICTED BY IDOCK:   -0.35 KCAL/MOL
REMARK 927      BINDING AFFINITY PREDICTED BY RF-SCORE:    0.00 PKD
ROOT
HETATM    1  C   UNL     1     -10.000  13.840  65.164  1.00  0.00    -0.240 C  
HETATM    2  C   UNL     1     -10.724  15.000  65.870  1.00  0.00    -0.331 C  
HETATM    3  C   UNL     1     -11.655  15.680  64.850  1.00  0.00    -0.156 C  
HETATM    4  C   UNL     1      -9.697  16.043  66.349  1.00  0.00    -0.307 C  
HETATM    5  N   UNL     1     -11.569  14.533  66.988  1.00  0.00    -0.374 NA 
HETATM    6  H   UNL     1     -12.350  13.979  66.636  1.00  0.00     0.000 HD 
ENDROOT
BRANCH   5   7
HETATM    7  C   UNL     1     -10.847  13.793  68.029  1.00  0.00    -0.249 C  
BRANCH   7   8
HETATM    8  C   UNL     1     -11.283  12.315  68.126  1.00  0.00    -0.269 C  
HETATM    9  H   UNL     1     -12.365  11.049  67.065  1.00  0.00     0.000 HD 
HETATM   10  O   UNL     1     -12.097  11.958  67.005  1.00  0.00    -0.600 OA 
BRANCH   8  11
HETATM   11  C   UNL     1     -10.023  11.432  68.189  1.00  0.00    -0.189 C  
BRANCH  11  12
HETATM   12  O   UNL     1     -10.267  10.284  69.003  1.00  0.00    -0.186 OA 
BRANCH  12  13
HETATM   13  C   UNL     1      -9.279   9.348  69.173  1.00  0.00    -0.155 A  
HETATM   14  C   UNL     1      -8.581   9.543  70.380  1.00  0.00    -0.246 A  
HETATM   15  C   UNL     1      -7.609   8.644  70.818  1.00  0.00    -0.083 A  
HETATM   16  C   UNL     1      -7.356   7.500  70.075  1.00  0.00    -0.081 A  
HETATM   17  C   UNL     1      -8.056   7.277  68.889  1.00  0.00    -0.128 A  
HETATM   18  C   UNL     1      -8.995   8.210  68.389  1.00  0.00    -0.136 A  
HETATM   19  C   UNL     1      -9.728   7.832  67.130  1.00  0.00    -0.243 C  
HETATM   20  C   UNL     1      -9.032   6.791  66.269  1.00  0.00    -0.170 C  
HETATM   21  C   UNL     1      -8.439   5.677  67.071  1.00  0.00    -0.110 C  
HETATM   22  N   UNL     1      -7.864   6.043  68.257  1.00  0.00    -0.105 N  
HETATM   23  O   UNL     1      -8.353   4.528  66.646  1.00  0.00    -0.106 OA 
HETATM   24  H   UNL     1      -7.250   5.368  68.714  1.00  0.00     0.000 HD 
ENDBRANCH  12  13
ENDBRANCH  11  12
ENDBRANCH   8  11
ENDBRANCH   7   8
ENDBRANCH   5   7
TORSDOF 5
ENDMDL
MODEL      282
REMARK 921   NORMALIZED FREE ENERGY PREDICTED BY IDOCK:   -3.21 KCAL/MOL
REMARK 922        TOTAL FREE ENERGY PREDICTED BY IDOCK:   -4.77 KCAL/MOL
REMARK 923 INTER-LIGAND FREE ENERGY PREDICTED BY IDOCK:   -4.16 KCAL/MOL
REMARK 924 INTRA-LIGAND FREE ENERGY PREDICTED BY IDOCK:   -0.61 KCAL/MOL
REMARK 927      BINDING AFFINITY PREDICTED BY RF-SCORE:    0.00 PKD
ROOT
HETATM    1  C   UNL     1     -11.702  10.540  70.475  1.00  0.00    -0.443 C  
HETATM    2  C   UNL     1     -10.889   9.490  69.697  1.00  0.00    -0.235 C  
HETATM    3  C   UNL     1     -11.148   8.111  70.333  1.00  0.00    -0.239 C  
HETATM    4  C   UNL     1      -9.385   9.798  69.818  1.00  0.00    -0.249 C  
HETATM    5  N   UNL     1     -11.302   9.401  68.282  1.00  0.00    -0.388 NA 
HETATM    6  H   UNL     1     -12.250   9.031  68.211  1.00  0.00     0.000 HD 
ENDROOT
BRANCH   5   7
HETATM    7  C   UNL     1     -11.188  10.658  67.534  1.00  0.00    -0.253 C  
BRANCH   7   8
HETATM    8  C   UNL     1     -10.279  10.536  66.292  1.00  0.00    -0.235 C  
HETATM    9  H   UNL     1     -10.387  10.964  64.367  1.00  0.00     0.000 HD 
HETATM   10  O   UNL     1     -10.947  11.039  65.131  1.00  0.00    -0.169 OA 
BRANCH   8  11
HETATM   11  C   UNL     1      -8.977  11.316  66.554  1.00  0.00    -0.184 C  
BRANCH  11  12
HETATM   12  O   UNL     1      -9.176  12.267  67.601  1.00  0.00    -0.172 OA 
BRANCH  12  13
HETATM   13  C   UNL     1      -8.093  12.888  68.171  1.00  0.00    -0.158 A  
HETATM   14  C   UNL     1      -7.013  11.999  68.333  1.00  0.00    -0.080 A  
HETATM   15  C   UNL     1      -5.768  12.435  68.787  1.00  0.00    -0.058 A  
HETATM   16  C   UNL     1      -5.569  13.785  69.038  1.00  0.00    -0.077 A  
HETATM   17  C   UNL     1      -6.621  14.684  68.857  1.00  0.00    -0.093 A  
HETATM   18  C   UNL     1      -7.910  14.255  68.466  1.00  0.00    -0.143 A  
HETATM   19  C   UNL     1      -8.948  15.324  68.250  1.00  0.00    -0.176 C  
HETATM   20  C   UNL     1      -8.675  16.638  68.962  1.00  0.00    -0.193 C  
HETATM   21  C   UNL     1      -7.241  17.055  68.881  1.00  0.00    -0.239 C  
HETATM   22  N   UNL     1      -6.324  16.045  68.986  1.00  0.00    -0.133 N  
HETATM   23  O   UNL     1      -6.895  18.233  68.852  1.00  0.00    -0.247 OA 
HETATM   24  H   UNL     1      -5.355  16.303  69.172  1.00  0.00     0.000 HD 
ENDBRANCH  12  13
ENDBRANCH  11  12
ENDBRANCH   8  11
ENDBRANCH   7   8
ENDBRANCH   5   7
TORSDOF 5
ENDMDL
MODEL      283
REMARK 921   NORMALIZED FREE ENERGY PREDICTED BY IDOCK:   -3.21 KCAL/MOL
REMARK 922        TOTAL FREE ENERGY PREDICTED BY IDOCK:   -4.77 KCAL/MOL
REMARK 923 INTER-LIGAND FREE ENERGY PREDICTED BY IDOCK:   -4.33 KCAL/MOL
REMARK 924 INTRA-LIGAND FREE ENERGY PREDICTED BY IDOCK:   -0.44 KCAL/MOL
REMARK 927      BINDING AFFINITY PREDICTED BY RF-SCORE:    0.00 PKD
ROOT
HETATM    1  C   UNL     1      -9.598   6.955  67.059  1.00  0.00    -0.197 C  
HETATM    2  C   UNL     1      -8.876   7.063  68.415  1.00  0.00    -0.123 C  
HETATM    3  C   UNL     1      -8.149   5.732  68.681  1.00  0.00    -0.101 C  
HETATM    4  C   UNL     1      -9.907   7.278  69.539  1.00  0.00    -0.163 C  
HETATM    5  N   UNL     1      -7.853   8.128  68.419  1.00  0.00    -0.116 NA 
HETATM    6  H   UNL     1      -7.087   7.887  67.790  1.00  0.00     0.000 HD 
ENDROOT
BRANCH   5   7
HETATM    7  C   UNL     1      -8.366   9.467  68.109  1.00  0.00    -0.119 C  
BRANCH   7   8
HETATM    8  C   UNL     1      -7.580  10.163  66.978  1.00  0.00    -0.092 C  
HETATM    9  H   UNL     1      -6.657   9.636  65.314  1.00  0.00     0.000 HD 
HETATM   10  O   UNL     1      -7.141   9.206  66.010  1.00  0.00    -0.087 OA 
BRANCH   8  11
HETATM   11  C   UNL     1      -8.486  11.224  66.327  1.00  0.00    -0.156 C  
BRANCH  11  12
HETATM   12  O   UNL     1      -9.224  11.924  67.330  1.00  0.00    -0.172 OA 
BRANCH  12  13
HETATM   13  C   UNL     1      -9.949  13.038  66.988  1.00  0.00    -0.242 A  
HETATM   14  C   UNL     1     -11.317  12.741  66.838  1.00  0.00    -0.371 A  
HETATM   15  C   UNL     1     -12.262  13.740  66.605  1.00  0.00    -0.454 A  
HETATM   16  C   UNL     1     -11.856  15.066  66.570  1.00  0.00    -0.052 A  
HETATM   17  C   UNL     1     -10.508  15.381  66.743  1.00  0.00    -0.299 A  
HETATM   18  C   UNL     1      -9.522  14.380  66.910  1.00  0.00    -0.268 A  
HETATM   19  C   UNL     1      -8.110  14.846  67.143  1.00  0.00    -0.239 C  
HETATM   20  C   UNL     1      -7.809  16.254  66.659  1.00  0.00    -0.310 C  
HETATM   21  C   UNL     1      -8.905  17.222  66.971  1.00  0.00    -0.228 C  
HETATM   22  N   UNL     1     -10.178  16.738  66.841  1.00  0.00    -0.285 N  
HETATM   23  O   UNL     1      -8.693  18.409  67.206  1.00  0.00    -0.254 OA 
HETATM   24  H   UNL     1     -10.941  17.414  66.813  1.00  0.00     0.000 HD 
ENDBRANCH  12  13
ENDBRANCH  11  12
ENDBRANCH   8  11
ENDBRANCH   7   8
ENDBRANCH   5   7
TORSDOF 5
ENDMDL
MODEL      284
REMARK 921   NORMALIZED FREE ENERGY PREDICTED BY IDOCK:   -3.20 KCAL/MOL
REMARK 922        TOTAL FREE ENERGY PREDICTED BY IDOCK:   -4.77 KCAL/MOL
REMARK 923 INTER-LIGAND FREE ENERGY PREDICTED BY IDOCK:   -4.04 KCAL/MOL
REMARK 924 INTRA-LIGAND FREE ENERGY PREDICTED BY IDOCK:   -0.73 KCAL/MOL
REMARK 927      BINDING AFFINITY PREDICTED BY RF-SCORE:    0.00 PKD
ROOT
HETATM    1  C   UNL     1      -7.537   8.136  74.505  1.00  0.00    -0.272 C  
HETATM    2  C   UNL     1      -6.882   7.627  73.208  1.00  0.00    -0.072 C  
HETATM    3  C   UNL     1      -5.371   7.918  73.285  1.00  0.00    -0.044 C  
HETATM    4  C   UNL     1      -7.455   8.389  71.999  1.00  0.00    -0.135 C  
HETATM    5  N   UNL     1      -7.037   6.168  73.040  1.00  0.00    -0.080 NA 
HETATM    6  H   UNL     1      -6.507   5.669  73.755  1.00  0.00     0.000 HD 
ENDROOT
BRANCH   5   7
HETATM    7  C   UNL     1      -8.428   5.702  73.018  1.00  0.00    -0.118 C  
BRANCH   7   8
HETATM    8  C   UNL     1      -8.657   4.547  72.019  1.00  0.00    -0.114 C  
HETATM    9  H   UNL     1      -8.773   2.577  72.080  1.00  0.00     0.000 HD 
HETATM   10  O   UNL     1      -8.631   3.287  72.695  1.00  0.00    -0.082 OA 
BRANCH   8  11
HETATM   11  C   UNL     1     -10.011   4.763  71.318  1.00  0.00    -0.200 C  
BRANCH  11  12
HETATM   12  O   UNL     1     -10.015   6.014  70.630  1.00  0.00    -0.176 OA 
BRANCH  12  13
HETATM   13  C   UNL     1     -11.058   6.887  70.811  1.00  0.00    -0.275 A  
HETATM   14  C   UNL     1     -11.924   6.455  71.834  1.00  0.00    -0.381 A  
HETATM   15  C   UNL     1     -12.991   7.240  72.271  1.00  0.00     0.059 A  
HETATM   16  C   UNL     1     -13.177   8.501  71.724  1.00  0.00    -0.392 A  
HETATM   17  C   UNL     1     -12.313   8.957  70.727  1.00  0.00     0.005 A  
HETATM   18  C   UNL     1     -11.268   8.150  70.219  1.00  0.00    -0.182 A  
HETATM   19  C   UNL     1     -10.368   8.772  69.185  1.00  0.00    -0.227 C  
HETATM   20  C   UNL     1     -10.967   9.948  68.434  1.00  0.00    -0.235 C  
HETATM   21  C   UNL     1     -11.726  10.880  69.325  1.00  0.00    -0.324 C  
HETATM   22  N   UNL     1     -12.460  10.286  70.315  1.00  0.00    -0.495 N  
HETATM   23  O   UNL     1     -11.796  12.087  69.114  1.00  0.00    -0.300 OA 
HETATM   24  H   UNL     1     -13.166  10.852  70.786  1.00  0.00     0.000 HD 
ENDBRANCH  12  13
ENDBRANCH  11  12
ENDBRANCH   8  11
ENDBRANCH   7   8
ENDBRANCH   5   7
TORSDOF 5
ENDMDL
MODEL      285
REMARK 921   NORMALIZED FREE ENERGY PREDICTED BY IDOCK:   -3.19 KCAL/MOL
REMARK 922        TOTAL FREE ENERGY PREDICTED BY IDOCK:   -4.75 KCAL/MOL
REMARK 923 INTER-LIGAND FREE ENERGY PREDICTED BY IDOCK:   -4.23 KCAL/MOL
REMARK 924 INTRA-LIGAND FREE ENERGY PREDICTED BY IDOCK:   -0.52 KCAL/MOL
REMARK 927      BINDING AFFINITY PREDICTED BY RF-SCORE:    0.00 PKD
ROOT
HETATM    1  C   UNL     1      -6.145   9.414  68.342  1.00  0.00    -0.044 C  
HETATM    2  C   UNL     1      -6.899  10.756  68.367  1.00  0.00    -0.068 C  
HETATM    3  C   UNL     1      -5.943  11.836  68.906  1.00  0.00    -0.051 C  
HETATM    4  C   UNL     1      -8.102  10.661  69.324  1.00  0.00    -0.133 C  
HETATM    5  N   UNL     1      -7.324  11.183  67.019  1.00  0.00    -0.121 NA 
HETATM    6  H   UNL     1      -6.511  11.407  66.444  1.00  0.00     0.000 HD 
ENDROOT
BRANCH   5   7
HETATM    7  C   UNL     1      -8.192  10.227  66.323  1.00  0.00    -0.131 C  
BRANCH   7   8
HETATM    8  C   UNL     1      -9.076  10.894  65.246  1.00  0.00    -0.197 C  
HETATM    9  H   UNL     1     -10.783  10.512  64.330  1.00  0.00     0.000 HD 
HETATM   10  O   UNL     1     -10.240  10.102  64.992  1.00  0.00    -0.309 OA 
BRANCH   8  11
HETATM   11  C   UNL     1      -9.468  12.301  65.731  1.00  0.00    -0.121 C  
BRANCH  11  12
HETATM   12  O   UNL     1     -10.857  12.339  66.061  1.00  0.00    -0.258 OA 
BRANCH  12  13
HETATM   13  C   UNL     1     -11.298  13.177  67.054  1.00  0.00    -0.312 A  
HETATM   14  C   UNL     1     -11.701  12.459  68.197  1.00  0.00    -0.408 A  
HETATM   15  C   UNL     1     -12.078  13.107  69.373  1.00  0.00    -0.285 A  
HETATM   16  C   UNL     1     -12.007  14.491  69.441  1.00  0.00    -0.362 A  
HETATM   17  C   UNL     1     -11.585  15.217  68.327  1.00  0.00    -0.341 A  
HETATM   18  C   UNL     1     -11.266  14.586  67.102  1.00  0.00    -0.341 A  
HETATM   19  C   UNL     1     -10.770  15.470  65.988  1.00  0.00    -0.331 C  
HETATM   20  C   UNL     1     -11.158  16.933  66.108  1.00  0.00     0.335 C  
HETATM   21  C   UNL     1     -11.026  17.457  67.503  1.00  0.00    -0.089 C  
HETATM   22  N   UNL     1     -11.397  16.593  68.497  1.00  0.00    -0.252 N  
HETATM   23  O   UNL     1     -10.729  18.623  67.747  1.00  0.00    -0.409 OA 
HETATM   24  H   UNL     1     -11.547  16.980  69.428  1.00  0.00     0.000 HD 
ENDBRANCH  12  13
ENDBRANCH  11  12
ENDBRANCH   8  11
ENDBRANCH   7   8
ENDBRANCH   5   7
TORSDOF 5
ENDMDL
MODEL      286
REMARK 921   NORMALIZED FREE ENERGY PREDICTED BY IDOCK:   -3.16 KCAL/MOL
REMARK 922        TOTAL FREE ENERGY PREDICTED BY IDOCK:   -4.71 KCAL/MOL
REMARK 923 INTER-LIGAND FREE ENERGY PREDICTED BY IDOCK:   -4.27 KCAL/MOL
REMARK 924 INTRA-LIGAND FREE ENERGY PREDICTED BY IDOCK:   -0.44 KCAL/MOL
REMARK 927      BINDING AFFINITY PREDICTED BY RF-SCORE:    0.00 PKD
ROOT
HETATM    1  C   UNL     1      -6.470  15.013  67.855  1.00  0.00    -0.175 C  
HETATM    2  C   UNL     1      -7.269  14.497  69.065  1.00  0.00    -0.130 C  
HETATM    3  C   UNL     1      -8.470  15.435  69.284  1.00  0.00    -0.258 C  
HETATM    4  C   UNL     1      -6.391  14.542  70.329  1.00  0.00    -0.170 C  
HETATM    5  N   UNL     1      -7.810  13.141  68.840  1.00  0.00    -0.329 NA 
HETATM    6  H   UNL     1      -8.520  13.159  68.108  1.00  0.00     0.000 HD 
ENDROOT
BRANCH   5   7
HETATM    7  C   UNL     1      -6.796  12.123  68.542  1.00  0.00    -0.086 C  
BRANCH   7   8
HETATM    8  C   UNL     1      -7.018  10.810  69.323  1.00  0.00    -0.102 C  
HETATM    9  H   UNL     1      -6.757  10.157  71.168  1.00  0.00     0.000 HD 
HETATM   10  O   UNL     1      -6.620  10.965  70.688  1.00  0.00    -0.319 OA 
BRANCH   8  11
HETATM   11  C   UNL     1      -8.506  10.424  69.228  1.00  0.00    -0.154 C  
BRANCH  11  12
HETATM   12  O   UNL     1      -8.709   9.512  68.148  1.00  0.00    -0.120 OA 
BRANCH  12  13
HETATM   13  C   UNL     1      -9.373   8.332  68.371  1.00  0.00    -0.135 A  
HETATM   14  C   UNL     1     -10.109   8.369  69.571  1.00  0.00    -0.200 A  
HETATM   15  C   UNL     1     -10.953   7.323  69.945  1.00  0.00    -0.262 A  
HETATM   16  C   UNL     1     -11.114   6.240  69.093  1.00  0.00    -0.457 A  
HETATM   17  C   UNL     1     -10.412   6.198  67.888  1.00  0.00    -0.229 A  
HETATM   18  C   UNL     1      -9.497   7.213  67.521  1.00  0.00    -0.144 A  
HETATM   19  C   UNL     1      -8.842   7.085  66.171  1.00  0.00    -0.165 C  
HETATM   20  C   UNL     1      -8.815   5.677  65.601  1.00  0.00    -0.150 C  
HETATM   21  C   UNL     1     -10.102   4.943  65.805  1.00  0.00    -0.170 C  
HETATM   22  N   UNL     1     -10.720   5.156  67.007  1.00  0.00    -0.272 N  
HETATM   23  O   UNL     1     -10.520   4.105  65.010  1.00  0.00    -0.240 OA 
HETATM   24  H   UNL     1     -11.459   4.508  67.280  1.00  0.00     0.000 HD 
ENDBRANCH  12  13
ENDBRANCH  11  12
ENDBRANCH   8  11
ENDBRANCH   7   8
ENDBRANCH   5   7
TORSDOF 5
ENDMDL
MODEL      287
REMARK 921   NORMALIZED FREE ENERGY PREDICTED BY IDOCK:   -3.15 KCAL/MOL
REMARK 922        TOTAL FREE ENERGY PREDICTED BY IDOCK:   -4.70 KCAL/MOL
REMARK 923 INTER-LIGAND FREE ENERGY PREDICTED BY IDOCK:   -4.81 KCAL/MOL
REMARK 924 INTRA-LIGAND FREE ENERGY PREDICTED BY IDOCK:    0.11 KCAL/MOL
REMARK 927      BINDING AFFINITY PREDICTED BY RF-SCORE:    0.00 PKD
ROOT
HETATM    1  C   UNL     1      -9.618  19.146  69.306  1.00  0.00    -0.213 C  
HETATM    2  C   UNL     1      -9.914  17.670  68.983  1.00  0.00    -0.264 C  
HETATM    3  C   UNL     1     -10.631  17.046  70.194  1.00  0.00     0.293 C  
HETATM    4  C   UNL     1      -8.594  16.908  68.765  1.00  0.00    -0.246 C  
HETATM    5  N   UNL     1     -10.813  17.523  67.820  1.00  0.00    -0.326 NA 
HETATM    6  H   UNL     1     -11.741  17.882  68.041  1.00  0.00     0.000 HD 
ENDROOT
BRANCH   5   7
HETATM    7  C   UNL     1     -10.311  18.130  66.583  1.00  0.00    -0.376 C  
BRANCH   7   8
HETATM    8  C   UNL     1      -9.803  17.086  65.566  1.00  0.00     0.157 C  
HETATM    9  H   UNL     1      -8.063  16.357  64.981  1.00  0.00     0.000 HD 
HETATM   10  O   UNL     1      -8.375  17.000  65.607  1.00  0.00    -0.417 OA 
BRANCH   8  11
HETATM   11  C   UNL     1     -10.442  15.724  65.894  1.00  0.00    -0.352 C  
BRANCH  11  12
HETATM   12  O   UNL     1      -9.959  14.725  64.995  1.00  0.00    -0.333 OA 
BRANCH  12  13
HETATM   13  C   UNL     1     -10.190  13.399  65.264  1.00  0.00    -0.298 A  
HETATM   14  C   UNL     1     -10.130  12.615  64.096  1.00  0.00    -0.293 A  
HETATM   15  C   UNL     1     -10.219  11.224  64.143  1.00  0.00    -0.391 A  
HETATM   16  C   UNL     1     -10.320  10.589  65.373  1.00  0.00    -0.292 A  
HETATM   17  C   UNL     1     -10.355  11.349  66.543  1.00  0.00    -0.236 A  
HETATM   18  C   UNL     1     -10.337  12.763  66.515  1.00  0.00    -0.262 A  
HETATM   19  C   UNL     1     -10.323  13.472  67.843  1.00  0.00    -0.249 C  
HETATM   20  C   UNL     1     -10.852  12.658  69.011  1.00  0.00    -0.192 C  
HETATM   21  C   UNL     1     -10.379  11.239  68.991  1.00  0.00    -0.166 C  
HETATM   22  N   UNL     1     -10.312  10.654  67.756  1.00  0.00    -0.193 N  
HETATM   23  O   UNL     1     -10.183  10.592  70.017  1.00  0.00    -0.163 OA 
HETATM   24  H   UNL     1     -10.226   9.639  67.717  1.00  0.00     0.000 HD 
ENDBRANCH  12  13
ENDBRANCH  11  12
ENDBRANCH   8  11
ENDBRANCH   7   8
ENDBRANCH   5   7
TORSDOF 5
ENDMDL
MODEL      288
REMARK 921   NORMALIZED FREE ENERGY PREDICTED BY IDOCK:   -3.14 KCAL/MOL
REMARK 922        TOTAL FREE ENERGY PREDICTED BY IDOCK:   -4.69 KCAL/MOL
REMARK 923 INTER-LIGAND FREE ENERGY PREDICTED BY IDOCK:   -4.10 KCAL/MOL
REMARK 924 INTRA-LIGAND FREE ENERGY PREDICTED BY IDOCK:   -0.59 KCAL/MOL
REMARK 927      BINDING AFFINITY PREDICTED BY RF-SCORE:    0.00 PKD
ROOT
HETATM    1  C   UNL     1      -9.550  10.209  65.264  1.00  0.00    -0.338 C  
HETATM    2  C   UNL     1      -9.986  11.182  64.154  1.00  0.00    -0.316 C  
HETATM    3  C   UNL     1      -9.748  10.501  62.794  1.00  0.00    -0.265 C  
HETATM    4  C   UNL     1      -9.123  12.457  64.208  1.00  0.00     0.934 C  
HETATM    5  N   UNL     1     -11.424  11.509  64.232  1.00  0.00    -0.252 NA 
HETATM    6  H   UNL     1     -11.988  10.685  64.025  1.00  0.00     0.000 HD 
ENDROOT
BRANCH   5   7
HETATM    7  C   UNL     1     -11.844  12.108  65.504  1.00  0.00    -0.286 C  
BRANCH   7   8
HETATM    8  C   UNL     1     -12.124  13.622  65.391  1.00  0.00    -0.403 C  
HETATM    9  H   UNL     1     -13.697  14.795  65.169  1.00  0.00     0.000 HD 
HETATM   10  O   UNL     1     -13.525  13.863  65.239  1.00  0.00    -0.612 OA 
BRANCH   8  11
HETATM   11  C   UNL     1     -11.583  14.320  66.652  1.00  0.00    -0.383 C  
BRANCH  11  12
HETATM   12  O   UNL     1     -10.679  15.364  66.288  1.00  0.00    -0.305 OA 
BRANCH  12  13
HETATM   13  C   UNL     1      -9.455  15.450  66.903  1.00  0.00    -0.230 A  
HETATM   14  C   UNL     1      -9.176  14.299  67.665  1.00  0.00    -0.194 A  
HETATM   15  C   UNL     1      -7.941  14.114  68.286  1.00  0.00    -0.140 A  
HETATM   16  C   UNL     1      -6.942  15.060  68.110  1.00  0.00    -0.130 A  
HETATM   17  C   UNL     1      -7.192  16.194  67.336  1.00  0.00    -0.182 A  
HETATM   18  C   UNL     1      -8.459  16.437  66.756  1.00  0.00    -0.279 A  
HETATM   19  C   UNL     1      -8.591  17.667  65.897  1.00  0.00     0.066 C  
HETATM   20  C   UNL     1      -7.564  18.753  66.167  1.00  0.00    -0.286 C  
HETATM   21  C   UNL     1      -6.185  18.211  66.372  1.00  0.00    -0.191 C  
HETATM   22  N   UNL     1      -6.108  17.040  67.076  1.00  0.00    -0.170 N  
HETATM   23  O   UNL     1      -5.176  18.829  66.047  1.00  0.00    -0.137 OA 
HETATM   24  H   UNL     1      -5.195  16.765  67.437  1.00  0.00     0.000 HD 
ENDBRANCH  12  13
ENDBRANCH  11  12
ENDBRANCH   8  11
ENDBRANCH   7   8
ENDBRANCH   5   7
TORSDOF 5
ENDMDL
MODEL      289
REMARK 921   NORMALIZED FREE ENERGY PREDICTED BY IDOCK:   -3.05 KCAL/MOL
REMARK 922        TOTAL FREE ENERGY PREDICTED BY IDOCK:   -4.57 KCAL/MOL
REMARK 923 INTER-LIGAND FREE ENERGY PREDICTED BY IDOCK:   -3.95 KCAL/MOL
REMARK 924 INTRA-LIGAND FREE ENERGY PREDICTED BY IDOCK:   -0.63 KCAL/MOL
REMARK 927      BINDING AFFINITY PREDICTED BY RF-SCORE:    0.00 PKD
ROOT
HETATM    1  C   UNL     1      -9.705  14.643  68.664  1.00  0.00    -0.220 C  
HETATM    2  C   UNL     1     -10.778  15.718  68.413  1.00  0.00    -0.281 C  
HETATM    3  C   UNL     1     -10.092  17.096  68.424  1.00  0.00    -0.314 C  
HETATM    4  C   UNL     1     -11.819  15.692  69.548  1.00  0.00    -0.387 C  
HETATM    5  N   UNL     1     -11.425  15.563  67.094  1.00  0.00    -0.153 NA 
HETATM    6  H   UNL     1     -10.757  15.752  66.346  1.00  0.00     0.000 HD 
ENDROOT
BRANCH   5   7
HETATM    7  C   UNL     1     -12.074  14.265  66.883  1.00  0.00    -0.409 C  
BRANCH   7   8
HETATM    8  C   UNL     1     -11.839  13.700  65.465  1.00  0.00    -0.362 C  
HETATM    9  H   UNL     1     -10.492  13.889  64.033  1.00  0.00     0.000 HD 
HETATM   10  O   UNL     1     -10.636  14.237  64.905  1.00  0.00    -0.393 OA 
BRANCH   8  11
HETATM   11  C   UNL     1     -11.763  12.165  65.551  1.00  0.00    -0.324 C  
BRANCH  11  12
HETATM   12  O   UNL     1     -11.507  11.760  66.896  1.00  0.00    -0.399 OA 
BRANCH  12  13
HETATM   13  C   UNL     1     -10.566  10.794  67.148  1.00  0.00    -0.256 A  
HETATM   14  C   UNL     1     -11.143   9.641  67.715  1.00  0.00    -0.089 A  
HETATM   15  C   UNL     1     -10.396   8.487  67.950  1.00  0.00    -0.281 A  
HETATM   16  C   UNL     1      -9.063   8.451  67.570  1.00  0.00    -0.145 A  
HETATM   17  C   UNL     1      -8.480   9.574  66.982  1.00  0.00    -0.128 A  
HETATM   18  C   UNL     1      -9.199  10.779  66.800  1.00  0.00    -0.174 A  
HETATM   19  C   UNL     1      -8.479  11.904  66.105  1.00  0.00     0.110 C  
HETATM   20  C   UNL     1      -6.963  11.825  66.155  1.00  0.00     0.528 C  
HETATM   21  C   UNL     1      -6.446  10.441  65.924  1.00  0.00    -0.123 C  
HETATM   22  N   UNL     1      -7.177   9.434  66.491  1.00  0.00    -0.088 N  
HETATM   23  O   UNL     1      -5.370  10.220  65.375  1.00  0.00    -0.061 OA 
HETATM   24  H   UNL     1      -6.742   8.514  66.560  1.00  0.00     0.000 HD 
ENDBRANCH  12  13
ENDBRANCH  11  12
ENDBRANCH   8  11
ENDBRANCH   7   8
ENDBRANCH   5   7
TORSDOF 5
ENDMDL
MODEL      290
REMARK 921   NORMALIZED FREE ENERGY PREDICTED BY IDOCK:   -3.02 KCAL/MOL
REMARK 922        TOTAL FREE ENERGY PREDICTED BY IDOCK:   -4.53 KCAL/MOL
REMARK 923 INTER-LIGAND FREE ENERGY PREDICTED BY IDOCK:   -4.14 KCAL/MOL
REMARK 924 INTRA-LIGAND FREE ENERGY PREDICTED BY IDOCK:   -0.39 KCAL/MOL
REMARK 927      BINDING AFFINITY PREDICTED BY RF-SCORE:    0.00 PKD
ROOT
HETATM    1  C   UNL     1      -7.884   7.927  65.728  1.00  0.00    -0.103 C  
HETATM    2  C   UNL     1      -7.964   9.304  65.046  1.00  0.00    -0.118 C  
HETATM    3  C   UNL     1      -8.384   9.092  63.580  1.00  0.00    -0.187 C  
HETATM    4  C   UNL     1      -6.577   9.973  65.054  1.00  0.00    -0.124 C  
HETATM    5  N   UNL     1      -8.979  10.177  65.669  1.00  0.00    -0.162 NA 
HETATM    6  H   UNL     1      -9.915   9.805  65.507  1.00  0.00     0.000 HD 
ENDROOT
BRANCH   5   7
HETATM    7  C   UNL     1      -8.771  10.429  67.099  1.00  0.00    -0.129 C  
BRANCH   7   8
HETATM    8  C   UNL     1     -10.036  10.961  67.805  1.00  0.00    -0.177 C  
HETATM    9  H   UNL     1     -11.879  11.459  67.299  1.00  0.00     0.000 HD 
HETATM   10  O   UNL     1     -11.101  11.132  66.865  1.00  0.00    -0.289 OA 
BRANCH   8  11
HETATM   11  C   UNL     1     -10.439   9.969  68.912  1.00  0.00    -0.210 C  
BRANCH  11  12
HETATM   12  O   UNL     1      -9.401   9.873  69.888  1.00  0.00    -0.220 OA 
BRANCH  12  13
HETATM   13  C   UNL     1      -9.650   9.255  71.087  1.00  0.00    -0.234 A  
HETATM   14  C   UNL     1     -11.032   9.115  71.321  1.00  0.00    -0.400 A  
HETATM   15  C   UNL     1     -11.520   8.414  72.424  1.00  0.00    -0.451 A  
HETATM   16  C   UNL     1     -10.628   7.793  73.286  1.00  0.00    -0.350 A  
HETATM   17  C   UNL     1      -9.256   7.899  73.055  1.00  0.00    -0.254 A  
HETATM   18  C   UNL     1      -8.736   8.664  71.985  1.00  0.00    -0.235 A  
HETATM   19  C   UNL     1      -7.241   8.657  71.805  1.00  0.00    -0.103 C  
HETATM   20  C   UNL     1      -6.446   8.294  73.046  1.00  0.00    -0.105 C  
HETATM   21  C   UNL     1      -7.045   7.153  73.807  1.00  0.00    -0.079 C  
HETATM   22  N   UNL     1      -8.411   7.137  73.870  1.00  0.00    -0.142 N  
HETATM   23  O   UNL     1      -6.366   6.352  74.442  1.00  0.00    -0.069 OA 
HETATM   24  H   UNL     1      -8.846   6.527  74.563  1.00  0.00     0.000 HD 
ENDBRANCH  12  13
ENDBRANCH  11  12
ENDBRANCH   8  11
ENDBRANCH   7   8
ENDBRANCH   5   7
TORSDOF 5
ENDMDL
MODEL      291
REMARK 921   NORMALIZED FREE ENERGY PREDICTED BY IDOCK:   -2.99 KCAL/MOL
REMARK 922        TOTAL FREE ENERGY PREDICTED BY IDOCK:   -4.50 KCAL/MOL
REMARK 923 INTER-LIGAND FREE ENERGY PREDICTED BY IDOCK:   -4.42 KCAL/MOL
REMARK 924 INTRA-LIGAND FREE ENERGY PREDICTED BY IDOCK:   -0.08 KCAL/MOL
REMARK 927      BINDING AFFINITY PREDICTED BY RF-SCORE:    0.00 PKD
ROOT
HETATM    1  C   UNL     1     -11.842   9.984  69.733  1.00  0.00    -0.087 C  
HETATM    2  C   UNL     1     -12.116   9.244  71.054  1.00  0.00    -0.280 C  
HETATM    3  C   UNL     1     -13.149  10.055  71.857  1.00  0.00    -0.563 C  
HETATM    4  C   UNL     1     -10.822   9.163  71.886  1.00  0.00    -0.353 C  
HETATM    5  N   UNL     1     -12.691   7.902  70.833  1.00  0.00    -0.520 NA 
HETATM    6  H   UNL     1     -13.627   7.978  70.435  1.00  0.00     0.000 HD 
ENDROOT
BRANCH   5   7
HETATM    7  C   UNL     1     -11.860   7.010  70.017  1.00  0.00    -0.073 C  
BRANCH   7   8
HETATM    8  C   UNL     1     -10.883   6.163  70.860  1.00  0.00    -0.281 C  
HETATM    9  H   UNL     1     -10.969   5.015  72.464  1.00  0.00     0.000 HD 
HETATM   10  O   UNL     1     -11.571   5.536  71.946  1.00  0.00    -0.111 OA 
BRANCH   8  11
HETATM   11  C   UNL     1     -10.228   5.109  69.947  1.00  0.00    -0.291 C  
BRANCH  11  12
HETATM   12  O   UNL     1     -10.091   5.624  68.622  1.00  0.00    -0.156 OA 
BRANCH  12  13
HETATM   13  C   UNL     1      -9.086   6.515  68.340  1.00  0.00    -0.123 A  
HETATM   14  C   UNL     1      -7.830   6.028  68.752  1.00  0.00    -0.100 A  
HETATM   15  C   UNL     1      -6.649   6.713  68.466  1.00  0.00    -0.051 A  
HETATM   16  C   UNL     1      -6.702   7.875  67.711  1.00  0.00    -0.068 A  
HETATM   17  C   UNL     1      -7.936   8.358  67.270  1.00  0.00    -0.105 A  
HETATM   18  C   UNL     1      -9.151   7.720  67.610  1.00  0.00    -0.138 A  
HETATM   19  C   UNL     1     -10.413   8.303  67.030  1.00  0.00    -0.384 C  
HETATM   20  C   UNL     1     -10.313   9.758  66.607  1.00  0.00    -0.276 C  
HETATM   21  C   UNL     1      -9.031  10.072  65.903  1.00  0.00    -0.154 C  
HETATM   22  N   UNL     1      -7.917   9.451  66.396  1.00  0.00    -0.107 N  
HETATM   23  O   UNL     1      -8.951  10.925  65.022  1.00  0.00    -0.197 OA 
HETATM   24  H   UNL     1      -7.007   9.810  66.107  1.00  0.00     0.000 HD 
ENDBRANCH  12  13
ENDBRANCH  11  12
ENDBRANCH   8  11
ENDBRANCH   7   8
ENDBRANCH   5   7
TORSDOF 5
ENDMDL
MODEL      292
REMARK 921   NORMALIZED FREE ENERGY PREDICTED BY IDOCK:   -2.98 KCAL/MOL
REMARK 922        TOTAL FREE ENERGY PREDICTED BY IDOCK:   -4.48 KCAL/MOL
REMARK 923 INTER-LIGAND FREE ENERGY PREDICTED BY IDOCK:   -4.04 KCAL/MOL
REMARK 924 INTRA-LIGAND FREE ENERGY PREDICTED BY IDOCK:   -0.44 KCAL/MOL
REMARK 927      BINDING AFFINITY PREDICTED BY RF-SCORE:    0.00 PKD
ROOT
HETATM    1  C   UNL     1      -6.475   9.093  64.293  1.00  0.00    -0.083 C  
HETATM    2  C   UNL     1      -7.579   8.021  64.294  1.00  0.00    -0.118 C  
HETATM    3  C   UNL     1      -6.995   6.729  64.896  1.00  0.00    -0.055 C  
HETATM    4  C   UNL     1      -8.016   7.719  62.848  1.00  0.00    -0.130 C  
HETATM    5  N   UNL     1      -8.733   8.408  65.130  1.00  0.00    -0.347 NA 
HETATM    6  H   UNL     1      -8.466   8.438  66.114  1.00  0.00     0.000 HD 
ENDROOT
BRANCH   5   7
HETATM    7  C   UNL     1      -9.374   9.668  64.736  1.00  0.00    -0.222 C  
BRANCH   7   8
HETATM    8  C   UNL     1      -9.651  10.600  65.936  1.00  0.00    -0.205 C  
HETATM    9  H   UNL     1      -8.762  11.087  67.630  1.00  0.00     0.000 HD 
HETATM   10  O   UNL     1      -8.591  10.514  66.893  1.00  0.00    -0.124 OA 
BRANCH   8  11
HETATM   11  C   UNL     1      -9.802  12.042  65.417  1.00  0.00    -0.220 C  
BRANCH  11  12
HETATM   12  O   UNL     1     -10.207  12.907  66.479  1.00  0.00    -0.250 OA 
BRANCH  12  13
HETATM   13  C   UNL     1      -9.972  14.255  66.384  1.00  0.00    -0.292 A  
HETATM   14  C   UNL     1     -11.079  14.938  65.844  1.00  0.00    -0.338 A  
HETATM   15  C   UNL     1     -11.113  16.330  65.760  1.00  0.00     0.059 A  
HETATM   16  C   UNL     1     -10.053  17.067  66.268  1.00  0.00    -0.330 A  
HETATM   17  C   UNL     1      -8.959  16.409  66.831  1.00  0.00    -0.216 A  
HETATM   18  C   UNL     1      -8.872  14.998  66.862  1.00  0.00    -0.285 A  
HETATM   19  C   UNL     1      -7.669  14.403  67.545  1.00  0.00    -0.210 C  
HETATM   20  C   UNL     1      -6.467  15.325  67.646  1.00  0.00    -0.188 C  
HETATM   21  C   UNL     1      -6.838  16.726  68.018  1.00  0.00    -0.144 C  
HETATM   22  N   UNL     1      -7.989  17.203  67.454  1.00  0.00    -0.177 N  
HETATM   23  O   UNL     1      -6.103  17.451  68.682  1.00  0.00    -0.162 OA 
HETATM   24  H   UNL     1      -8.152  18.209  67.488  1.00  0.00     0.000 HD 
ENDBRANCH  12  13
ENDBRANCH  11  12
ENDBRANCH   8  11
ENDBRANCH   7   8
ENDBRANCH   5   7
TORSDOF 5
ENDMDL
MODEL      293
REMARK 921   NORMALIZED FREE ENERGY PREDICTED BY IDOCK:   -2.96 KCAL/MOL
REMARK 922        TOTAL FREE ENERGY PREDICTED BY IDOCK:   -4.45 KCAL/MOL
REMARK 923 INTER-LIGAND FREE ENERGY PREDICTED BY IDOCK:   -4.13 KCAL/MOL
REMARK 924 INTRA-LIGAND FREE ENERGY PREDICTED BY IDOCK:   -0.32 KCAL/MOL
REMARK 927      BINDING AFFINITY PREDICTED BY RF-SCORE:    0.00 PKD
ROOT
HETATM    1  C   UNL     1      -5.226  20.979  70.460  1.00  0.00    -0.201 C  
HETATM    2  C   UNL     1      -6.244  19.839  70.277  1.00  0.00    -0.278 C  
HETATM    3  C   UNL     1      -7.350  20.005  71.336  1.00  0.00     1.212 C  
HETATM    4  C   UNL     1      -5.556  18.481  70.513  1.00  0.00    -0.198 C  
HETATM    5  N   UNL     1      -6.898  19.882  68.954  1.00  0.00    -0.332 NA 
HETATM    6  H   UNL     1      -7.489  20.709  68.876  1.00  0.00     0.000 HD 
ENDROOT
BRANCH   5   7
HETATM    7  C   UNL     1      -5.975  19.806  67.816  1.00  0.00    -0.198 C  
BRANCH   7   8
HETATM    8  C   UNL     1      -6.595  20.333  66.504  1.00  0.00    -0.225 C  
HETATM    9  H   UNL     1      -6.100  20.414  64.594  1.00  0.00     0.000 HD 
HETATM   10  O   UNL     1      -5.718  20.090  65.401  1.00  0.00    -0.168 OA 
BRANCH   8  11
HETATM   11  C   UNL     1      -7.952  19.639  66.286  1.00  0.00    -0.328 C  
BRANCH  11  12
HETATM   12  O   UNL     1      -7.780  18.460  65.499  1.00  0.00    -0.484 OA 
BRANCH  12  13
HETATM   13  C   UNL     1      -7.837  17.227  66.099  1.00  0.00    -0.270 A  
HETATM   14  C   UNL     1      -6.611  16.887  66.703  1.00  0.00    -0.252 A  
HETATM   15  C   UNL     1      -6.468  15.731  67.470  1.00  0.00    -0.203 A  
HETATM   16  C   UNL     1      -7.571  14.919  67.689  1.00  0.00    -0.201 A  
HETATM   17  C   UNL     1      -8.800  15.254  67.121  1.00  0.00    -0.212 A  
HETATM   18  C   UNL     1      -8.952  16.382  66.281  1.00  0.00    -0.368 A  
HETATM   19  C   UNL     1     -10.339  16.672  65.772  1.00  0.00    -0.338 C  
HETATM   20  C   UNL     1     -11.282  15.482  65.765  1.00  0.00    -0.133 C  
HETATM   21  C   UNL     1     -11.172  14.645  66.999  1.00  0.00    -0.344 C  
HETATM   22  N   UNL     1      -9.906  14.480  67.491  1.00  0.00    -0.221 N  
HETATM   23  O   UNL     1     -12.127  14.038  67.475  1.00  0.00    -0.391 OA 
HETATM   24  H   UNL     1      -9.757  13.740  68.177  1.00  0.00     0.000 HD 
ENDBRANCH  12  13
ENDBRANCH  11  12
ENDBRANCH   8  11
ENDBRANCH   7   8
ENDBRANCH   5   7
TORSDOF 5
ENDMDL
MODEL      294
REMARK 921   NORMALIZED FREE ENERGY PREDICTED BY IDOCK:   -2.95 KCAL/MOL
REMARK 922        TOTAL FREE ENERGY PREDICTED BY IDOCK:   -4.44 KCAL/MOL
REMARK 923 INTER-LIGAND FREE ENERGY PREDICTED BY IDOCK:   -3.88 KCAL/MOL
REMARK 924 INTRA-LIGAND FREE ENERGY PREDICTED BY IDOCK:   -0.56 KCAL/MOL
REMARK 927      BINDING AFFINITY PREDICTED BY RF-SCORE:    0.00 PKD
ROOT
HETATM    1  C   UNL     1      -8.586  16.467  68.568  1.00  0.00    -0.223 C  
HETATM    2  C   UNL     1      -9.807  17.400  68.467  1.00  0.00    -0.320 C  
HETATM    3  C   UNL     1      -9.303  18.855  68.465  1.00  0.00    -0.412 C  
HETATM    4  C   UNL     1     -10.712  17.210  69.699  1.00  0.00     0.071 C  
HETATM    5  N   UNL     1     -10.562  17.198  67.214  1.00  0.00    -0.306 NA 
HETATM    6  H   UNL     1     -10.005  17.491  66.412  1.00  0.00     0.000 HD 
ENDROOT
BRANCH   5   7
HETATM    7  C   UNL     1     -11.061  15.832  67.018  1.00  0.00    -0.152 C  
BRANCH   7   8
HETATM    8  C   UNL     1     -10.583  15.205  65.690  1.00  0.00    -0.356 C  
HETATM    9  H   UNL     1      -9.194  15.564  64.333  1.00  0.00     0.000 HD 
HETATM   10  O   UNL     1      -9.488  15.950  65.149  1.00  0.00    -0.216 OA 
BRANCH   8  11
HETATM   11  C   UNL     1     -10.173  13.745  65.953  1.00  0.00    -0.313 C  
BRANCH  11  12
HETATM   12  O   UNL     1      -9.438  13.652  67.174  1.00  0.00    -0.227 OA 
BRANCH  12  13
HETATM   13  C   UNL     1      -8.401  12.759  67.279  1.00  0.00    -0.187 A  
HETATM   14  C   UNL     1      -7.156  13.414  67.335  1.00  0.00    -0.108 A  
HETATM   15  C   UNL     1      -5.970  12.714  67.557  1.00  0.00    -0.151 A  
HETATM   16  C   UNL     1      -6.018  11.346  67.779  1.00  0.00    -0.049 A  
HETATM   17  C   UNL     1      -7.247  10.684  67.753  1.00  0.00    -0.088 A  
HETATM   18  C   UNL     1      -8.453  11.361  67.459  1.00  0.00    -0.137 A  
HETATM   19  C   UNL     1      -9.721  10.551  67.515  1.00  0.00    -0.190 C  
HETATM   20  C   UNL     1      -9.534   9.052  67.354  1.00  0.00    -0.179 C  
HETATM   21  C   UNL     1      -8.357   8.529  68.115  1.00  0.00    -0.127 C  
HETATM   22  N   UNL     1      -7.252   9.334  68.123  1.00  0.00    -0.078 N  
HETATM   23  O   UNL     1      -8.329   7.399  68.595  1.00  0.00    -0.127 OA 
HETATM   24  H   UNL     1      -6.368   8.922  68.421  1.00  0.00     0.000 HD 
ENDBRANCH  12  13
ENDBRANCH  11  12
ENDBRANCH   8  11
ENDBRANCH   7   8
ENDBRANCH   5   7
TORSDOF 5
ENDMDL
MODEL      295
REMARK 921   NORMALIZED FREE ENERGY PREDICTED BY IDOCK:   -2.92 KCAL/MOL
REMARK 922        TOTAL FREE ENERGY PREDICTED BY IDOCK:   -4.40 KCAL/MOL
REMARK 923 INTER-LIGAND FREE ENERGY PREDICTED BY IDOCK:   -3.54 KCAL/MOL
REMARK 924 INTRA-LIGAND FREE ENERGY PREDICTED BY IDOCK:   -0.86 KCAL/MOL
REMARK 927      BINDING AFFINITY PREDICTED BY RF-SCORE:    0.00 PKD
ROOT
HETATM    1  C   UNL     1      -6.496  11.421  68.810  1.00  0.00    -0.056 C  
HETATM    2  C   UNL     1      -6.737  10.147  67.982  1.00  0.00    -0.063 C  
HETATM    3  C   UNL     1      -6.637   8.933  68.924  1.00  0.00    -0.052 C  
HETATM    4  C   UNL     1      -5.644  10.008  66.906  1.00  0.00    -0.046 C  
HETATM    5  N   UNL     1      -8.085  10.120  67.378  1.00  0.00    -0.113 NA 
HETATM    6  H   UNL     1      -8.798  10.041  68.103  1.00  0.00     0.000 HD 
ENDROOT
BRANCH   5   7
HETATM    7  C   UNL     1      -8.379  11.256  66.496  1.00  0.00    -0.168 C  
BRANCH   7   8
HETATM    8  C   UNL     1      -9.674  11.060  65.679  1.00  0.00    -0.232 C  
HETATM    9  H   UNL     1     -10.333  11.512  63.873  1.00  0.00     0.000 HD 
HETATM   10  O   UNL     1      -9.536  11.633  64.375  1.00  0.00    -0.154 OA 
BRANCH   8  11
HETATM   11  C   UNL     1      -9.976   9.553  65.584  1.00  0.00    -0.199 C  
BRANCH  11  12
HETATM   12  O   UNL     1     -10.910   9.174  66.596  1.00  0.00    -0.071 OA 
BRANCH  12  13
HETATM   13  C   UNL     1     -10.616   8.129  67.436  1.00  0.00    -0.255 A  
HETATM   14  C   UNL     1     -10.447   6.925  66.726  1.00  0.00    -0.300 A  
HETATM   15  C   UNL     1     -10.032   5.753  67.358  1.00  0.00    -0.172 A  
HETATM   16  C   UNL     1      -9.726   5.782  68.711  1.00  0.00    -0.168 A  
HETATM   17  C   UNL     1      -9.862   6.973  69.426  1.00  0.00    -0.160 A  
HETATM   18  C   UNL     1     -10.350   8.155  68.821  1.00  0.00    -0.220 A  
HETATM   19  C   UNL     1     -10.399   9.391  69.680  1.00  0.00    -0.229 C  
HETATM   20  C   UNL     1     -10.434   9.132  71.176  1.00  0.00    -0.385 C  
HETATM   21  C   UNL     1      -9.498   8.046  71.600  1.00  0.00    -0.164 C  
HETATM   22  N   UNL     1      -9.405   6.979  70.748  1.00  0.00    -0.161 N  
HETATM   23  O   UNL     1      -8.943   8.040  72.695  1.00  0.00    -0.173 OA 
HETATM   24  H   UNL     1      -8.971   6.127  71.103  1.00  0.00     0.000 HD 
ENDBRANCH  12  13
ENDBRANCH  11  12
ENDBRANCH   8  11
ENDBRANCH   7   8
ENDBRANCH   5   7
TORSDOF 5
ENDMDL
MODEL      296
REMARK 921   NORMALIZED FREE ENERGY PREDICTED BY IDOCK:   -2.89 KCAL/MOL
REMARK 922        TOTAL FREE ENERGY PREDICTED BY IDOCK:   -4.37 KCAL/MOL
REMARK 923 INTER-LIGAND FREE ENERGY PREDICTED BY IDOCK:   -4.48 KCAL/MOL
REMARK 924 INTRA-LIGAND FREE ENERGY PREDICTED BY IDOCK:    0.11 KCAL/MOL
REMARK 927      BINDING AFFINITY PREDICTED BY RF-SCORE:    0.00 PKD
ROOT
HETATM    1  C   UNL     1     -11.867  12.853  68.226  1.00  0.00    -0.372 C  
HETATM    2  C   UNL     1     -11.131  13.390  66.986  1.00  0.00    -0.292 C  
HETATM    3  C   UNL     1     -10.727  14.850  67.259  1.00  0.00    -0.294 C  
HETATM    4  C   UNL     1     -12.077  13.376  65.770  1.00  0.00    -0.481 C  
HETATM    5  N   UNL     1      -9.890  12.640  66.704  1.00  0.00    -0.238 NA 
HETATM    6  H   UNL     1      -9.204  12.797  67.442  1.00  0.00     0.000 HD 
ENDROOT
BRANCH   5   7
HETATM    7  C   UNL     1     -10.085  11.202  66.486  1.00  0.00    -0.223 C  
BRANCH   7   8
HETATM    8  C   UNL     1      -9.323  10.333  67.510  1.00  0.00    -0.148 C  
HETATM    9  H   UNL     1      -8.417  10.592  69.245  1.00  0.00     0.000 HD 
HETATM   10  O   UNL     1      -8.886  11.127  68.616  1.00  0.00    -0.159 OA 
BRANCH   8  11
HETATM   11  C   UNL     1     -10.252   9.200  67.984  1.00  0.00    -0.211 C  
BRANCH  11  12
HETATM   12  O   UNL     1      -9.506   8.226  68.716  1.00  0.00    -0.147 OA 
BRANCH  12  13
HETATM   13  C   UNL     1      -9.958   7.803  69.941  1.00  0.00    -0.191 A  
HETATM   14  C   UNL     1      -9.011   6.987  70.589  1.00  0.00    -0.154 A  
HETATM   15  C   UNL     1      -9.206   6.534  71.894  1.00  0.00    -0.148 A  
HETATM   16  C   UNL     1     -10.334   6.937  72.593  1.00  0.00    -0.228 A  
HETATM   17  C   UNL     1     -11.271   7.767  71.975  1.00  0.00    -0.278 A  
HETATM   18  C   UNL     1     -11.129   8.180  70.630  1.00  0.00    -0.264 A  
HETATM   19  C   UNL     1     -12.175   9.119  70.091  1.00  0.00     0.435 C  
HETATM   20  C   UNL     1     -13.501   9.098  70.833  1.00  0.00     0.051 C  
HETATM   21  C   UNL     1     -13.335   9.045  72.318  1.00  0.00    -0.467 C  
HETATM   22  N   UNL     1     -12.313   8.256  72.771  1.00  0.00    -0.594 N  
HETATM   23  O   UNL     1     -14.132   9.566  73.093  1.00  0.00    -0.074 OA 
HETATM   24  H   UNL     1     -12.311   8.005  73.760  1.00  0.00     0.000 HD 
ENDBRANCH  12  13
ENDBRANCH  11  12
ENDBRANCH   8  11
ENDBRANCH   7   8
ENDBRANCH   5   7
TORSDOF 5
ENDMDL
MODEL      297
REMARK 921   NORMALIZED FREE ENERGY PREDICTED BY IDOCK:   -2.86 KCAL/MOL
REMARK 922        TOTAL FREE ENERGY PREDICTED BY IDOCK:   -4.33 KCAL/MOL
REMARK 923 INTER-LIGAND FREE ENERGY PREDICTED BY IDOCK:   -3.26 KCAL/MOL
REMARK 924 INTRA-LIGAND FREE ENERGY PREDICTED BY IDOCK:   -1.07 KCAL/MOL
REMARK 927      BINDING AFFINITY PREDICTED BY RF-SCORE:    0.00 PKD
ROOT
HETATM    1  C   UNL     1      -7.882   8.127  73.877  1.00  0.00    -0.259 C  
HETATM    2  C   UNL     1      -8.158   7.509  72.494  1.00  0.00    -0.104 C  
HETATM    3  C   UNL     1      -6.819   7.033  71.902  1.00  0.00    -0.060 C  
HETATM    4  C   UNL     1      -8.744   8.578  71.553  1.00  0.00    -0.246 C  
HETATM    5  N   UNL     1      -9.043   6.329  72.577  1.00  0.00    -0.141 NA 
HETATM    6  H   UNL     1      -8.571   5.565  73.060  1.00  0.00     0.000 HD 
ENDROOT
BRANCH   5   7
HETATM    7  C   UNL     1     -10.350   6.590  73.189  1.00  0.00    -0.231 C  
BRANCH   7   8
HETATM    8  C   UNL     1     -11.529   6.153  72.293  1.00  0.00    -0.312 C  
HETATM    9  H   UNL     1     -12.911   7.025  71.185  1.00  0.00     0.000 HD 
HETATM   10  O   UNL     1     -12.186   7.295  71.736  1.00  0.00    -0.306 OA 
BRANCH   8  11
HETATM   11  C   UNL     1     -10.990   5.235  71.180  1.00  0.00     0.022 C  
BRANCH  11  12
HETATM   12  O   UNL     1     -10.634   6.009  70.034  1.00  0.00    -0.222 OA 
BRANCH  12  13
HETATM   13  C   UNL     1      -9.886   5.440  69.035  1.00  0.00    -0.168 A  
HETATM   14  C   UNL     1      -9.789   4.044  69.190  1.00  0.00    -0.072 A  
HETATM   15  C   UNL     1      -9.173   3.241  68.230  1.00  0.00    -0.239 A  
HETATM   16  C   UNL     1      -8.688   3.821  67.067  1.00  0.00    -0.120 A  
HETATM   17  C   UNL     1      -8.798   5.200  66.884  1.00  0.00    -0.110 A  
HETATM   18  C   UNL     1      -9.354   6.042  67.875  1.00  0.00    -0.110 A  
HETATM   19  C   UNL     1      -9.471   7.505  67.539  1.00  0.00    -0.165 C  
HETATM   20  C   UNL     1      -8.532   7.991  66.448  1.00  0.00    -0.138 C  
HETATM   21  C   UNL     1      -8.430   7.035  65.302  1.00  0.00    -0.052 C  
HETATM   22  N   UNL     1      -8.423   5.709  65.636  1.00  0.00    -0.141 N  
HETATM   23  O   UNL     1      -8.237   7.405  64.147  1.00  0.00    -0.083 OA 
HETATM   24  H   UNL     1      -8.121   5.043  64.924  1.00  0.00     0.000 HD 
ENDBRANCH  12  13
ENDBRANCH  11  12
ENDBRANCH   8  11
ENDBRANCH   7   8
ENDBRANCH   5   7
TORSDOF 5
ENDMDL
MODEL      298
REMARK 921   NORMALIZED FREE ENERGY PREDICTED BY IDOCK:   -2.86 KCAL/MOL
REMARK 922        TOTAL FREE ENERGY PREDICTED BY IDOCK:   -4.33 KCAL/MOL
REMARK 923 INTER-LIGAND FREE ENERGY PREDICTED BY IDOCK:   -4.29 KCAL/MOL
REMARK 924 INTRA-LIGAND FREE ENERGY PREDICTED BY IDOCK:   -0.03 KCAL/MOL
REMARK 927      BINDING AFFINITY PREDICTED BY RF-SCORE:    0.00 PKD
ROOT
HETATM    1  C   UNL     1     -11.911   9.986  69.698  1.00  0.00     0.036 C  
HETATM    2  C   UNL     1     -12.096   9.241  71.031  1.00  0.00    -0.280 C  
HETATM    3  C   UNL     1     -13.050  10.064  71.916  1.00  0.00    -0.563 C  
HETATM    4  C   UNL     1     -10.743   9.132  71.761  1.00  0.00    -0.405 C  
HETATM    5  N   UNL     1     -12.710   7.910  70.847  1.00  0.00    -0.520 NA 
HETATM    6  H   UNL     1     -13.672   8.005  70.522  1.00  0.00     0.000 HD 
ENDROOT
BRANCH   5   7
HETATM    7  C   UNL     1     -11.960   7.011  69.964  1.00  0.00    -0.002 C  
BRANCH   7   8
HETATM    8  C   UNL     1     -10.810   6.280  70.690  1.00  0.00    -0.280 C  
HETATM    9  H   UNL     1     -10.599   5.116  72.271  1.00  0.00     0.000 HD 
HETATM   10  O   UNL     1     -11.307   5.566  71.825  1.00  0.00    -0.172 OA 
BRANCH   8  11
HETATM   11  C   UNL     1     -10.129   5.321  69.696  1.00  0.00    -0.257 C  
BRANCH  11  12
HETATM   12  O   UNL     1     -10.511   5.645  68.359  1.00  0.00    -0.199 OA 
BRANCH  12  13
HETATM   13  C   UNL     1      -9.704   5.276  67.312  1.00  0.00    -0.149 A  
HETATM   14  C   UNL     1      -9.600   3.875  67.207  1.00  0.00    -0.222 A  
HETATM   15  C   UNL     1      -8.924   3.269  66.148  1.00  0.00    -0.147 A  
HETATM   16  C   UNL     1      -8.384   4.059  65.144  1.00  0.00    -0.105 A  
HETATM   17  C   UNL     1      -8.500   5.448  65.218  1.00  0.00    -0.149 A  
HETATM   18  C   UNL     1      -9.119   6.087  66.318  1.00  0.00    -0.160 A  
HETATM   19  C   UNL     1      -9.234   7.587  66.259  1.00  0.00    -0.194 C  
HETATM   20  C   UNL     1      -8.243   8.271  65.332  1.00  0.00    -0.146 C  
HETATM   21  C   UNL     1      -8.069   7.550  64.034  1.00  0.00    -0.041 C  
HETATM   22  N   UNL     1      -8.064   6.184  64.111  1.00  0.00    -0.205 N  
HETATM   23  O   UNL     1      -7.818   8.132  62.982  1.00  0.00    -0.134 OA 
HETATM   24  H   UNL     1      -7.717   5.666  63.304  1.00  0.00     0.000 HD 
ENDBRANCH  12  13
ENDBRANCH  11  12
ENDBRANCH   8  11
ENDBRANCH   7   8
ENDBRANCH   5   7
TORSDOF 5
ENDMDL
MODEL      299
REMARK 921   NORMALIZED FREE ENERGY PREDICTED BY IDOCK:   -2.85 KCAL/MOL
REMARK 922        TOTAL FREE ENERGY PREDICTED BY IDOCK:   -4.31 KCAL/MOL
REMARK 923 INTER-LIGAND FREE ENERGY PREDICTED BY IDOCK:   -4.14 KCAL/MOL
REMARK 924 INTRA-LIGAND FREE ENERGY PREDICTED BY IDOCK:   -0.17 KCAL/MOL
REMARK 927      BINDING AFFINITY PREDICTED BY RF-SCORE:    0.00 PKD
ROOT
HETATM    1  C   UNL     1     -12.060  15.905  72.299  1.00  0.00    -0.597 C  
HETATM    2  C   UNL     1     -12.948  15.071  71.360  1.00  0.00    -0.371 C  
HETATM    3  C   UNL     1     -14.378  15.639  71.417  1.00  0.00    -0.158 C  
HETATM    4  C   UNL     1     -12.995  13.610  71.845  1.00  0.00    -0.432 C  
HETATM    5  N   UNL     1     -12.503  15.151  69.954  1.00  0.00    -0.552 NA 
HETATM    6  H   UNL     1     -12.638  16.095  69.591  1.00  0.00     0.000 HD 
ENDROOT
BRANCH   5   7
HETATM    7  C   UNL     1     -11.122  14.710  69.727  1.00  0.00    -0.234 C  
BRANCH   7   8
HETATM    8  C   UNL     1     -10.775  14.576  68.228  1.00  0.00    -0.240 C  
HETATM    9  H   UNL     1     -11.685  14.848  66.497  1.00  0.00     0.000 HD 
HETATM   10  O   UNL     1     -11.899  14.931  67.419  1.00  0.00    -0.348 OA 
BRANCH   8  11
HETATM   11  C   UNL     1      -9.569  15.482  67.917  1.00  0.00    -0.206 C  
BRANCH  11  12
HETATM   12  O   UNL     1      -9.308  16.350  69.022  1.00  0.00    -0.244 OA 
BRANCH  12  13
HETATM   13  C   UNL     1      -8.253  17.224  68.965  1.00  0.00    -0.096 A  
HETATM   14  C   UNL     1      -7.366  17.038  70.042  1.00  0.00     1.153 A  
HETATM   15  C   UNL     1      -6.162  17.737  70.130  1.00  0.00     0.085 A  
HETATM   16  C   UNL     1      -5.801  18.601  69.106  1.00  0.00    -0.229 A  
HETATM   17  C   UNL     1      -6.655  18.778  68.017  1.00  0.00    -0.219 A  
HETATM   18  C   UNL     1      -7.912  18.135  67.942  1.00  0.00    -0.249 A  
HETATM   19  C   UNL     1      -8.721  18.361  66.692  1.00  0.00    -0.295 C  
HETATM   20  C   UNL     1      -8.371  19.620  65.919  1.00  0.00    -0.188 C  
HETATM   21  C   UNL     1      -6.896  19.854  65.828  1.00  0.00    -0.282 C  
HETATM   22  N   UNL     1      -6.177  19.548  66.950  1.00  0.00    -0.184 N  
HETATM   23  O   UNL     1      -6.372  20.402  64.862  1.00  0.00    -0.257 OA 
HETATM   24  H   UNL     1      -5.225  19.907  67.015  1.00  0.00     0.000 HD 
ENDBRANCH  12  13
ENDBRANCH  11  12
ENDBRANCH   8  11
ENDBRANCH   7   8
ENDBRANCH   5   7
TORSDOF 5
ENDMDL
MODEL      300
REMARK 921   NORMALIZED FREE ENERGY PREDICTED BY IDOCK:   -2.80 KCAL/MOL
REMARK 922        TOTAL FREE ENERGY PREDICTED BY IDOCK:   -4.25 KCAL/MOL
REMARK 923 INTER-LIGAND FREE ENERGY PREDICTED BY IDOCK:   -3.89 KCAL/MOL
REMARK 924 INTRA-LIGAND FREE ENERGY PREDICTED BY IDOCK:   -0.36 KCAL/MOL
REMARK 927      BINDING AFFINITY PREDICTED BY RF-SCORE:    0.00 PKD
ROOT
HETATM    1  C   UNL     1     -13.647   9.821  70.257  1.00  0.00     0.663 C  
HETATM    2  C   UNL     1     -12.524  10.451  71.100  1.00  0.00    -0.404 C  
HETATM    3  C   UNL     1     -11.952   9.364  72.029  1.00  0.00    -0.345 C  
HETATM    4  C   UNL     1     -13.099  11.577  71.978  1.00  0.00    -0.430 C  
HETATM    5  N   UNL     1     -11.409  10.942  70.266  1.00  0.00    -0.424 NA 
HETATM    6  H   UNL     1     -10.927  10.161  69.820  1.00  0.00     0.000 HD 
ENDROOT
BRANCH   5   7
HETATM    7  C   UNL     1     -11.793  11.943  69.264  1.00  0.00    -0.318 C  
BRANCH   7   8
HETATM    8  C   UNL     1     -12.022  11.333  67.865  1.00  0.00    -0.002 C  
HETATM    9  H   UNL     1     -12.007  11.955  65.990  1.00  0.00     0.000 HD 
HETATM   10  O   UNL     1     -11.865  12.331  66.851  1.00  0.00    -0.524 OA 
BRANCH   8  11
HETATM   11  C   UNL     1     -11.021  10.182  67.657  1.00  0.00    -0.268 C  
BRANCH  11  12
HETATM   12  O   UNL     1     -10.313  10.361  66.430  1.00  0.00    -0.236 OA 
BRANCH  12  13
HETATM   13  C   UNL     1      -8.941  10.359  66.430  1.00  0.00    -0.149 A  
HETATM   14  C   UNL     1      -8.424   9.238  65.754  1.00  0.00    -0.144 A  
HETATM   15  C   UNL     1      -7.055   9.085  65.529  1.00  0.00    -0.081 A  
HETATM   16  C   UNL     1      -6.183  10.085  65.934  1.00  0.00    -0.085 A  
HETATM   17  C   UNL     1      -6.681  11.216  66.582  1.00  0.00    -0.137 A  
HETATM   18  C   UNL     1      -8.056  11.359  66.885  1.00  0.00    -0.158 A  
HETATM   19  C   UNL     1      -8.480  12.647  67.537  1.00  0.00    -0.176 C  
HETATM   20  C   UNL     1      -7.375  13.396  68.261  1.00  0.00    -0.113 C  
HETATM   21  C   UNL     1      -6.087  13.410  67.500  1.00  0.00    -0.063 C  
HETATM   22  N   UNL     1      -5.777  12.253  66.840  1.00  0.00    -0.155 N  
HETATM   23  O   UNL     1      -5.293  14.345  67.560  1.00  0.00    -0.337 OA 
HETATM   24  H   UNL     1      -4.819  12.137  66.512  1.00  0.00     0.000 HD 
ENDBRANCH  12  13
ENDBRANCH  11  12
ENDBRANCH   8  11
ENDBRANCH   7   8
ENDBRANCH   5   7
TORSDOF 5
ENDMDL
MODEL      301
REMARK 921   NORMALIZED FREE ENERGY PREDICTED BY IDOCK:   -2.79 KCAL/MOL
REMARK 922        TOTAL FREE ENERGY PREDICTED BY IDOCK:   -4.24 KCAL/MOL
REMARK 923 INTER-LIGAND FREE ENERGY PREDICTED BY IDOCK:   -3.51 KCAL/MOL
REMARK 924 INTRA-LIGAND FREE ENERGY PREDICTED BY IDOCK:   -0.72 KCAL/MOL
REMARK 927      BINDING AFFINITY PREDICTED BY RF-SCORE:    0.00 PKD
ROOT
HETATM    1  C   UNL     1      -7.599  14.751  69.578  1.00  0.00    -0.092 C  
HETATM    2  C   UNL     1      -7.521  15.428  68.198  1.00  0.00    -0.115 C  
HETATM    3  C   UNL     1      -6.100  15.223  67.641  1.00  0.00    -0.139 C  
HETATM    4  C   UNL     1      -7.763  16.942  68.345  1.00  0.00    -0.219 C  
HETATM    5  N   UNL     1      -8.460  14.829  67.229  1.00  0.00    -0.201 NA 
HETATM    6  H   UNL     1      -8.184  13.871  67.012  1.00  0.00     0.000 HD 
ENDROOT
BRANCH   5   7
HETATM    7  C   UNL     1      -9.868  14.873  67.639  1.00  0.00    -0.217 C  
BRANCH   7   8
HETATM    8  C   UNL     1     -10.620  13.557  67.346  1.00  0.00    -0.251 C  
HETATM    9  H   UNL     1     -12.214  12.992  66.327  1.00  0.00     0.000 HD 
HETATM   10  O   UNL     1     -11.752  13.802  66.507  1.00  0.00    -0.347 OA 
BRANCH   8  11
HETATM   11  C   UNL     1      -9.646  12.571  66.674  1.00  0.00    -0.239 C  
BRANCH  11  12
HETATM   12  O   UNL     1      -8.732  12.049  67.639  1.00  0.00    -0.152 OA 
BRANCH  12  13
HETATM   13  C   UNL     1      -8.828  10.735  68.025  1.00  0.00    -0.132 A  
HETATM   14  C   UNL     1      -9.345  10.615  69.330  1.00  0.00    -0.136 A  
HETATM   15  C   UNL     1      -9.638   9.372  69.890  1.00  0.00    -0.234 A  
HETATM   16  C   UNL     1      -9.466   8.225  69.128  1.00  0.00    -0.155 A  
HETATM   17  C   UNL     1      -8.980   8.327  67.824  1.00  0.00    -0.136 A  
HETATM   18  C   UNL     1      -8.609   9.570  67.261  1.00  0.00    -0.128 A  
HETATM   19  C   UNL     1      -8.150   9.559  65.827  1.00  0.00    -0.111 C  
HETATM   20  C   UNL     1      -7.639   8.220  65.326  1.00  0.00    -0.094 C  
HETATM   21  C   UNL     1      -8.481   7.070  65.779  1.00  0.00    -0.149 C  
HETATM   22  N   UNL     1      -8.962   7.156  67.057  1.00  0.00    -0.126 N  
HETATM   23  O   UNL     1      -8.633   6.054  65.106  1.00  0.00    -0.142 OA 
HETATM   24  H   UNL     1      -9.333   6.306  67.482  1.00  0.00     0.000 HD 
ENDBRANCH  12  13
ENDBRANCH  11  12
ENDBRANCH   8  11
ENDBRANCH   7   8
ENDBRANCH   5   7
TORSDOF 5
ENDMDL
MODEL      302
REMARK 921   NORMALIZED FREE ENERGY PREDICTED BY IDOCK:   -2.77 KCAL/MOL
REMARK 922        TOTAL FREE ENERGY PREDICTED BY IDOCK:   -4.21 KCAL/MOL
REMARK 923 INTER-LIGAND FREE ENERGY PREDICTED BY IDOCK:   -3.75 KCAL/MOL
REMARK 924 INTRA-LIGAND FREE ENERGY PREDICTED BY IDOCK:   -0.45 KCAL/MOL
REMARK 927      BINDING AFFINITY PREDICTED BY RF-SCORE:    0.00 PKD
ROOT
HETATM    1  C   UNL     1      -9.864   9.225  65.885  1.00  0.00    -0.335 C  
HETATM    2  C   UNL     1      -8.602   9.728  65.161  1.00  0.00    -0.158 C  
HETATM    3  C   UNL     1      -8.830   9.590  63.644  1.00  0.00    -0.236 C  
HETATM    4  C   UNL     1      -7.395   8.851  65.544  1.00  0.00    -0.085 C  
HETATM    5  N   UNL     1      -8.333  11.154  65.434  1.00  0.00    -0.377 NA 
HETATM    6  H   UNL     1      -9.061  11.738  65.023  1.00  0.00     0.000 HD 
ENDROOT
BRANCH   5   7
HETATM    7  C   UNL     1      -8.159  11.479  66.854  1.00  0.00    -0.164 C  
BRANCH   7   8
HETATM    8  C   UNL     1      -6.681  11.449  67.299  1.00  0.00    -0.111 C  
HETATM    9  H   UNL     1      -5.262  12.759  67.712  1.00  0.00     0.000 HD 
HETATM   10  O   UNL     1      -6.172  12.778  67.438  1.00  0.00    -0.156 OA 
BRANCH   8  11
HETATM   11  C   UNL     1      -6.582  10.684  68.632  1.00  0.00    -0.056 C  
BRANCH  11  12
HETATM   12  O   UNL     1      -7.879  10.261  69.054  1.00  0.00    -0.095 OA 
BRANCH  12  13
HETATM   13  C   UNL     1      -8.001   9.374  70.094  1.00  0.00    -0.150 A  
HETATM   14  C   UNL     1      -6.893   9.437  70.961  1.00  0.00    -0.072 A  
HETATM   15  C   UNL     1      -6.851   8.707  72.149  1.00  0.00    -0.069 A  
HETATM   16  C   UNL     1      -7.947   7.939  72.515  1.00  0.00    -0.157 A  
HETATM   17  C   UNL     1      -9.064   7.885  71.681  1.00  0.00    -0.138 A  
HETATM   18  C   UNL     1      -9.100   8.559  70.438  1.00  0.00    -0.164 A  
HETATM   19  C   UNL     1     -10.380   8.471  69.651  1.00  0.00    -0.218 C  
HETATM   20  C   UNL     1     -11.265   7.285  69.994  1.00  0.00    -0.234 C  
HETATM   21  C   UNL     1     -11.351   7.030  71.465  1.00  0.00    -0.258 C  
HETATM   22  N   UNL     1     -10.190   7.212  72.166  1.00  0.00    -0.185 N  
HETATM   23  O   UNL     1     -12.355   6.567  71.999  1.00  0.00    -0.336 OA 
HETATM   24  H   UNL     1     -10.142   6.828  73.110  1.00  0.00     0.000 HD 
ENDBRANCH  12  13
ENDBRANCH  11  12
ENDBRANCH   8  11
ENDBRANCH   7   8
ENDBRANCH   5   7
TORSDOF 5
ENDMDL
MODEL      303
REMARK 921   NORMALIZED FREE ENERGY PREDICTED BY IDOCK:   -2.77 KCAL/MOL
REMARK 922        TOTAL FREE ENERGY PREDICTED BY IDOCK:   -4.20 KCAL/MOL
REMARK 923 INTER-LIGAND FREE ENERGY PREDICTED BY IDOCK:   -4.49 KCAL/MOL
REMARK 924 INTRA-LIGAND FREE ENERGY PREDICTED BY IDOCK:    0.29 KCAL/MOL
REMARK 927      BINDING AFFINITY PREDICTED BY RF-SCORE:    0.00 PKD
ROOT
HETATM    1  C   UNL     1      -9.773  15.641  68.363  1.00  0.00    -0.202 C  
HETATM    2  C   UNL     1      -9.086  15.428  67.002  1.00  0.00    -0.227 C  
HETATM    3  C   UNL     1      -7.612  15.064  67.258  1.00  0.00    -0.227 C  
HETATM    4  C   UNL     1      -9.121  16.736  66.189  1.00  0.00    -0.288 C  
HETATM    5  N   UNL     1      -9.685  14.313  66.243  1.00  0.00    -0.296 NA 
HETATM    6  H   UNL     1      -9.505  13.426  66.712  1.00  0.00     0.000 HD 
ENDROOT
BRANCH   5   7
HETATM    7  C   UNL     1     -11.119  14.464  65.970  1.00  0.00    -0.324 C  
BRANCH   7   8
HETATM    8  C   UNL     1     -11.999  13.593  66.892  1.00  0.00    -0.410 C  
HETATM    9  H   UNL     1     -13.782  12.746  66.821  1.00  0.00     0.000 HD 
HETATM   10  O   UNL     1     -13.241  13.282  66.253  1.00  0.00     0.238 OA 
BRANCH   8  11
HETATM   11  C   UNL     1     -11.228  12.308  67.242  1.00  0.00    -0.300 C  
BRANCH  11  12
HETATM   12  O   UNL     1     -11.941  11.559  68.228  1.00  0.00    -0.544 OA 
BRANCH  12  13
HETATM   13  C   UNL     1     -11.259  10.707  69.060  1.00  0.00    -0.265 A  
HETATM   14  C   UNL     1     -12.110  10.129  70.021  1.00  0.00    -0.166 A  
HETATM   15  C   UNL     1     -11.659   9.144  70.901  1.00  0.00    -0.350 A  
HETATM   16  C   UNL     1     -10.355   8.683  70.796  1.00  0.00    -0.249 A  
HETATM   17  C   UNL     1      -9.505   9.226  69.831  1.00  0.00    -0.197 A  
HETATM   18  C   UNL     1      -9.919  10.274  68.977  1.00  0.00    -0.223 A  
HETATM   19  C   UNL     1      -8.931  10.739  67.940  1.00  0.00    -0.139 C  
HETATM   20  C   UNL     1      -7.477  10.429  68.252  1.00  0.00    -0.090 C  
HETATM   21  C   UNL     1      -7.283   9.054  68.809  1.00  0.00    -0.075 C  
HETATM   22  N   UNL     1      -8.251   8.625  69.676  1.00  0.00    -0.112 N  
HETATM   23  O   UNL     1      -6.266   8.396  68.610  1.00  0.00    -0.044 OA 
HETATM   24  H   UNL     1      -8.042   7.809  70.252  1.00  0.00     0.000 HD 
ENDBRANCH  12  13
ENDBRANCH  11  12
ENDBRANCH   8  11
ENDBRANCH   7   8
ENDBRANCH   5   7
TORSDOF 5
ENDMDL
MODEL      304
REMARK 921   NORMALIZED FREE ENERGY PREDICTED BY IDOCK:   -2.74 KCAL/MOL
REMARK 922        TOTAL FREE ENERGY PREDICTED BY IDOCK:   -4.17 KCAL/MOL
REMARK 923 INTER-LIGAND FREE ENERGY PREDICTED BY IDOCK:   -3.85 KCAL/MOL
REMARK 924 INTRA-LIGAND FREE ENERGY PREDICTED BY IDOCK:   -0.32 KCAL/MOL
REMARK 927      BINDING AFFINITY PREDICTED BY RF-SCORE:    0.00 PKD
ROOT
HETATM    1  C   UNL     1      -8.584   8.308  65.068  1.00  0.00    -0.102 C  
HETATM    2  C   UNL     1      -8.139   7.769  66.440  1.00  0.00    -0.109 C  
HETATM    3  C   UNL     1      -6.935   6.835  66.223  1.00  0.00    -0.062 C  
HETATM    4  C   UNL     1      -9.277   6.945  67.071  1.00  0.00    -0.160 C  
HETATM    5  N   UNL     1      -7.697   8.848  67.346  1.00  0.00    -0.096 NA 
HETATM    6  H   UNL     1      -6.839   9.276  66.997  1.00  0.00     0.000 HD 
ENDROOT
BRANCH   5   7
HETATM    7  C   UNL     1      -8.710   9.877  67.608  1.00  0.00    -0.121 C  
BRANCH   7   8
HETATM    8  C   UNL     1      -8.256  10.912  68.659  1.00  0.00    -0.146 C  
HETATM    9  H   UNL     1      -6.974  10.990  70.159  1.00  0.00     0.000 HD 
HETATM   10  O   UNL     1      -7.253  10.352  69.513  1.00  0.00    -0.098 OA 
BRANCH   8  11
HETATM   11  C   UNL     1      -7.719  12.156  67.929  1.00  0.00    -0.134 C  
BRANCH  11  12
HETATM   12  O   UNL     1      -8.636  13.243  68.069  1.00  0.00    -0.160 OA 
BRANCH  12  13
HETATM   13  C   UNL     1      -8.189  14.532  67.925  1.00  0.00    -0.153 A  
HETATM   14  C   UNL     1      -6.811  14.575  67.637  1.00  0.00    -0.203 A  
HETATM   15  C   UNL     1      -6.162  15.773  67.338  1.00  0.00    -0.144 A  
HETATM   16  C   UNL     1      -6.898  16.947  67.270  1.00  0.00    -0.198 A  
HETATM   17  C   UNL     1      -8.269  16.919  67.527  1.00  0.00    -0.178 A  
HETATM   18  C   UNL     1      -8.935  15.729  67.902  1.00  0.00    -0.180 A  
HETATM   19  C   UNL     1     -10.425  15.814  68.099  1.00  0.00    -0.263 C  
HETATM   20  C   UNL     1     -10.956  17.207  68.392  1.00  0.00    -0.221 C  
HETATM   21  C   UNL     1     -10.320  18.262  67.544  1.00  0.00    -0.398 C  
HETATM   22  N   UNL     1      -8.983  18.103  67.305  1.00  0.00    -0.246 N  
HETATM   23  O   UNL     1     -10.918  19.273  67.186  1.00  0.00    -0.476 OA 
HETATM   24  H   UNL     1      -8.468  18.904  66.940  1.00  0.00     0.000 HD 
ENDBRANCH  12  13
ENDBRANCH  11  12
ENDBRANCH   8  11
ENDBRANCH   7   8
ENDBRANCH   5   7
TORSDOF 5
ENDMDL
MODEL      305
REMARK 921   NORMALIZED FREE ENERGY PREDICTED BY IDOCK:   -2.73 KCAL/MOL
REMARK 922        TOTAL FREE ENERGY PREDICTED BY IDOCK:   -4.15 KCAL/MOL
REMARK 923 INTER-LIGAND FREE ENERGY PREDICTED BY IDOCK:   -3.84 KCAL/MOL
REMARK 924 INTRA-LIGAND FREE ENERGY PREDICTED BY IDOCK:   -0.32 KCAL/MOL
REMARK 927      BINDING AFFINITY PREDICTED BY RF-SCORE:    0.00 PKD
ROOT
HETATM    1  C   UNL     1      -9.097  10.533  62.862  1.00  0.00    -0.290 C  
HETATM    2  C   UNL     1      -8.495  10.226  64.245  1.00  0.00    -0.179 C  
HETATM    3  C   UNL     1      -7.128   9.549  64.036  1.00  0.00    -0.109 C  
HETATM    4  C   UNL     1      -9.404   9.241  65.004  1.00  0.00    -0.196 C  
HETATM    5  N   UNL     1      -8.259  11.450  65.036  1.00  0.00    -0.135 NA 
HETATM    6  H   UNL     1      -7.526  12.015  64.606  1.00  0.00     0.000 HD 
ENDROOT
BRANCH   5   7
HETATM    7  C   UNL     1      -9.458  12.263  65.272  1.00  0.00     0.074 C  
BRANCH   7   8
HETATM    8  C   UNL     1      -9.657  12.620  66.760  1.00  0.00    -0.241 C  
HETATM    9  H   UNL     1     -10.811  12.033  68.251  1.00  0.00     0.000 HD 
HETATM   10  O   UNL     1     -10.689  11.813  67.336  1.00  0.00    -0.218 OA 
BRANCH   8  11
HETATM   11  C   UNL     1      -8.323  12.411  67.501  1.00  0.00    -0.173 C  
BRANCH  11  12
HETATM   12  O   UNL     1      -8.273  13.236  68.666  1.00  0.00    -0.118 OA 
BRANCH  12  13
HETATM   13  C   UNL     1      -8.639  14.556  68.580  1.00  0.00    -0.168 A  
HETATM   14  C   UNL     1      -9.929  14.772  69.104  1.00  0.00    -0.184 A  
HETATM   15  C   UNL     1     -10.464  16.054  69.227  1.00  0.00    -0.257 A  
HETATM   16  C   UNL     1      -9.692  17.151  68.874  1.00  0.00    -0.256 A  
HETATM   17  C   UNL     1      -8.402  16.958  68.378  1.00  0.00    -0.238 A  
HETATM   18  C   UNL     1      -7.865  15.664  68.178  1.00  0.00    -0.129 A  
HETATM   19  C   UNL     1      -6.443  15.584  67.690  1.00  0.00    -0.194 C  
HETATM   20  C   UNL     1      -5.936  16.827  66.980  1.00  0.00    -0.213 C  
HETATM   21  C   UNL     1      -6.353  18.094  67.657  1.00  0.00    -0.174 C  
HETATM   22  N   UNL     1      -7.620  18.100  68.174  1.00  0.00    -0.256 N  
HETATM   23  O   UNL     1      -5.663  19.109  67.645  1.00  0.00    -0.183 OA 
HETATM   24  H   UNL     1      -8.023  19.001  68.428  1.00  0.00     0.000 HD 
ENDBRANCH  12  13
ENDBRANCH  11  12
ENDBRANCH   8  11
ENDBRANCH   7   8
ENDBRANCH   5   7
TORSDOF 5
ENDMDL
MODEL      306
REMARK 921   NORMALIZED FREE ENERGY PREDICTED BY IDOCK:   -2.70 KCAL/MOL
REMARK 922        TOTAL FREE ENERGY PREDICTED BY IDOCK:   -4.11 KCAL/MOL
REMARK 923 INTER-LIGAND FREE ENERGY PREDICTED BY IDOCK:   -3.69 KCAL/MOL
REMARK 924 INTRA-LIGAND FREE ENERGY PREDICTED BY IDOCK:   -0.43 KCAL/MOL
REMARK 927      BINDING AFFINITY PREDICTED BY RF-SCORE:    0.00 PKD
ROOT
HETATM    1  C   UNL     1      -8.128   8.458  66.280  1.00  0.00    -0.105 C  
HETATM    2  C   UNL     1      -8.019   9.922  65.817  1.00  0.00    -0.120 C  
HETATM    3  C   UNL     1      -8.210   9.960  64.290  1.00  0.00    -0.161 C  
HETATM    4  C   UNL     1      -6.615  10.468  66.138  1.00  0.00    -0.123 C  
HETATM    5  N   UNL     1      -9.070  10.774  66.410  1.00  0.00    -0.167 NA 
HETATM    6  H   UNL     1      -9.987  10.506  66.053  1.00  0.00     0.000 HD 
ENDROOT
BRANCH   5   7
HETATM    7  C   UNL     1      -9.079  10.797  67.877  1.00  0.00    -0.150 C  
BRANCH   7   8
HETATM    8  C   UNL     1     -10.379  11.395  68.458  1.00  0.00    -0.205 C  
HETATM    9  H   UNL     1     -11.918  12.441  67.797  1.00  0.00     0.000 HD 
HETATM   10  O   UNL     1     -11.118  12.074  67.439  1.00  0.00    -0.248 OA 
BRANCH   8  11
HETATM   11  C   UNL     1     -11.214  10.258  69.074  1.00  0.00    -0.208 C  
BRANCH  11  12
HETATM   12  O   UNL     1     -10.446   9.559  70.054  1.00  0.00    -0.212 OA 
BRANCH  12  13
HETATM   13  C   UNL     1     -11.066   8.674  70.900  1.00  0.00    -0.264 A  
HETATM   14  C   UNL     1     -12.456   8.893  70.952  1.00  0.00    -0.083 A  
HETATM   15  C   UNL     1     -13.306   8.042  71.658  1.00  0.00    -0.364 A  
HETATM   16  C   UNL     1     -12.781   6.920  72.283  1.00  0.00     0.002 A  
HETATM   17  C   UNL     1     -11.409   6.672  72.220  1.00  0.00    -0.275 A  
HETATM   18  C   UNL     1     -10.519   7.560  71.571  1.00  0.00    -0.226 A  
HETATM   19  C   UNL     1      -9.069   7.157  71.521  1.00  0.00    -0.143 C  
HETATM   20  C   UNL     1      -8.642   6.162  72.586  1.00  0.00    -0.124 C  
HETATM   21  C   UNL     1      -9.644   5.073  72.800  1.00  0.00    -0.142 C  
HETATM   22  N   UNL     1     -10.956   5.457  72.744  1.00  0.00    -0.259 N  
HETATM   23  O   UNL     1      -9.324   3.934  73.130  1.00  0.00    -0.108 OA 
HETATM   24  H   UNL     1     -11.654   4.810  73.112  1.00  0.00     0.000 HD 
ENDBRANCH  12  13
ENDBRANCH  11  12
ENDBRANCH   8  11
ENDBRANCH   7   8
ENDBRANCH   5   7
TORSDOF 5
ENDMDL
MODEL      307
REMARK 921   NORMALIZED FREE ENERGY PREDICTED BY IDOCK:   -2.69 KCAL/MOL
REMARK 922        TOTAL FREE ENERGY PREDICTED BY IDOCK:   -4.11 KCAL/MOL
REMARK 923 INTER-LIGAND FREE ENERGY PREDICTED BY IDOCK:   -3.82 KCAL/MOL
REMARK 924 INTRA-LIGAND FREE ENERGY PREDICTED BY IDOCK:   -0.29 KCAL/MOL
REMARK 927      BINDING AFFINITY PREDICTED BY RF-SCORE:    0.00 PKD
ROOT
HETATM    1  C   UNL     1     -10.313  13.409  64.544  1.00  0.00    -0.394 C  
HETATM    2  C   UNL     1     -11.253  13.904  65.658  1.00  0.00    -0.306 C  
HETATM    3  C   UNL     1     -12.558  14.396  65.006  1.00  0.00    -0.309 C  
HETATM    4  C   UNL     1     -10.608  15.093  66.395  1.00  0.00    -0.305 C  
HETATM    5  N   UNL     1     -11.616  12.826  66.601  1.00  0.00    -0.350 NA 
HETATM    6  H   UNL     1     -12.191  12.125  66.134  1.00  0.00     0.000 HD 
ENDROOT
BRANCH   5   7
HETATM    7  C   UNL     1     -10.474  12.189  67.266  1.00  0.00    -0.218 C  
BRANCH   7   8
HETATM    8  C   UNL     1     -10.583  10.650  67.301  1.00  0.00    -0.263 C  
HETATM    9  H   UNL     1     -10.795   9.180  65.998  1.00  0.00     0.000 HD 
HETATM   10  O   UNL     1     -10.728  10.128  65.977  1.00  0.00    -0.059 OA 
BRANCH   8  11
HETATM   11  C   UNL     1      -9.323  10.080  67.977  1.00  0.00    -0.130 C  
BRANCH  11  12
HETATM   12  O   UNL     1      -9.313   8.655  67.879  1.00  0.00    -0.141 OA 
BRANCH  12  13
HETATM   13  C   UNL     1      -8.613   8.049  66.866  1.00  0.00    -0.128 A  
HETATM   14  C   UNL     1      -7.507   8.822  66.465  1.00  0.00    -0.085 A  
HETATM   15  C   UNL     1      -6.585   8.352  65.530  1.00  0.00    -0.055 A  
HETATM   16  C   UNL     1      -6.728   7.070  65.018  1.00  0.00    -0.047 A  
HETATM   17  C   UNL     1      -7.803   6.280  65.424  1.00  0.00    -0.104 A  
HETATM   18  C   UNL     1      -8.789   6.762  66.316  1.00  0.00    -0.158 A  
HETATM   19  C   UNL     1      -9.871   5.797  66.724  1.00  0.00    -0.188 C  
HETATM   20  C   UNL     1     -10.093   4.639  65.767  1.00  0.00    -0.264 C  
HETATM   21  C   UNL     1      -8.814   4.053  65.257  1.00  0.00    -0.127 C  
HETATM   22  N   UNL     1      -7.818   4.950  64.987  1.00  0.00    -0.089 N  
HETATM   23  O   UNL     1      -8.697   2.863  64.976  1.00  0.00    -0.105 OA 
HETATM   24  H   UNL     1      -7.030   4.628  64.425  1.00  0.00     0.000 HD 
ENDBRANCH  12  13
ENDBRANCH  11  12
ENDBRANCH   8  11
ENDBRANCH   7   8
ENDBRANCH   5   7
TORSDOF 5
ENDMDL
MODEL      308
REMARK 921   NORMALIZED FREE ENERGY PREDICTED BY IDOCK:   -2.69 KCAL/MOL
REMARK 922        TOTAL FREE ENERGY PREDICTED BY IDOCK:   -4.11 KCAL/MOL
REMARK 923 INTER-LIGAND FREE ENERGY PREDICTED BY IDOCK:   -3.95 KCAL/MOL
REMARK 924 INTRA-LIGAND FREE ENERGY PREDICTED BY IDOCK:   -0.16 KCAL/MOL
REMARK 927      BINDING AFFINITY PREDICTED BY RF-SCORE:    0.00 PKD
ROOT
HETATM    1  C   UNL     1      -7.911  13.149  67.124  1.00  0.00    -0.061 C  
HETATM    2  C   UNL     1      -7.761  11.963  68.093  1.00  0.00    -0.126 C  
HETATM    3  C   UNL     1      -6.534  12.224  68.987  1.00  0.00    -0.096 C  
HETATM    4  C   UNL     1      -7.507  10.668  67.299  1.00  0.00    -0.099 C  
HETATM    5  N   UNL     1      -8.929  11.820  68.986  1.00  0.00    -0.371 NA 
HETATM    6  H   UNL     1      -8.985  12.613  69.626  1.00  0.00     0.000 HD 
ENDROOT
BRANCH   5   7
HETATM    7  C   UNL     1     -10.207  11.634  68.290  1.00  0.00    -0.199 C  
BRANCH   7   8
HETATM    8  C   UNL     1     -10.874  10.280  68.614  1.00  0.00    -0.234 C  
HETATM    9  H   UNL     1     -11.283   8.599  67.661  1.00  0.00     0.000 HD 
HETATM   10  O   UNL     1     -10.872   9.433  67.461  1.00  0.00    -0.269 OA 
BRANCH   8  11
HETATM   11  C   UNL     1     -10.112   9.620  69.778  1.00  0.00    -0.233 C  
BRANCH  11  12
HETATM   12  O   UNL     1      -9.255   8.589  69.283  1.00  0.00    -0.152 OA 
BRANCH  12  13
HETATM   13  C   UNL     1      -9.486   7.284  69.640  1.00  0.00    -0.155 A  
HETATM   14  C   UNL     1      -8.933   6.386  68.707  1.00  0.00    -0.126 A  
HETATM   15  C   UNL     1      -8.945   5.008  68.921  1.00  0.00    -0.127 A  
HETATM   16  C   UNL     1      -9.465   4.508  70.106  1.00  0.00    -0.237 A  
HETATM   17  C   UNL     1      -9.993   5.385  71.054  1.00  0.00    -0.199 A  
HETATM   18  C   UNL     1     -10.057   6.780  70.827  1.00  0.00    -0.208 A  
HETATM   19  C   UNL     1     -10.597   7.629  71.947  1.00  0.00    -0.257 C  
HETATM   20  C   UNL     1     -11.477   6.895  72.943  1.00  0.00    -0.129 C  
HETATM   21  C   UNL     1     -10.942   5.547  73.309  1.00  0.00    -0.292 C  
HETATM   22  N   UNL     1     -10.372   4.839  72.286  1.00  0.00    -0.200 N  
HETATM   23  O   UNL     1     -11.111   5.046  74.417  1.00  0.00    -0.175 OA 
HETATM   24  H   UNL     1     -10.212   3.842  72.431  1.00  0.00     0.000 HD 
ENDBRANCH  12  13
ENDBRANCH  11  12
ENDBRANCH   8  11
ENDBRANCH   7   8
ENDBRANCH   5   7
TORSDOF 5
ENDMDL
MODEL      309
REMARK 921   NORMALIZED FREE ENERGY PREDICTED BY IDOCK:   -2.68 KCAL/MOL
REMARK 922        TOTAL FREE ENERGY PREDICTED BY IDOCK:   -4.09 KCAL/MOL
REMARK 923 INTER-LIGAND FREE ENERGY PREDICTED BY IDOCK:   -4.08 KCAL/MOL
REMARK 924 INTRA-LIGAND FREE ENERGY PREDICTED BY IDOCK:   -0.01 KCAL/MOL
REMARK 927      BINDING AFFINITY PREDICTED BY RF-SCORE:    0.00 PKD
ROOT
HETATM    1  C   UNL     1     -10.305   8.295  66.722  1.00  0.00    -0.361 C  
HETATM    2  C   UNL     1      -8.776   8.152  66.618  1.00  0.00    -0.139 C  
HETATM    3  C   UNL     1      -8.433   7.651  65.203  1.00  0.00    -0.057 C  
HETATM    4  C   UNL     1      -8.279   7.103  67.630  1.00  0.00    -0.114 C  
HETATM    5  N   UNL     1      -8.081   9.442  66.804  1.00  0.00    -0.108 NA 
HETATM    6  H   UNL     1      -8.289  10.073  66.030  1.00  0.00     0.000 HD 
ENDROOT
BRANCH   5   7
HETATM    7  C   UNL     1      -8.355  10.102  68.086  1.00  0.00    -0.117 C  
BRANCH   7   8
HETATM    8  C   UNL     1      -7.291   9.789  69.160  1.00  0.00    -0.079 C  
HETATM    9  H   UNL     1      -5.700  10.672  69.927  1.00  0.00     0.000 HD 
HETATM   10  O   UNL     1      -6.354  10.865  69.266  1.00  0.00    -0.052 OA 
BRANCH   8  11
HETATM   11  C   UNL     1      -8.002   9.549  70.505  1.00  0.00    -0.159 C  
BRANCH  11  12
HETATM   12  O   UNL     1      -9.406   9.771  70.365  1.00  0.00    -0.242 OA 
BRANCH  12  13
HETATM   13  C   UNL     1     -10.291   8.976  71.048  1.00  0.00    -0.278 A  
HETATM   14  C   UNL     1     -11.501   9.649  71.305  1.00  0.00    -0.463 A  
HETATM   15  C   UNL     1     -12.591   9.000  71.887  1.00  0.00    -0.452 A  
HETATM   16  C   UNL     1     -12.503   7.646  72.174  1.00  0.00    -0.249 A  
HETATM   17  C   UNL     1     -11.320   6.957  71.902  1.00  0.00    -0.263 A  
HETATM   18  C   UNL     1     -10.180   7.609  71.379  1.00  0.00    -0.208 A  
HETATM   19  C   UNL     1      -8.981   6.749  71.075  1.00  0.00    -0.145 C  
HETATM   20  C   UNL     1      -8.929   5.432  71.828  1.00  0.00    -0.146 C  
HETATM   21  C   UNL     1     -10.257   4.748  71.897  1.00  0.00    -0.193 C  
HETATM   22  N   UNL     1     -11.337   5.569  72.078  1.00  0.00    -0.172 N  
HETATM   23  O   UNL     1     -10.373   3.526  71.918  1.00  0.00    -0.085 OA 
HETATM   24  H   UNL     1     -12.216   5.138  72.363  1.00  0.00     0.000 HD 
ENDBRANCH  12  13
ENDBRANCH  11  12
ENDBRANCH   8  11
ENDBRANCH   7   8
ENDBRANCH   5   7
TORSDOF 5
ENDMDL
MODEL      310
REMARK 921   NORMALIZED FREE ENERGY PREDICTED BY IDOCK:   -2.67 KCAL/MOL
REMARK 922        TOTAL FREE ENERGY PREDICTED BY IDOCK:   -4.08 KCAL/MOL
REMARK 923 INTER-LIGAND FREE ENERGY PREDICTED BY IDOCK:   -3.61 KCAL/MOL
REMARK 924 INTRA-LIGAND FREE ENERGY PREDICTED BY IDOCK:   -0.48 KCAL/MOL
REMARK 927      BINDING AFFINITY PREDICTED BY RF-SCORE:    0.00 PKD
ROOT
HETATM    1  C   UNL     1      -5.950  16.242  69.477  1.00  0.00    -0.167 C  
HETATM    2  C   UNL     1      -6.509  16.176  68.044  1.00  0.00    -0.132 C  
HETATM    3  C   UNL     1      -5.713  17.161  67.169  1.00  0.00    -0.187 C  
HETATM    4  C   UNL     1      -7.985  16.617  68.039  1.00  0.00    -0.173 C  
HETATM    5  N   UNL     1      -6.352  14.835  67.445  1.00  0.00    -0.318 NA 
HETATM    6  H   UNL     1      -5.365  14.625  67.297  1.00  0.00     0.000 HD 
ENDROOT
BRANCH   5   7
HETATM    7  C   UNL     1      -6.997  13.753  68.198  1.00  0.00    -0.120 C  
BRANCH   7   8
HETATM    8  C   UNL     1      -5.999  12.670  68.663  1.00  0.00    -0.065 C  
HETATM    9  H   UNL     1      -5.334  11.950  70.377  1.00  0.00     0.000 HD 
HETATM   10  O   UNL     1      -5.947  12.617  70.092  1.00  0.00    -0.148 OA 
BRANCH   8  11
HETATM   11  C   UNL     1      -6.436  11.313  68.081  1.00  0.00    -0.056 C  
BRANCH  11  12
HETATM   12  O   UNL     1      -7.810  11.067  68.385  1.00  0.00    -0.112 OA 
BRANCH  12  13
HETATM   13  C   UNL     1      -8.602  10.415  67.474  1.00  0.00    -0.125 A  
HETATM   14  C   UNL     1      -8.577  11.051  66.217  1.00  0.00    -0.167 A  
HETATM   15  C   UNL     1      -9.217  10.502  65.106  1.00  0.00    -0.243 A  
HETATM   16  C   UNL     1      -9.851   9.274  65.223  1.00  0.00     0.042 A  
HETATM   17  C   UNL     1      -9.863   8.617  66.454  1.00  0.00    -0.270 A  
HETATM   18  C   UNL     1      -9.283   9.188  67.611  1.00  0.00    -0.143 A  
HETATM   19  C   UNL     1      -9.310   8.359  68.868  1.00  0.00    -0.147 C  
HETATM   20  C   UNL     1     -10.380   7.282  68.904  1.00  0.00    -0.207 C  
HETATM   21  C   UNL     1     -10.515   6.553  67.605  1.00  0.00    -0.230 C  
HETATM   22  N   UNL     1     -10.391   7.321  66.480  1.00  0.00    -0.495 N  
HETATM   23  O   UNL     1     -10.842   5.371  67.540  1.00  0.00    -0.142 OA 
HETATM   24  H   UNL     1     -10.705   6.920  65.596  1.00  0.00     0.000 HD 
ENDBRANCH  12  13
ENDBRANCH  11  12
ENDBRANCH   8  11
ENDBRANCH   7   8
ENDBRANCH   5   7
TORSDOF 5
ENDMDL
MODEL      311
REMARK 921   NORMALIZED FREE ENERGY PREDICTED BY IDOCK:   -2.60 KCAL/MOL
REMARK 922        TOTAL FREE ENERGY PREDICTED BY IDOCK:   -3.98 KCAL/MOL
REMARK 923 INTER-LIGAND FREE ENERGY PREDICTED BY IDOCK:   -3.53 KCAL/MOL
REMARK 924 INTRA-LIGAND FREE ENERGY PREDICTED BY IDOCK:   -0.45 KCAL/MOL
REMARK 927      BINDING AFFINITY PREDICTED BY RF-SCORE:    0.00 PKD
ROOT
HETATM    1  C   UNL     1     -10.603  17.291  66.925  1.00  0.00    -0.213 C  
HETATM    2  C   UNL     1     -10.191  16.289  68.017  1.00  0.00    -0.256 C  
HETATM    3  C   UNL     1     -10.696  16.818  69.372  1.00  0.00    -0.300 C  
HETATM    4  C   UNL     1      -8.656  16.191  68.085  1.00  0.00    -0.177 C  
HETATM    5  N   UNL     1     -10.802  14.959  67.814  1.00  0.00    -0.279 NA 
HETATM    6  H   UNL     1     -11.812  15.009  67.942  1.00  0.00     0.000 HD 
ENDROOT
BRANCH   5   7
HETATM    7  C   UNL     1     -10.480  14.332  66.527  1.00  0.00    -0.287 C  
BRANCH   7   8
HETATM    8  C   UNL     1     -10.057  12.854  66.670  1.00  0.00    -0.245 C  
HETATM    9  H   UNL     1      -8.373  11.835  66.821  1.00  0.00     0.000 HD 
HETATM   10  O   UNL     1      -8.632  12.744  66.733  1.00  0.00    -0.174 OA 
BRANCH   8  11
HETATM   11  C   UNL     1     -10.707  12.275  67.940  1.00  0.00    -0.215 C  
BRANCH  11  12
HETATM   12  O   UNL     1      -9.730  11.583  68.719  1.00  0.00    -0.196 OA 
BRANCH  12  13
HETATM   13  C   UNL     1      -9.613  10.220  68.609  1.00  0.00    -0.168 A  
HETATM   14  C   UNL     1     -10.781   9.640  68.077  1.00  0.00    -0.284 A  
HETATM   15  C   UNL     1     -10.850   8.282  67.769  1.00  0.00    -0.061 A  
HETATM   16  C   UNL     1      -9.725   7.487  67.941  1.00  0.00    -0.170 A  
HETATM   17  C   UNL     1      -8.551   8.050  68.442  1.00  0.00    -0.127 A  
HETATM   18  C   UNL     1      -8.480   9.409  68.828  1.00  0.00    -0.122 A  
HETATM   19  C   UNL     1      -7.144   9.914  69.302  1.00  0.00    -0.069 C  
HETATM   20  C   UNL     1      -6.194   8.842  69.809  1.00  0.00    -0.035 C  
HETATM   21  C   UNL     1      -6.193   7.616  68.953  1.00  0.00    -0.035 C  
HETATM   22  N   UNL     1      -7.412   7.238  68.460  1.00  0.00    -0.103 N  
HETATM   23  O   UNL     1      -5.196   6.915  68.802  1.00  0.00    -0.015 OA 
HETATM   24  H   UNL     1      -7.496   6.296  68.077  1.00  0.00     0.000 HD 
ENDBRANCH  12  13
ENDBRANCH  11  12
ENDBRANCH   8  11
ENDBRANCH   7   8
ENDBRANCH   5   7
TORSDOF 5
ENDMDL
MODEL      312
REMARK 921   NORMALIZED FREE ENERGY PREDICTED BY IDOCK:   -2.59 KCAL/MOL
REMARK 922        TOTAL FREE ENERGY PREDICTED BY IDOCK:   -3.97 KCAL/MOL
REMARK 923 INTER-LIGAND FREE ENERGY PREDICTED BY IDOCK:   -3.25 KCAL/MOL
REMARK 924 INTRA-LIGAND FREE ENERGY PREDICTED BY IDOCK:   -0.71 KCAL/MOL
REMARK 927      BINDING AFFINITY PREDICTED BY RF-SCORE:    0.00 PKD
ROOT
HETATM    1  C   UNL     1      -9.813  12.380  68.241  1.00  0.00    -0.224 C  
HETATM    2  C   UNL     1      -8.832  12.865  67.159  1.00  0.00    -0.210 C  
HETATM    3  C   UNL     1      -7.585  13.436  67.859  1.00  0.00    -0.151 C  
HETATM    4  C   UNL     1      -9.478  13.996  66.337  1.00  0.00    -0.278 C  
HETATM    5  N   UNL     1      -8.376  11.765  66.285  1.00  0.00    -0.378 NA 
HETATM    6  H   UNL     1      -7.802  11.107  66.813  1.00  0.00     0.000 HD 
ENDROOT
BRANCH   5   7
HETATM    7  C   UNL     1      -9.454  11.056  65.587  1.00  0.00    -0.217 C  
BRANCH   7   8
HETATM    8  C   UNL     1      -8.934   9.918  64.682  1.00  0.00    -0.222 C  
HETATM    9  H   UNL     1      -7.292   9.506  63.666  1.00  0.00     0.000 HD 
HETATM   10  O   UNL     1      -7.611  10.207  64.222  1.00  0.00    -0.140 OA 
BRANCH   8  11
HETATM   11  C   UNL     1      -8.960   8.601  65.481  1.00  0.00    -0.158 C  
BRANCH  11  12
HETATM   12  O   UNL     1      -8.242   8.756  66.706  1.00  0.00    -0.106 OA 
BRANCH  12  13
HETATM   13  C   UNL     1      -7.731   7.650  67.339  1.00  0.00    -0.117 A  
HETATM   14  C   UNL     1      -6.429   7.353  66.892  1.00  0.00    -0.056 A  
HETATM   15  C   UNL     1      -5.667   6.341  67.476  1.00  0.00    -0.013 A  
HETATM   16  C   UNL     1      -6.181   5.641  68.558  1.00  0.00    -0.033 A  
HETATM   17  C   UNL     1      -7.459   5.940  69.031  1.00  0.00    -0.085 A  
HETATM   18  C   UNL     1      -8.277   6.912  68.410  1.00  0.00    -0.120 A  
HETATM   19  C   UNL     1      -9.614   7.186  69.045  1.00  0.00    -0.146 C  
HETATM   20  C   UNL     1     -10.151   6.066  69.919  1.00  0.00    -0.240 C  
HETATM   21  C   UNL     1      -9.100   5.451  70.786  1.00  0.00    -0.141 C  
HETATM   22  N   UNL     1      -7.868   5.304  70.209  1.00  0.00    -0.081 N  
HETATM   23  O   UNL     1      -9.344   4.988  71.897  1.00  0.00    -0.138 OA 
HETATM   24  H   UNL     1      -7.200   4.686  70.669  1.00  0.00     0.000 HD 
ENDBRANCH  12  13
ENDBRANCH  11  12
ENDBRANCH   8  11
ENDBRANCH   7   8
ENDBRANCH   5   7
TORSDOF 5
ENDMDL
MODEL      313
REMARK 921   NORMALIZED FREE ENERGY PREDICTED BY IDOCK:   -2.55 KCAL/MOL
REMARK 922        TOTAL FREE ENERGY PREDICTED BY IDOCK:   -3.92 KCAL/MOL
REMARK 923 INTER-LIGAND FREE ENERGY PREDICTED BY IDOCK:   -4.17 KCAL/MOL
REMARK 924 INTRA-LIGAND FREE ENERGY PREDICTED BY IDOCK:    0.24 KCAL/MOL
REMARK 927      BINDING AFFINITY PREDICTED BY RF-SCORE:    0.00 PKD
ROOT
HETATM    1  C   UNL     1     -12.317  14.239  72.973  1.00  0.00    -0.100 C  
HETATM    2  C   UNL     1     -12.955  15.395  72.182  1.00  0.00    -0.394 C  
HETATM    3  C   UNL     1     -14.028  16.052  73.070  1.00  0.00    -0.265 C  
HETATM    4  C   UNL     1     -13.649  14.845  70.922  1.00  0.00    -0.313 C  
HETATM    5  N   UNL     1     -11.974  16.443  71.835  1.00  0.00    -0.658 NA 
HETATM    6  H   UNL     1     -11.648  16.917  72.678  1.00  0.00     0.000 HD 
ENDROOT
BRANCH   5   7
HETATM    7  C   UNL     1     -10.834  15.971  71.042  1.00  0.00     0.108 C  
BRANCH   7   8
HETATM    8  C   UNL     1     -11.225  15.593  69.597  1.00  0.00    -0.310 C  
HETATM    9  H   UNL     1     -11.642  16.535  67.912  1.00  0.00     0.000 HD 
HETATM   10  O   UNL     1     -11.401  16.768  68.801  1.00  0.00    -0.221 OA 
BRANCH   8  11
HETATM   11  C   UNL     1     -10.124  14.693  69.007  1.00  0.00    -0.209 C  
BRANCH  11  12
HETATM   12  O   UNL     1     -10.480  14.282  67.686  1.00  0.00    -0.246 OA 
BRANCH  12  13
HETATM   13  C   UNL     1     -10.509  12.946  67.374  1.00  0.00    -0.233 A  
HETATM   14  C   UNL     1     -11.072  12.183  68.414  1.00  0.00    -0.289 A  
HETATM   15  C   UNL     1     -11.309  10.815  68.274  1.00  0.00    -0.376 A  
HETATM   16  C   UNL     1     -11.033  10.197  67.063  1.00  0.00    -0.162 A  
HETATM   17  C   UNL     1     -10.500  10.944  66.011  1.00  0.00    -0.225 A  
HETATM   18  C   UNL     1     -10.185  12.316  66.154  1.00  0.00    -0.263 A  
HETATM   19  C   UNL     1      -9.666  13.027  64.933  1.00  0.00     0.078 C  
HETATM   20  C   UNL     1      -9.051  12.126  63.877  1.00  0.00     0.664 C  
HETATM   21  C   UNL     1      -9.837  10.873  63.652  1.00  0.00    -0.351 C  
HETATM   22  N   UNL     1     -10.375  10.303  64.774  1.00  0.00    -0.210 N  
HETATM   23  O   UNL     1      -9.896  10.315  62.560  1.00  0.00    -0.193 OA 
HETATM   24  H   UNL     1     -10.710   9.342  64.702  1.00  0.00     0.000 HD 
ENDBRANCH  12  13
ENDBRANCH  11  12
ENDBRANCH   8  11
ENDBRANCH   7   8
ENDBRANCH   5   7
TORSDOF 5
ENDMDL
MODEL      314
REMARK 921   NORMALIZED FREE ENERGY PREDICTED BY IDOCK:   -2.51 KCAL/MOL
REMARK 922        TOTAL FREE ENERGY PREDICTED BY IDOCK:   -3.87 KCAL/MOL
REMARK 923 INTER-LIGAND FREE ENERGY PREDICTED BY IDOCK:   -3.52 KCAL/MOL
REMARK 924 INTRA-LIGAND FREE ENERGY PREDICTED BY IDOCK:   -0.35 KCAL/MOL
REMARK 927      BINDING AFFINITY PREDICTED BY RF-SCORE:    0.00 PKD
ROOT
HETATM    1  C   UNL     1      -8.233  14.992  67.378  1.00  0.00    -0.215 C  
HETATM    2  C   UNL     1      -9.740  14.750  67.176  1.00  0.00    -0.233 C  
HETATM    3  C   UNL     1     -10.226  15.667  66.039  1.00  0.00    -0.354 C  
HETATM    4  C   UNL     1     -10.507  15.128  68.457  1.00  0.00    -0.233 C  
HETATM    5  N   UNL     1     -10.032  13.360  66.770  1.00  0.00    -0.258 NA 
HETATM    6  H   UNL     1      -9.660  13.176  65.839  1.00  0.00     0.000 HD 
ENDROOT
BRANCH   5   7
HETATM    7  C   UNL     1      -9.567  12.339  67.716  1.00  0.00    -0.200 C  
BRANCH   7   8
HETATM    8  C   UNL     1      -8.883  11.143  67.019  1.00  0.00    -0.149 C  
HETATM    9  H   UNL     1      -7.271  10.830  65.923  1.00  0.00     0.000 HD 
HETATM   10  O   UNL     1      -7.691  11.567  66.352  1.00  0.00    -0.108 OA 
BRANCH   8  11
HETATM   11  C   UNL     1      -8.566  10.071  68.077  1.00  0.00    -0.121 C  
BRANCH  11  12
HETATM   12  O   UNL     1      -9.689   9.207  68.254  1.00  0.00    -0.149 OA 
BRANCH  12  13
HETATM   13  C   UNL     1      -9.524   7.998  68.884  1.00  0.00    -0.151 A  
HETATM   14  C   UNL     1     -10.083   8.006  70.176  1.00  0.00    -0.194 A  
HETATM   15  C   UNL     1     -10.135   6.853  70.959  1.00  0.00    -0.206 A  
HETATM   16  C   UNL     1      -9.674   5.653  70.435  1.00  0.00    -0.233 A  
HETATM   17  C   UNL     1      -9.142   5.621  69.145  1.00  0.00    -0.112 A  
HETATM   18  C   UNL     1      -9.013   6.791  68.362  1.00  0.00    -0.124 A  
HETATM   19  C   UNL     1      -8.476   6.621  66.966  1.00  0.00    -0.113 C  
HETATM   20  C   UNL     1      -7.659   5.361  66.741  1.00  0.00    -0.088 C  
HETATM   21  C   UNL     1      -8.261   4.155  67.390  1.00  0.00    -0.099 C  
HETATM   22  N   UNL     1      -8.826   4.364  68.618  1.00  0.00    -0.099 N  
HETATM   23  O   UNL     1      -8.149   3.026  66.921  1.00  0.00    -0.079 OA 
HETATM   24  H   UNL     1      -9.031   3.545  69.190  1.00  0.00     0.000 HD 
ENDBRANCH  12  13
ENDBRANCH  11  12
ENDBRANCH   8  11
ENDBRANCH   7   8
ENDBRANCH   5   7
TORSDOF 5
ENDMDL
MODEL      315
REMARK 921   NORMALIZED FREE ENERGY PREDICTED BY IDOCK:   -2.39 KCAL/MOL
REMARK 922        TOTAL FREE ENERGY PREDICTED BY IDOCK:   -3.72 KCAL/MOL
REMARK 923 INTER-LIGAND FREE ENERGY PREDICTED BY IDOCK:   -3.67 KCAL/MOL
REMARK 924 INTRA-LIGAND FREE ENERGY PREDICTED BY IDOCK:   -0.05 KCAL/MOL
REMARK 927      BINDING AFFINITY PREDICTED BY RF-SCORE:    0.00 PKD
ROOT
HETATM    1  C   UNL     1      -5.886  10.283  65.349  1.00  0.00    -0.110 C  
HETATM    2  C   UNL     1      -7.217   9.597  64.996  1.00  0.00    -0.116 C  
HETATM    3  C   UNL     1      -6.940   8.102  64.753  1.00  0.00    -0.074 C  
HETATM    4  C   UNL     1      -7.785  10.195  63.695  1.00  0.00    -0.142 C  
HETATM    5  N   UNL     1      -8.199   9.685  66.096  1.00  0.00    -0.115 NA 
HETATM    6  H   UNL     1      -7.884   9.138  66.898  1.00  0.00     0.000 HD 
ENDROOT
BRANCH   5   7
HETATM    7  C   UNL     1      -8.529  11.053  66.509  1.00  0.00    -0.161 C  
BRANCH   7   8
HETATM    8  C   UNL     1     -10.047  11.336  66.491  1.00  0.00    -0.217 C  
HETATM    9  H   UNL     1     -11.610  10.800  65.410  1.00  0.00     0.000 HD 
HETATM   10  O   UNL     1     -10.676  10.626  65.420  1.00  0.00    -0.171 OA 
BRANCH   8  11
HETATM   11  C   UNL     1     -10.643  10.918  67.848  1.00  0.00    -0.207 C  
BRANCH  11  12
HETATM   12  O   UNL     1      -9.757  10.022  68.520  1.00  0.00    -0.150 OA 
BRANCH  12  13
HETATM   13  C   UNL     1     -10.196   8.771  68.875  1.00  0.00    -0.207 A  
HETATM   14  C   UNL     1     -10.885   8.793  70.103  1.00  0.00    -0.241 A  
HETATM   15  C   UNL     1     -11.519   7.657  70.606  1.00  0.00    -0.276 A  
HETATM   16  C   UNL     1     -11.518   6.488  69.859  1.00  0.00    -0.467 A  
HETATM   17  C   UNL     1     -10.862   6.456  68.628  1.00  0.00    -0.314 A  
HETATM   18  C   UNL     1     -10.152   7.574  68.131  1.00  0.00    -0.215 A  
HETATM   19  C   UNL     1      -9.532   7.436  66.765  1.00  0.00    -0.226 C  
HETATM   20  C   UNL     1      -9.279   6.007  66.316  1.00  0.00    -0.168 C  
HETATM   21  C   UNL     1     -10.409   5.085  66.646  1.00  0.00    -0.270 C  
HETATM   22  N   UNL     1     -11.013   5.299  67.855  1.00  0.00     0.127 N  
HETATM   23  O   UNL     1     -10.701   4.119  65.947  1.00  0.00     0.046 OA 
HETATM   24  H   UNL     1     -11.617   4.562  68.219  1.00  0.00     0.000 HD 
ENDBRANCH  12  13
ENDBRANCH  11  12
ENDBRANCH   8  11
ENDBRANCH   7   8
ENDBRANCH   5   7
TORSDOF 5
ENDMDL
MODEL      316
REMARK 921   NORMALIZED FREE ENERGY PREDICTED BY IDOCK:   -2.37 KCAL/MOL
REMARK 922        TOTAL FREE ENERGY PREDICTED BY IDOCK:   -3.70 KCAL/MOL
REMARK 923 INTER-LIGAND FREE ENERGY PREDICTED BY IDOCK:   -4.85 KCAL/MOL
REMARK 924 INTRA-LIGAND FREE ENERGY PREDICTED BY IDOCK:    1.15 KCAL/MOL
REMARK 927      BINDING AFFINITY PREDICTED BY RF-SCORE:    0.00 PKD
ROOT
HETATM    1  C   UNL     1      -9.771  11.305  62.963  1.00  0.00    -0.389 C  
HETATM    2  C   UNL     1     -10.965  11.966  63.675  1.00  0.00    -0.440 C  
HETATM    3  C   UNL     1     -12.181  11.908  62.732  1.00  0.00     0.520 C  
HETATM    4  C   UNL     1     -10.650  13.447  63.958  1.00  0.00    -0.122 C  
HETATM    5  N   UNL     1     -11.340  11.255  64.914  1.00  0.00    -0.045 NA 
HETATM    6  H   UNL     1     -11.709  10.330  64.695  1.00  0.00     0.000 HD 
ENDROOT
BRANCH   5   7
HETATM    7  C   UNL     1     -10.264  11.154  65.907  1.00  0.00    -0.251 C  
BRANCH   7   8
HETATM    8  C   UNL     1     -10.655  10.297  67.130  1.00  0.00    -0.260 C  
HETATM    9  H   UNL     1      -9.759   9.538  68.717  1.00  0.00     0.000 HD 
HETATM   10  O   UNL     1      -9.517  10.065  67.965  1.00  0.00    -0.137 OA 
BRANCH   8  11
HETATM   11  C   UNL     1     -11.765  11.027  67.909  1.00  0.00    -0.135 C  
BRANCH  11  12
HETATM   12  O   UNL     1     -12.078  12.267  67.273  1.00  0.00    -0.548 OA 
BRANCH  12  13
HETATM   13  C   UNL     1     -11.690  13.447  67.856  1.00  0.00    -0.361 A  
HETATM   14  C   UNL     1     -11.562  13.319  69.252  1.00  0.00    -0.370 A  
HETATM   15  C   UNL     1     -11.068  14.358  70.041  1.00  0.00    -0.125 A  
HETATM   16  C   UNL     1     -10.643  15.530  69.434  1.00  0.00    -0.250 A  
HETATM   17  C   UNL     1     -10.737  15.665  68.048  1.00  0.00    -0.287 A  
HETATM   18  C   UNL     1     -11.300  14.653  67.237  1.00  0.00    -0.364 A  
HETATM   19  C   UNL     1     -11.297  14.890  65.750  1.00  0.00    -0.314 C  
HETATM   20  C   UNL     1     -11.192  16.347  65.332  1.00  0.00     0.080 C  
HETATM   21  C   UNL     1     -10.201  17.115  66.146  1.00  0.00    -0.334 C  
HETATM   22  N   UNL     1     -10.163  16.807  67.478  1.00  0.00    -0.281 N  
HETATM   23  O   UNL     1      -9.549  18.050  65.687  1.00  0.00    -0.437 OA 
HETATM   24  H   UNL     1      -9.683  17.457  68.101  1.00  0.00     0.000 HD 
ENDBRANCH  12  13
ENDBRANCH  11  12
ENDBRANCH   8  11
ENDBRANCH   7   8
ENDBRANCH   5   7
TORSDOF 5
ENDMDL
MODEL      317
REMARK 921   NORMALIZED FREE ENERGY PREDICTED BY IDOCK:   -2.30 KCAL/MOL
REMARK 922        TOTAL FREE ENERGY PREDICTED BY IDOCK:   -3.60 KCAL/MOL
REMARK 923 INTER-LIGAND FREE ENERGY PREDICTED BY IDOCK:   -3.48 KCAL/MOL
REMARK 924 INTRA-LIGAND FREE ENERGY PREDICTED BY IDOCK:   -0.12 KCAL/MOL
REMARK 927      BINDING AFFINITY PREDICTED BY RF-SCORE:    0.00 PKD
ROOT
HETATM    1  C   UNL     1      -8.113   8.657  64.697  1.00  0.00    -0.156 C  
HETATM    2  C   UNL     1      -8.725   8.501  66.101  1.00  0.00    -0.152 C  
HETATM    3  C   UNL     1      -9.577   7.219  66.116  1.00  0.00    -0.019 C  
HETATM    4  C   UNL     1      -9.650   9.695  66.403  1.00  0.00    -0.268 C  
HETATM    5  N   UNL     1      -7.692   8.350  67.146  1.00  0.00    -0.096 NA 
HETATM    6  H   UNL     1      -7.197   7.466  67.031  1.00  0.00     0.000 HD 
ENDROOT
BRANCH   5   7
HETATM    7  C   UNL     1      -6.739   9.463  67.225  1.00  0.00    -0.075 C  
BRANCH   7   8
HETATM    8  C   UNL     1      -7.275  10.655  68.046  1.00  0.00    -0.087 C  
HETATM    9  H   UNL     1      -7.031  11.393  69.862  1.00  0.00     0.000 HD 
HETATM   10  O   UNL     1      -6.701  10.660  69.357  1.00  0.00    -0.061 OA 
BRANCH   8  11
HETATM   11  C   UNL     1      -6.942  11.959  67.299  1.00  0.00    -0.145 C  
BRANCH  11  12
HETATM   12  O   UNL     1      -8.145  12.625  66.912  1.00  0.00    -0.123 OA 
BRANCH  12  13
HETATM   13  C   UNL     1      -8.539  13.759  67.578  1.00  0.00    -0.193 A  
HETATM   14  C   UNL     1      -7.783  14.880  67.185  1.00  0.00    -0.177 A  
HETATM   15  C   UNL     1      -8.083  16.163  67.645  1.00  0.00    -0.163 A  
HETATM   16  C   UNL     1      -9.183  16.351  68.469  1.00  0.00    -0.226 A  
HETATM   17  C   UNL     1      -9.959  15.255  68.848  1.00  0.00    -0.225 A  
HETATM   18  C   UNL     1      -9.632  13.937  68.452  1.00  0.00    -0.215 A  
HETATM   19  C   UNL     1     -10.576  12.843  68.877  1.00  0.00    -0.154 C  
HETATM   20  C   UNL     1     -11.441  13.173  70.081  1.00  0.00    -0.020 C  
HETATM   21  C   UNL     1     -11.986  14.565  70.041  1.00  0.00    -0.330 C  
HETATM   22  N   UNL     1     -11.133  15.521  69.560  1.00  0.00    -0.263 N  
HETATM   23  O   UNL     1     -13.075  14.864  70.523  1.00  0.00    -0.337 OA 
HETATM   24  H   UNL     1     -11.371  16.498  69.733  1.00  0.00     0.000 HD 
ENDBRANCH  12  13
ENDBRANCH  11  12
ENDBRANCH   8  11
ENDBRANCH   7   8
ENDBRANCH   5   7
TORSDOF 5
ENDMDL
MODEL      318
REMARK 921   NORMALIZED FREE ENERGY PREDICTED BY IDOCK:   -2.30 KCAL/MOL
REMARK 922        TOTAL FREE ENERGY PREDICTED BY IDOCK:   -3.60 KCAL/MOL
REMARK 923 INTER-LIGAND FREE ENERGY PREDICTED BY IDOCK:   -3.20 KCAL/MOL
REMARK 924 INTRA-LIGAND FREE ENERGY PREDICTED BY IDOCK:   -0.40 KCAL/MOL
REMARK 927      BINDING AFFINITY PREDICTED BY RF-SCORE:    0.00 PKD
ROOT
HETATM    1  C   UNL     1      -8.543   8.663  65.048  1.00  0.00    -0.185 C  
HETATM    2  C   UNL     1      -8.008   9.986  64.471  1.00  0.00    -0.148 C  
HETATM    3  C   UNL     1      -8.203   9.959  62.944  1.00  0.00    -0.152 C  
HETATM    4  C   UNL     1      -6.500  10.110  64.759  1.00  0.00    -0.128 C  
HETATM    5  N   UNL     1      -8.746  11.158  64.984  1.00  0.00    -0.384 NA 
HETATM    6  H   UNL     1      -9.707  11.150  64.642  1.00  0.00     0.000 HD 
ENDROOT
BRANCH   5   7
HETATM    7  C   UNL     1      -8.726  11.299  66.444  1.00  0.00    -0.180 C  
BRANCH   7   8
HETATM    8  C   UNL     1     -10.136  11.460  67.051  1.00  0.00    -0.208 C  
HETATM    9  H   UNL     1     -12.000  11.501  66.399  1.00  0.00     0.000 HD 
HETATM   10  O   UNL     1     -11.132  11.402  66.025  1.00  0.00    -0.262 OA 
BRANCH   8  11
HETATM   11  C   UNL     1     -10.357  10.346  68.090  1.00  0.00    -0.172 C  
BRANCH  11  12
HETATM   12  O   UNL     1      -9.646   9.168  67.707  1.00  0.00    -0.142 OA 
BRANCH  12  13
HETATM   13  C   UNL     1      -8.973   8.440  68.657  1.00  0.00    -0.140 A  
HETATM   14  C   UNL     1      -8.761   9.190  69.830  1.00  0.00    -0.170 A  
HETATM   15  C   UNL     1      -8.198   8.619  70.972  1.00  0.00    -0.179 A  
HETATM   16  C   UNL     1      -7.885   7.268  70.974  1.00  0.00    -0.097 A  
HETATM   17  C   UNL     1      -8.112   6.504  69.828  1.00  0.00    -0.125 A  
HETATM   18  C   UNL     1      -8.615   7.076  68.637  1.00  0.00    -0.120 A  
HETATM   19  C   UNL     1      -8.871   6.140  67.485  1.00  0.00    -0.106 C  
HETATM   20  C   UNL     1      -8.093   4.836  67.533  1.00  0.00    -0.101 C  
HETATM   21  C   UNL     1      -8.049   4.235  68.901  1.00  0.00    -0.072 C  
HETATM   22  N   UNL     1      -7.912   5.123  69.933  1.00  0.00    -0.077 N  
HETATM   23  O   UNL     1      -8.010   3.023  69.091  1.00  0.00    -0.049 OA 
HETATM   24  H   UNL     1      -7.643   4.751  70.845  1.00  0.00     0.000 HD 
ENDBRANCH  12  13
ENDBRANCH  11  12
ENDBRANCH   8  11
ENDBRANCH   7   8
ENDBRANCH   5   7
TORSDOF 5
ENDMDL
MODEL      319
REMARK 921   NORMALIZED FREE ENERGY PREDICTED BY IDOCK:   -2.29 KCAL/MOL
REMARK 922        TOTAL FREE ENERGY PREDICTED BY IDOCK:   -3.59 KCAL/MOL
REMARK 923 INTER-LIGAND FREE ENERGY PREDICTED BY IDOCK:   -3.12 KCAL/MOL
REMARK 924 INTRA-LIGAND FREE ENERGY PREDICTED BY IDOCK:   -0.47 KCAL/MOL
REMARK 927      BINDING AFFINITY PREDICTED BY RF-SCORE:    0.00 PKD
ROOT
HETATM    1  C   UNL     1      -7.048  10.420  67.370  1.00  0.00    -0.087 C  
HETATM    2  C   UNL     1      -7.108  10.950  68.814  1.00  0.00    -0.083 C  
HETATM    3  C   UNL     1      -6.571  12.393  68.820  1.00  0.00    -0.088 C  
HETATM    4  C   UNL     1      -6.199  10.098  69.721  1.00  0.00    -0.058 C  
HETATM    5  N   UNL     1      -8.488  10.995  69.336  1.00  0.00    -0.379 NA 
HETATM    6  H   UNL     1      -9.036  11.692  68.831  1.00  0.00     0.000 HD 
ENDROOT
BRANCH   5   7
HETATM    7  C   UNL     1      -9.182   9.702  69.335  1.00  0.00    -0.189 C  
BRANCH   7   8
HETATM    8  C   UNL     1      -9.455   9.167  70.757  1.00  0.00    -0.272 C  
HETATM    9  H   UNL     1     -10.952   8.317  71.725  1.00  0.00     0.000 HD 
HETATM   10  O   UNL     1     -10.785   8.647  70.850  1.00  0.00    -0.204 OA 
BRANCH   8  11
HETATM   11  C   UNL     1      -8.418   8.077  71.082  1.00  0.00    -0.123 C  
BRANCH  11  12
HETATM   12  O   UNL     1      -8.950   6.786  70.782  1.00  0.00    -0.149 OA 
BRANCH  12  13
HETATM   13  C   UNL     1      -8.382   6.032  69.786  1.00  0.00    -0.126 A  
HETATM   14  C   UNL     1      -7.188   5.421  70.214  1.00  0.00    -0.066 A  
HETATM   15  C   UNL     1      -6.497   4.516  69.408  1.00  0.00    -0.036 A  
HETATM   16  C   UNL     1      -7.023   4.166  68.173  1.00  0.00    -0.051 A  
HETATM   17  C   UNL     1      -8.220   4.742  67.743  1.00  0.00    -0.100 A  
HETATM   18  C   UNL     1      -8.899   5.714  68.512  1.00  0.00    -0.108 A  
HETATM   19  C   UNL     1     -10.209   6.221  67.969  1.00  0.00    -0.205 C  
HETATM   20  C   UNL     1     -10.391   6.052  66.471  1.00  0.00    -0.209 C  
HETATM   21  C   UNL     1      -9.917   4.723  65.974  1.00  0.00    -0.237 C  
HETATM   22  N   UNL     1      -8.775   4.247  66.557  1.00  0.00    -0.112 N  
HETATM   23  O   UNL     1     -10.435   4.149  65.020  1.00  0.00    -0.240 OA 
HETATM   24  H   UNL     1      -8.293   3.476  66.094  1.00  0.00     0.000 HD 
ENDBRANCH  12  13
ENDBRANCH  11  12
ENDBRANCH   8  11
ENDBRANCH   7   8
ENDBRANCH   5   7
TORSDOF 5
ENDMDL
MODEL      320
REMARK 921   NORMALIZED FREE ENERGY PREDICTED BY IDOCK:   -2.05 KCAL/MOL
REMARK 922        TOTAL FREE ENERGY PREDICTED BY IDOCK:   -3.27 KCAL/MOL
REMARK 923 INTER-LIGAND FREE ENERGY PREDICTED BY IDOCK:   -2.74 KCAL/MOL
REMARK 924 INTRA-LIGAND FREE ENERGY PREDICTED BY IDOCK:   -0.54 KCAL/MOL
REMARK 927      BINDING AFFINITY PREDICTED BY RF-SCORE:    0.00 PKD
ROOT
HETATM    1  C   UNL     1      -6.789  11.151  69.655  1.00  0.00    -0.117 C  
HETATM    2  C   UNL     1      -7.345  11.242  68.222  1.00  0.00    -0.095 C  
HETATM    3  C   UNL     1      -6.156  11.236  67.243  1.00  0.00    -0.076 C  
HETATM    4  C   UNL     1      -8.107  12.568  68.040  1.00  0.00    -0.164 C  
HETATM    5  N   UNL     1      -8.198  10.086  67.879  1.00  0.00    -0.113 NA 
HETATM    6  H   UNL     1      -7.640   9.233  67.837  1.00  0.00     0.000 HD 
ENDROOT
BRANCH   5   7
HETATM    7  C   UNL     1      -9.352   9.898  68.765  1.00  0.00    -0.157 C  
BRANCH   7   8
HETATM    8  C   UNL     1     -10.083   8.560  68.520  1.00  0.00    -0.194 C  
HETATM    9  H   UNL     1     -11.348   7.819  67.197  1.00  0.00     0.000 HD 
HETATM   10  O   UNL     1     -10.898   8.642  67.347  1.00  0.00    -0.211 OA 
BRANCH   8  11
HETATM   11  C   UNL     1      -9.034   7.442  68.379  1.00  0.00    -0.134 C  
BRANCH  11  12
HETATM   12  O   UNL     1      -9.503   6.438  67.478  1.00  0.00    -0.118 OA 
BRANCH  12  13
HETATM   13  C   UNL     1      -8.780   6.147  66.348  1.00  0.00    -0.138 A  
HETATM   14  C   UNL     1      -7.552   6.835  66.327  1.00  0.00    -0.086 A  
HETATM   15  C   UNL     1      -6.601   6.607  65.332  1.00  0.00    -0.050 A  
HETATM   16  C   UNL     1      -6.846   5.642  64.366  1.00  0.00    -0.050 A  
HETATM   17  C   UNL     1      -8.047   4.932  64.386  1.00  0.00    -0.114 A  
HETATM   18  C   UNL     1      -9.055   5.197  65.343  1.00  0.00    -0.145 A  
HETATM   19  C   UNL     1     -10.283   4.327  65.298  1.00  0.00    -0.234 C  
HETATM   20  C   UNL     1     -10.543   3.652  63.963  1.00  0.00    -0.272 C  
HETATM   21  C   UNL     1      -9.300   3.106  63.335  1.00  0.00    -0.095 C  
HETATM   22  N   UNL     1      -8.179   3.876  63.477  1.00  0.00    -0.089 N  
HETATM   23  O   UNL     1      -9.301   2.101  62.631  1.00  0.00    -0.090 OA 
HETATM   24  H   UNL     1      -7.381   3.667  62.876  1.00  0.00     0.000 HD 
ENDBRANCH  12  13
ENDBRANCH  11  12
ENDBRANCH   8  11
ENDBRANCH   7   8
ENDBRANCH   5   7
TORSDOF 5
ENDMDL
MODEL      321
REMARK 921   NORMALIZED FREE ENERGY PREDICTED BY IDOCK:   -2.01 KCAL/MOL
REMARK 922        TOTAL FREE ENERGY PREDICTED BY IDOCK:   -3.23 KCAL/MOL
REMARK 923 INTER-LIGAND FREE ENERGY PREDICTED BY IDOCK:   -2.52 KCAL/MOL
REMARK 924 INTRA-LIGAND FREE ENERGY PREDICTED BY IDOCK:   -0.71 KCAL/MOL
REMARK 927      BINDING AFFINITY PREDICTED BY RF-SCORE:    0.00 PKD
ROOT
HETATM    1  C   UNL     1      -6.556  10.124  66.648  1.00  0.00    -0.075 C  
HETATM    2  C   UNL     1      -6.739  10.936  67.943  1.00  0.00    -0.064 C  
HETATM    3  C   UNL     1      -6.331  12.393  67.661  1.00  0.00    -0.131 C  
HETATM    4  C   UNL     1      -5.810  10.384  69.041  1.00  0.00    -0.040 C  
HETATM    5  N   UNL     1      -8.144  10.956  68.396  1.00  0.00    -0.123 NA 
HETATM    6  H   UNL     1      -8.722  11.476  67.736  1.00  0.00     0.000 HD 
ENDROOT
BRANCH   5   7
HETATM    7  C   UNL     1      -8.723   9.631  68.646  1.00  0.00    -0.124 C  
BRANCH   7   8
HETATM    8  C   UNL     1      -9.948   9.334  67.755  1.00  0.00    -0.190 C  
HETATM    9  H   UNL     1     -11.912   9.494  67.889  1.00  0.00     0.000 HD 
HETATM   10  O   UNL     1     -11.158   9.677  68.437  1.00  0.00    -0.156 OA 
BRANCH   8  11
HETATM   11  C   UNL     1      -9.814  10.134  66.446  1.00  0.00    -0.222 C  
BRANCH  11  12
HETATM   12  O   UNL     1     -10.776  11.190  66.414  1.00  0.00    -0.261 OA 
BRANCH  12  13
HETATM   13  C   UNL     1     -10.362  12.480  66.197  1.00  0.00    -0.253 A  
HETATM   14  C   UNL     1     -10.041  12.702  64.844  1.00  0.00    -0.244 A  
HETATM   15  C   UNL     1      -9.706  13.970  64.369  1.00  0.00     1.229 A  
HETATM   16  C   UNL     1      -9.739  15.052  65.237  1.00  0.00    -0.144 A  
HETATM   17  C   UNL     1     -10.081  14.856  66.575  1.00  0.00    -0.271 A  
HETATM   18  C   UNL     1     -10.354  13.569  67.095  1.00  0.00    -0.250 A  
HETATM   19  C   UNL     1     -10.765  13.490  68.541  1.00  0.00    -0.270 C  
HETATM   20  C   UNL     1     -10.341  14.672  69.395  1.00  0.00    -0.136 C  
HETATM   21  C   UNL     1     -10.529  15.985  68.704  1.00  0.00    -0.251 C  
HETATM   22  N   UNL     1     -10.237  15.998  67.368  1.00  0.00    -0.267 N  
HETATM   23  O   UNL     1     -10.804  17.018  69.309  1.00  0.00    -0.279 OA 
HETATM   24  H   UNL     1     -10.124  16.906  66.917  1.00  0.00     0.000 HD 
ENDBRANCH  12  13
ENDBRANCH  11  12
ENDBRANCH   8  11
ENDBRANCH   7   8
ENDBRANCH   5   7
TORSDOF 5
ENDMDL
MODEL      322
REMARK 921   NORMALIZED FREE ENERGY PREDICTED BY IDOCK:   -1.95 KCAL/MOL
REMARK 922        TOTAL FREE ENERGY PREDICTED BY IDOCK:   -3.15 KCAL/MOL
REMARK 923 INTER-LIGAND FREE ENERGY PREDICTED BY IDOCK:   -3.19 KCAL/MOL
REMARK 924 INTRA-LIGAND FREE ENERGY PREDICTED BY IDOCK:    0.04 KCAL/MOL
REMARK 927      BINDING AFFINITY PREDICTED BY RF-SCORE:    0.00 PKD
ROOT
HETATM    1  C   UNL     1      -7.802   7.381  71.491  1.00  0.00    -0.087 C  
HETATM    2  C   UNL     1      -8.662   6.231  70.937  1.00  0.00    -0.136 C  
HETATM    3  C   UNL     1      -9.822   5.982  71.918  1.00  0.00    -0.183 C  
HETATM    4  C   UNL     1      -7.821   4.943  70.854  1.00  0.00    -0.083 C  
HETATM    5  N   UNL     1      -9.261   6.561  69.628  1.00  0.00    -0.144 NA 
HETATM    6  H   UNL     1      -9.946   7.309  69.730  1.00  0.00     0.000 HD 
ENDROOT
BRANCH   5   7
HETATM    7  C   UNL     1      -8.289   6.899  68.582  1.00  0.00    -0.121 C  
BRANCH   7   8
HETATM    8  C   UNL     1      -8.596   8.244  67.890  1.00  0.00    -0.132 C  
HETATM    9  H   UNL     1      -7.574   9.724  67.076  1.00  0.00     0.000 HD 
HETATM   10  O   UNL     1      -7.384   8.897  67.502  1.00  0.00    -0.080 OA 
BRANCH   8  11
HETATM   11  C   UNL     1      -9.490   7.977  66.665  1.00  0.00    -0.212 C  
BRANCH  11  12
HETATM   12  O   UNL     1     -10.592   8.886  66.652  1.00  0.00    -0.216 OA 
BRANCH  12  13
HETATM   13  C   UNL     1     -10.607   9.948  67.521  1.00  0.00    -0.275 A  
HETATM   14  C   UNL     1     -10.991   9.554  68.817  1.00  0.00    -0.116 A  
HETATM   15  C   UNL     1     -10.967  10.444  69.890  1.00  0.00    -0.364 A  
HETATM   16  C   UNL     1     -10.505  11.737  69.692  1.00  0.00     0.411 A  
HETATM   17  C   UNL     1     -10.095  12.138  68.420  1.00  0.00    -0.209 A  
HETATM   18  C   UNL     1     -10.178  11.275  67.303  1.00  0.00    -0.226 A  
HETATM   19  C   UNL     1      -9.655  11.802  65.993  1.00  0.00    -0.248 C  
HETATM   20  C   UNL     1      -9.596  13.316  65.887  1.00  0.00    -0.122 C  
HETATM   21  C   UNL     1      -9.088  13.966  67.135  1.00  0.00    -0.239 C  
HETATM   22  N   UNL     1      -9.507  13.403  68.309  1.00  0.00    -0.214 N  
HETATM   23  O   UNL     1      -8.442  15.010  67.121  1.00  0.00    -0.189 OA 
HETATM   24  H   UNL     1      -9.383  13.944  69.164  1.00  0.00     0.000 HD 
ENDBRANCH  12  13
ENDBRANCH  11  12
ENDBRANCH   8  11
ENDBRANCH   7   8
ENDBRANCH   5   7
TORSDOF 5
ENDMDL
MODEL      323
REMARK 921   NORMALIZED FREE ENERGY PREDICTED BY IDOCK:   -1.30 KCAL/MOL
REMARK 922        TOTAL FREE ENERGY PREDICTED BY IDOCK:   -2.30 KCAL/MOL
REMARK 923 INTER-LIGAND FREE ENERGY PREDICTED BY IDOCK:   -2.39 KCAL/MOL
REMARK 924 INTRA-LIGAND FREE ENERGY PREDICTED BY IDOCK:    0.09 KCAL/MOL
REMARK 927      BINDING AFFINITY PREDICTED BY RF-SCORE:    0.00 PKD
ROOT
HETATM    1  C   UNL     1     -11.751  16.931  73.216  1.00  0.00     0.134 C  
HETATM    2  C   UNL     1     -11.927  16.213  71.866  1.00  0.00    -0.507 C  
HETATM    3  C   UNL     1     -11.140  16.995  70.798  1.00  0.00     0.693 C  
HETATM    4  C   UNL     1     -13.413  16.216  71.462  1.00  0.00     0.813 C  
HETATM    5  N   UNL     1     -11.384  14.840  71.890  1.00  0.00    -0.418 NA 
HETATM    6  H   UNL     1     -10.369  14.861  71.989  1.00  0.00     0.000 HD 
ENDROOT
BRANCH   5   7
HETATM    7  C   UNL     1     -11.978  13.968  72.909  1.00  0.00     0.802 C  
BRANCH   7   8
HETATM    8  C   UNL     1     -13.100  13.068  72.349  1.00  0.00    -0.275 C  
HETATM    9  H   UNL     1     -15.070  12.974  72.445  1.00  0.00     0.000 HD 
HETATM   10  O   UNL     1     -14.380  13.529  72.791  1.00  0.00    -0.640 OA 
BRANCH   8  11
HETATM   11  C   UNL     1     -13.018  13.076  70.811  1.00  0.00     0.033 C  
BRANCH  11  12
HETATM   12  O   UNL     1     -11.694  12.746  70.388  1.00  0.00    -0.210 OA 
BRANCH  12  13
HETATM   13  C   UNL     1     -11.323  12.962  69.084  1.00  0.00    -0.273 A  
HETATM   14  C   UNL     1     -11.972  14.087  68.540  1.00  0.00    -0.383 A  
HETATM   15  C   UNL     1     -11.665  14.566  67.267  1.00  0.00    -0.429 A  
HETATM   16  C   UNL     1     -10.659  13.953  66.534  1.00  0.00    -0.279 A  
HETATM   17  C   UNL     1      -9.986  12.853  67.068  1.00  0.00    -0.244 A  
HETATM   18  C   UNL     1     -10.330  12.307  68.327  1.00  0.00    -0.227 A  
HETATM   19  C   UNL     1      -9.497  11.155  68.821  1.00  0.00    -0.173 C  
HETATM   20  C   UNL     1      -8.761  10.383  67.740  1.00  0.00    -0.122 C  
HETATM   21  C   UNL     1      -8.146  11.274  66.707  1.00  0.00    -0.159 C  
HETATM   22  N   UNL     1      -8.889  12.365  66.349  1.00  0.00    -0.404 N  
HETATM   23  O   UNL     1      -7.106  10.988  66.120  1.00  0.00    -0.124 OA 
HETATM   24  H   UNL     1      -8.625  12.859  65.496  1.00  0.00     0.000 HD 
ENDBRANCH  12  13
ENDBRANCH  11  12
ENDBRANCH   8  11
ENDBRANCH   7   8
ENDBRANCH   5   7
TORSDOF 5
ENDMDL
MODEL      324
REMARK 921   NORMALIZED FREE ENERGY PREDICTED BY IDOCK:    3.27 KCAL/MOL
REMARK 922        TOTAL FREE ENERGY PREDICTED BY IDOCK:    3.59 KCAL/MOL
REMARK 923 INTER-LIGAND FREE ENERGY PREDICTED BY IDOCK:    3.95 KCAL/MOL
REMARK 924 INTRA-LIGAND FREE ENERGY PREDICTED BY IDOCK:   -0.36 KCAL/MOL
REMARK 927      BINDING AFFINITY PREDICTED BY RF-SCORE:    0.00 PKD
ROOT
HETATM    1  C   UNL     1      -6.663  21.310  71.196  1.00  0.00     3.465 C  
HETATM    2  C   UNL     1      -6.588  19.773  71.162  1.00  0.00     0.316 C  
HETATM    3  C   UNL     1      -7.509  19.221  72.266  1.00  0.00     4.096 C  
HETATM    4  C   UNL     1      -5.150  19.313  71.465  1.00  0.00    -0.338 C  
HETATM    5  N   UNL     1      -7.066  19.219  69.879  1.00  0.00     0.037 NA 
HETATM    6  H   UNL     1      -8.066  19.386  69.770  1.00  0.00     0.000 HD 
ENDROOT
BRANCH   5   7
HETATM    7  C   UNL     1      -6.337  19.701  68.700  1.00  0.00    -0.269 C  
BRANCH   7   8
HETATM    8  C   UNL     1      -7.224  19.780  67.439  1.00  0.00    -0.226 C  
HETATM    9  H   UNL     1      -7.086  20.516  65.611  1.00  0.00     0.000 HD 
HETATM   10  O   UNL     1      -6.540  20.468  66.387  1.00  0.00    -0.227 OA 
BRANCH   8  11
HETATM   11  C   UNL     1      -7.594  18.349  67.005  1.00  0.00    -0.220 C  
BRANCH  11  12
HETATM   12  O   UNL     1      -7.854  17.539  68.152  1.00  0.00    -0.226 OA 
BRANCH  12  13
HETATM   13  C   UNL     1      -8.924  16.680  68.149  1.00  0.00    -0.210 A  
HETATM   14  C   UNL     1     -10.136  17.359  68.378  1.00  0.00    -0.347 A  
HETATM   15  C   UNL     1     -11.366  16.707  68.306  1.00  0.00    -0.121 A  
HETATM   16  C   UNL     1     -11.406  15.367  67.949  1.00  0.00    -0.328 A  
HETATM   17  C   UNL     1     -10.216  14.684  67.693  1.00  0.00    -0.232 A  
HETATM   18  C   UNL     1      -8.954  15.306  67.830  1.00  0.00    -0.177 A  
HETATM   19  C   UNL     1      -7.745  14.483  67.472  1.00  0.00    -0.208 C  
HETATM   20  C   UNL     1      -7.955  12.979  67.521  1.00  0.00    -0.177 C  
HETATM   21  C   UNL     1      -9.264  12.556  66.935  1.00  0.00    -0.211 C  
HETATM   22  N   UNL     1     -10.324  13.378  67.200  1.00  0.00    -0.245 N  
HETATM   23  O   UNL     1      -9.416  11.480  66.362  1.00  0.00    -0.200 OA 
HETATM   24  H   UNL     1     -11.261  13.014  67.027  1.00  0.00     0.000 HD 
ENDBRANCH  12  13
ENDBRANCH  11  12
ENDBRANCH   8  11
ENDBRANCH   7   8
ENDBRANCH   5   7
TORSDOF 5
ENDMDL
MODEL      325
REMARK 921   NORMALIZED FREE ENERGY PREDICTED BY IDOCK:    3.32 KCAL/MOL
REMARK 922        TOTAL FREE ENERGY PREDICTED BY IDOCK:    3.67 KCAL/MOL
REMARK 923 INTER-LIGAND FREE ENERGY PREDICTED BY IDOCK:    4.00 KCAL/MOL
REMARK 924 INTRA-LIGAND FREE ENERGY PREDICTED BY IDOCK:   -0.34 KCAL/MOL
REMARK 927      BINDING AFFINITY PREDICTED BY RF-SCORE:    0.00 PKD
ROOT
HETATM    1  C   UNL     1      -6.431  16.321  69.610  1.00  0.00    -0.190 C  
HETATM    2  C   UNL     1      -6.927  15.005  70.235  1.00  0.00     0.088 C  
HETATM    3  C   UNL     1      -8.089  15.332  71.190  1.00  0.00     3.008 C  
HETATM    4  C   UNL     1      -5.797  14.360  71.060  1.00  0.00    -0.186 C  
HETATM    5  N   UNL     1      -7.447  14.066  69.220  1.00  0.00    -0.320 NA 
HETATM    6  H   UNL     1      -8.300  14.435  68.799  1.00  0.00     0.000 HD 
ENDROOT
BRANCH   5   7
HETATM    7  C   UNL     1      -6.481  13.699  68.179  1.00  0.00    -0.125 C  
BRANCH   7   8
HETATM    8  C   UNL     1      -7.056  12.697  67.155  1.00  0.00    -0.028 C  
HETATM    9  H   UNL     1      -6.767  10.810  66.651  1.00  0.00     0.000 HD 
HETATM   10  O   UNL     1      -6.413  11.426  67.281  1.00  0.00    -0.077 OA 
BRANCH   8  11
HETATM   11  C   UNL     1      -8.573  12.567  67.389  1.00  0.00    -0.187 C  
BRANCH  11  12
HETATM   12  O   UNL     1      -9.104  11.507  66.593  1.00  0.00    -0.178 OA 
BRANCH  12  13
HETATM   13  C   UNL     1      -9.752  10.460  67.199  1.00  0.00    -0.172 A  
HETATM   14  C   UNL     1     -11.101  10.767  67.462  1.00  0.00    -0.374 A  
HETATM   15  C   UNL     1     -11.983   9.813  67.970  1.00  0.00     2.066 A  
HETATM   16  C   UNL     1     -11.539   8.515  68.175  1.00  0.00     1.599 A  
HETATM   17  C   UNL     1     -10.212   8.186  67.894  1.00  0.00    -0.218 A  
HETATM   18  C   UNL     1      -9.282   9.153  67.447  1.00  0.00    -0.150 A  
HETATM   19  C   UNL     1      -7.894   8.666  67.125  1.00  0.00    -0.097 C  
HETATM   20  C   UNL     1      -7.498   7.362  67.795  1.00  0.00    -0.101 C  
HETATM   21  C   UNL     1      -8.596   6.346  67.782  1.00  0.00    -0.116 C  
HETATM   22  N   UNL     1      -9.858   6.835  67.983  1.00  0.00    -0.134 N  
HETATM   23  O   UNL     1      -8.380   5.139  67.723  1.00  0.00    -0.105 OA 
HETATM   24  H   UNL     1     -10.593   6.167  68.215  1.00  0.00     0.000 HD 
ENDBRANCH  12  13
ENDBRANCH  11  12
ENDBRANCH   8  11
ENDBRANCH   7   8
ENDBRANCH   5   7
TORSDOF 5
ENDMDL
MODEL      326
REMARK 921   NORMALIZED FREE ENERGY PREDICTED BY IDOCK:    3.63 KCAL/MOL
REMARK 922        TOTAL FREE ENERGY PREDICTED BY IDOCK:    4.06 KCAL/MOL
REMARK 923 INTER-LIGAND FREE ENERGY PREDICTED BY IDOCK:    4.52 KCAL/MOL
REMARK 924 INTRA-LIGAND FREE ENERGY PREDICTED BY IDOCK:   -0.46 KCAL/MOL
REMARK 927      BINDING AFFINITY PREDICTED BY RF-SCORE:    0.00 PKD
ROOT
HETATM    1  C   UNL     1      -6.700  21.313  71.242  1.00  0.00     3.436 C  
HETATM    2  C   UNL     1      -6.585  19.821  71.606  1.00  0.00     0.479 C  
HETATM    3  C   UNL     1      -7.571  19.528  72.752  1.00  0.00     3.862 C  
HETATM    4  C   UNL     1      -5.162  19.514  72.108  1.00  0.00     0.028 C  
HETATM    5  N   UNL     1      -6.953  18.942  70.478  1.00  0.00     0.878 NA 
HETATM    6  H   UNL     1      -7.947  19.033  70.266  1.00  0.00     0.000 HD 
ENDROOT
BRANCH   5   7
HETATM    7  C   UNL     1      -6.153  19.140  69.265  1.00  0.00    -0.260 C  
BRANCH   7   8
HETATM    8  C   UNL     1      -6.922  18.785  67.974  1.00  0.00    -0.239 C  
HETATM    9  H   UNL     1      -6.620  18.901  66.026  1.00  0.00     0.000 HD 
HETATM   10  O   UNL     1      -6.146  19.121  66.820  1.00  0.00    -0.170 OA 
BRANCH   8  11
HETATM   11  C   UNL     1      -7.249  17.280  67.993  1.00  0.00    -0.190 C  
BRANCH  11  12
HETATM   12  O   UNL     1      -8.653  17.081  67.820  1.00  0.00    -0.208 OA 
BRANCH  12  13
HETATM   13  C   UNL     1      -9.192  15.833  68.014  1.00  0.00    -0.188 A  
HETATM   14  C   UNL     1      -8.485  14.847  67.300  1.00  0.00    -0.229 A  
HETATM   15  C   UNL     1      -8.782  13.491  67.436  1.00  0.00    -0.220 A  
HETATM   16  C   UNL     1      -9.762  13.095  68.335  1.00  0.00    -0.196 A  
HETATM   17  C   UNL     1     -10.454  14.058  69.071  1.00  0.00    -0.156 A  
HETATM   18  C   UNL     1     -10.220  15.442  68.897  1.00  0.00    -0.219 A  
HETATM   19  C   UNL     1     -10.989  16.381  69.788  1.00  0.00    -0.341 C  
HETATM   20  C   UNL     1     -12.268  15.809  70.373  1.00  0.00    -0.388 C  
HETATM   21  C   UNL     1     -12.112  14.398  70.845  1.00  0.00    -0.344 C  
HETATM   22  N   UNL     1     -11.328  13.596  70.062  1.00  0.00    -0.483 N  
HETATM   23  O   UNL     1     -12.740  13.945  71.797  1.00  0.00    -0.329 OA 
HETATM   24  H   UNL     1     -11.385  12.588  70.211  1.00  0.00     0.000 HD 
ENDBRANCH  12  13
ENDBRANCH  11  12
ENDBRANCH   8  11
ENDBRANCH   7   8
ENDBRANCH   5   7
TORSDOF 5
ENDMDL
MODEL      327
REMARK 921   NORMALIZED FREE ENERGY PREDICTED BY IDOCK:    5.20 KCAL/MOL
REMARK 922        TOTAL FREE ENERGY PREDICTED BY IDOCK:    6.09 KCAL/MOL
REMARK 923 INTER-LIGAND FREE ENERGY PREDICTED BY IDOCK:    3.18 KCAL/MOL
REMARK 924 INTRA-LIGAND FREE ENERGY PREDICTED BY IDOCK:    2.90 KCAL/MOL
REMARK 927      BINDING AFFINITY PREDICTED BY RF-SCORE:    0.00 PKD
ROOT
HETATM    1  C   UNL     1     -13.257  10.116  69.173  1.00  0.00     2.923 C  
HETATM    2  C   UNL     1     -11.732  10.325  69.186  1.00  0.00    -0.037 C  
HETATM    3  C   UNL     1     -11.136   9.458  70.310  1.00  0.00    -0.299 C  
HETATM    4  C   UNL     1     -11.409  11.799  69.496  1.00  0.00    -0.317 C  
HETATM    5  N   UNL     1     -11.099   9.897  67.922  1.00  0.00    -0.492 NA 
HETATM    6  H   UNL     1     -11.173   8.885  67.812  1.00  0.00     0.000 HD 
ENDROOT
BRANCH   5   7
HETATM    7  C   UNL     1     -11.606  10.578  66.726  1.00  0.00     0.944 C  
BRANCH   7   8
HETATM    8  C   UNL     1     -10.846  11.886  66.414  1.00  0.00    -0.279 C  
HETATM    9  H   UNL     1     -11.181  13.827  66.554  1.00  0.00     0.000 HD 
HETATM   10  O   UNL     1     -11.649  13.023  66.746  1.00  0.00    -0.330 OA 
BRANCH   8  11
HETATM   11  C   UNL     1      -9.530  11.895  67.212  1.00  0.00    -0.175 C  
BRANCH  11  12
HETATM   12  O   UNL     1      -9.521  12.986  68.133  1.00  0.00    -0.210 OA 
BRANCH  12  13
HETATM   13  C   UNL     1      -9.371  14.268  67.667  1.00  0.00    -0.201 A  
HETATM   14  C   UNL     1      -9.048  14.288  66.297  1.00  0.00    -0.101 A  
HETATM   15  C   UNL     1      -8.960  15.482  65.581  1.00  0.00     0.260 A  
HETATM   16  C   UNL     1      -9.248  16.680  66.219  1.00  0.00    -0.328 A  
HETATM   17  C   UNL     1      -9.595  16.678  67.571  1.00  0.00    -0.242 A  
HETATM   18  C   UNL     1      -9.621  15.487  68.333  1.00  0.00    -0.199 A  
HETATM   19  C   UNL     1     -10.064  15.604  69.767  1.00  0.00    -0.291 C  
HETATM   20  C   UNL     1      -9.924  16.990  70.372  1.00  0.00     1.543 C  
HETATM   21  C   UNL     1     -10.348  18.078  69.437  1.00  0.00     0.183 C  
HETATM   22  N   UNL     1     -10.012  17.894  68.124  1.00  0.00    -0.329 N  
HETATM   23  O   UNL     1     -10.851  19.127  69.828  1.00  0.00     1.163 OA 
HETATM   24  H   UNL     1     -10.069  18.701  67.503  1.00  0.00     0.000 HD 
ENDBRANCH  12  13
ENDBRANCH  11  12
ENDBRANCH   8  11
ENDBRANCH   7   8
ENDBRANCH   5   7
TORSDOF 5
ENDMDL
MODEL      328
REMARK 921   NORMALIZED FREE ENERGY PREDICTED BY IDOCK:    7.63 KCAL/MOL
REMARK 922        TOTAL FREE ENERGY PREDICTED BY IDOCK:    9.23 KCAL/MOL
REMARK 923 INTER-LIGAND FREE ENERGY PREDICTED BY IDOCK:    8.67 KCAL/MOL
REMARK 924 INTRA-LIGAND FREE ENERGY PREDICTED BY IDOCK:    0.56 KCAL/MOL
REMARK 927      BINDING AFFINITY PREDICTED BY RF-SCORE:    0.00 PKD
ROOT
HETATM    1  C   UNL     1      -5.646  16.931  70.587  1.00  0.00    -0.059 C  
HETATM    2  C   UNL     1      -6.241  15.773  71.408  1.00  0.00     1.225 C  
HETATM    3  C   UNL     1      -7.264  16.361  72.398  1.00  0.00     9.038 C  
HETATM    4  C   UNL     1      -5.130  15.085  72.223  1.00  0.00    -0.117 C  
HETATM    5  N   UNL     1      -6.961  14.801  70.562  1.00  0.00    -0.196 NA 
HETATM    6  H   UNL     1      -7.796  15.228  70.161  1.00  0.00     0.000 HD 
ENDROOT
BRANCH   5   7
HETATM    7  C   UNL     1      -6.145  14.190  69.507  1.00  0.00    -0.113 C  
BRANCH   7   8
HETATM    8  C   UNL     1      -6.889  13.073  68.744  1.00  0.00    -0.102 C  
HETATM    9  H   UNL     1      -6.771  11.110  68.564  1.00  0.00     0.000 HD 
HETATM   10  O   UNL     1      -6.313  11.797  69.034  1.00  0.00    -0.065 OA 
BRANCH   8  11
HETATM   11  C   UNL     1      -8.375  13.106  69.146  1.00  0.00     0.575 C  
BRANCH  11  12
HETATM   12  O   UNL     1      -8.730  14.409  69.612  1.00  0.00     0.317 OA 
BRANCH  12  13
HETATM   13  C   UNL     1      -9.738  15.102  68.989  1.00  0.00    -0.234 A  
HETATM   14  C   UNL     1     -11.006  14.608  69.348  1.00  0.00    -0.279 A  
HETATM   15  C   UNL     1     -12.181  15.231  68.927  1.00  0.00    -0.132 A  
HETATM   16  C   UNL     1     -12.103  16.397  68.179  1.00  0.00     0.809 A  
HETATM   17  C   UNL     1     -10.854  16.916  67.836  1.00  0.00    -0.310 A  
HETATM   18  C   UNL     1      -9.651  16.262  68.191  1.00  0.00    -0.219 A  
HETATM   19  C   UNL     1      -8.365  16.947  67.812  1.00  0.00    -0.198 C  
HETATM   20  C   UNL     1      -8.479  17.943  66.671  1.00  0.00    -0.281 C  
HETATM   21  C   UNL     1      -9.703  18.797  66.766  1.00  0.00    -0.329 C  
HETATM   22  N   UNL     1     -10.833  18.164  67.205  1.00  0.00    -0.276 N  
HETATM   23  O   UNL     1      -9.735  19.956  66.360  1.00  0.00    -0.390 OA 
HETATM   24  H   UNL     1     -11.726  18.637  67.061  1.00  0.00     0.000 HD 
ENDBRANCH  12  13
ENDBRANCH  11  12
ENDBRANCH   8  11
ENDBRANCH   7   8
ENDBRANCH   5   7
TORSDOF 5
ENDMDL
MODEL      329
REMARK 921   NORMALIZED FREE ENERGY PREDICTED BY IDOCK:    7.69 KCAL/MOL
REMARK 922        TOTAL FREE ENERGY PREDICTED BY IDOCK:    9.31 KCAL/MOL
REMARK 923 INTER-LIGAND FREE ENERGY PREDICTED BY IDOCK:    8.94 KCAL/MOL
REMARK 924 INTRA-LIGAND FREE ENERGY PREDICTED BY IDOCK:    0.37 KCAL/MOL
REMARK 927      BINDING AFFINITY PREDICTED BY RF-SCORE:    0.00 PKD
ROOT
HETATM    1  C   UNL     1     -11.039  15.328  72.727  1.00  0.00     0.366 C  
HETATM    2  C   UNL     1     -11.717  15.629  71.378  1.00  0.00    -0.428 C  
HETATM    3  C   UNL     1     -13.234  15.429  71.546  1.00  0.00    -0.572 C  
HETATM    4  C   UNL     1     -11.219  14.636  70.310  1.00  0.00    -0.199 C  
HETATM    5  N   UNL     1     -11.506  17.025  70.946  1.00  0.00     0.031 NA 
HETATM    6  H   UNL     1     -11.988  17.668  71.574  1.00  0.00     0.000 HD 
ENDROOT
BRANCH   5   7
HETATM    7  C   UNL     1     -10.098  17.412  70.803  1.00  0.00     2.563 C  
BRANCH   7   8
HETATM    8  C   UNL     1      -9.831  18.870  71.234  1.00  0.00     3.698 C  
HETATM    9  H   UNL     1      -8.261  20.014  71.590  1.00  0.00     0.000 HD 
HETATM   10  O   UNL     1      -8.424  19.116  71.326  1.00  0.00     3.915 OA 
BRANCH   8  11
HETATM   11  C   UNL     1     -10.484  19.816  70.209  1.00  0.00     1.183 C  
BRANCH  11  12
HETATM   12  O   UNL     1      -9.621  19.995  69.085  1.00  0.00    -0.168 OA 
BRANCH  12  13
HETATM   13  C   UNL     1     -10.056  19.645  67.831  1.00  0.00    -0.422 A  
HETATM   14  C   UNL     1     -10.237  20.775  67.011  1.00  0.00     0.017 A  
HETATM   15  C   UNL     1     -10.565  20.655  65.660  1.00  0.00     0.549 A  
HETATM   16  C   UNL     1     -10.666  19.393  65.094  1.00  0.00     0.552 A  
HETATM   17  C   UNL     1     -10.465  18.262  65.886  1.00  0.00    -0.307 A  
HETATM   18  C   UNL     1     -10.202  18.358  67.272  1.00  0.00    -0.396 A  
HETATM   19  C   UNL     1      -9.947  17.070  68.009  1.00  0.00    -0.283 C  
HETATM   20  C   UNL     1     -10.506  15.826  67.341  1.00  0.00    -0.297 C  
HETATM   21  C   UNL     1     -10.293  15.816  65.861  1.00  0.00    -0.354 C  
HETATM   22  N   UNL     1     -10.438  17.024  65.234  1.00  0.00    -0.144 N  
HETATM   23  O   UNL     1     -10.124  14.781  65.223  1.00  0.00    -0.364 OA 
HETATM   24  H   UNL     1     -10.535  17.021  64.218  1.00  0.00     0.000 HD 
ENDBRANCH  12  13
ENDBRANCH  11  12
ENDBRANCH   8  11
ENDBRANCH   7   8
ENDBRANCH   5   7
TORSDOF 5
ENDMDL
MODEL      330
REMARK 921   NORMALIZED FREE ENERGY PREDICTED BY IDOCK:    9.26 KCAL/MOL
REMARK 922        TOTAL FREE ENERGY PREDICTED BY IDOCK:   11.34 KCAL/MOL
REMARK 923 INTER-LIGAND FREE ENERGY PREDICTED BY IDOCK:    8.92 KCAL/MOL
REMARK 924 INTRA-LIGAND FREE ENERGY PREDICTED BY IDOCK:    2.43 KCAL/MOL
REMARK 927      BINDING AFFINITY PREDICTED BY RF-SCORE:    0.00 PKD
ROOT
HETATM    1  C   UNL     1     -11.272  17.882  73.450  1.00  0.00     1.770 C  
HETATM    2  C   UNL     1     -11.351  17.252  72.048  1.00  0.00     1.356 C  
HETATM    3  C   UNL     1     -10.517  18.115  71.083  1.00  0.00     2.867 C  
HETATM    4  C   UNL     1     -12.810  17.258  71.554  1.00  0.00     6.719 C  
HETATM    5  N   UNL     1     -10.784  15.889  72.015  1.00  0.00     0.845 NA 
HETATM    6  H   UNL     1      -9.777  15.919  72.178  1.00  0.00     0.000 HD 
ENDROOT
BRANCH   5   7
HETATM    7  C   UNL     1     -11.421  14.943  72.937  1.00  0.00     0.117 C  
BRANCH   7   8
HETATM    8  C   UNL     1     -12.721  14.335  72.368  1.00  0.00    -0.292 C  
HETATM    9  H   UNL     1     -14.528  14.967  71.883  1.00  0.00     0.000 HD 
HETATM   10  O   UNL     1     -13.728  15.342  72.233  1.00  0.00    -0.419 OA 
BRANCH   8  11
HETATM   11  C   UNL     1     -12.409  13.687  71.006  1.00  0.00    -0.354 C  
BRANCH  11  12
HETATM   12  O   UNL     1     -12.396  12.265  71.130  1.00  0.00    -0.305 OA 
BRANCH  12  13
HETATM   13  C   UNL     1     -11.786  11.504  70.164  1.00  0.00    -0.356 A  
HETATM   14  C   UNL     1     -11.448  10.225  70.647  1.00  0.00    -0.435 A  
HETATM   15  C   UNL     1     -10.922   9.242  69.810  1.00  0.00    -0.213 A  
HETATM   16  C   UNL     1     -10.775   9.507  68.456  1.00  0.00    -0.222 A  
HETATM   17  C   UNL     1     -11.130  10.760  67.955  1.00  0.00    -0.308 A  
HETATM   18  C   UNL     1     -11.597  11.796  68.797  1.00  0.00    -0.367 A  
HETATM   19  C   UNL     1     -12.001  13.085  68.132  1.00  0.00    -0.322 C  
HETATM   20  C   UNL     1     -11.386  13.323  66.764  1.00  0.00    -0.359 C  
HETATM   21  C   UNL     1     -11.372  12.094  65.912  1.00  0.00    -0.356 C  
HETATM   22  N   UNL     1     -11.095  10.924  66.565  1.00  0.00    -0.131 N  
HETATM   23  O   UNL     1     -11.474  12.134  64.689  1.00  0.00    -0.319 OA 
HETATM   24  H   UNL     1     -10.845  10.113  65.999  1.00  0.00     0.000 HD 
ENDBRANCH  12  13
ENDBRANCH  11  12
ENDBRANCH   8  11
ENDBRANCH   7   8
ENDBRANCH   5   7
TORSDOF 5
ENDMDL
