MODEL        1
REMARK 921   NORMALIZED FREE ENERGY PREDICTED BY IDOCK:   -7.28 KCAL/MOL
REMARK 922        TOTAL FREE ENERGY PREDICTED BY IDOCK:  -13.39 KCAL/MOL
REMARK 923 INTER-LIGAND FREE ENERGY PREDICTED BY IDOCK:  -11.54 KCAL/MOL
REMARK 924 INTRA-LIGAND FREE ENERGY PREDICTED BY IDOCK:   -1.85 KCAL/MOL
REMARK 927      BINDING AFFINITY PREDICTED BY RF-SCORE:    0.00 PKD
ROOT
HETATM    1  C   UNL     1      -8.151  16.053  69.175  1.00  0.00    -0.238 C  
HETATM    2  O   UNL     1      -9.170  15.980  68.179  1.00  0.00    -0.192 OA 
ENDROOT
BRANCH   2   3
HETATM    3  C   UNL     1      -9.666  17.178  67.732  1.00  0.00    -0.271 A  
HETATM    4  C   UNL     1      -9.779  18.286  68.587  1.00  0.00    -0.379 A  
HETATM    5  C   UNL     1     -10.236  19.515  68.113  1.00  0.00    -0.556 A  
HETATM    6  C   UNL     1     -10.615  19.648  66.784  1.00  0.00    -0.602 A  
HETATM    7  C   UNL     1     -10.556  18.543  65.937  1.00  0.00    -0.336 A  
HETATM    8  C   UNL     1     -10.096  17.299  66.395  1.00  0.00    -0.316 A  
BRANCH   8   9
HETATM    9  O   UNL     1     -10.115  16.347  65.404  1.00  0.00    -0.543 OA 
BRANCH   9  10
HETATM   10  C   UNL     1     -11.207  16.378  64.494  1.00  0.00    -0.126 C  
BRANCH  10  11
HETATM   11  C   UNL     1     -11.858  14.988  64.396  1.00  0.00    -0.339 C  
BRANCH  11  12
HETATM   12  N   UNL     1     -10.894  13.874  64.464  1.00  0.00    -0.528 NA 
HETATM   13  H   UNL     1      -9.957  14.210  64.683  1.00  0.00     0.000 HD 
BRANCH  12  14
HETATM   14  C   UNL     1     -11.320  12.821  65.412  1.00  0.00    -0.304 C  
BRANCH  14  15
HETATM   15  C   UNL     1     -10.676  12.991  66.806  1.00  0.00    -0.262 C  
HETATM   16  O   UNL     1      -9.471  13.753  66.683  1.00  0.00    -0.267 OA 
HETATM   17  H   UNL     1      -9.076  13.857  67.541  1.00  0.00     0.000 HD 
BRANCH  15  18
HETATM   18  C   UNL     1     -11.659  13.676  67.764  1.00  0.00    -0.338 C  
BRANCH  18  19
HETATM   19  O   UNL     1     -11.073  13.856  69.050  1.00  0.00    -0.254 OA 
BRANCH  19  20
HETATM   20  C   UNL     1     -11.951  14.117  70.075  1.00  0.00    -0.340 A  
HETATM   21  C   UNL     1     -12.415  15.400  70.420  1.00  0.00    -0.447 A  
HETATM   22  C   UNL     1     -13.327  15.589  71.453  1.00  0.00    -0.592 A  
HETATM   23  C   UNL     1     -13.817  14.509  72.187  1.00  0.00    -0.574 A  
HETATM   24  C   UNL     1     -13.346  13.235  71.846  1.00  0.00    -0.451 A  
HETATM   25  C   UNL     1     -12.426  13.010  70.820  1.00  0.00    -0.384 A  
HETATM   26  C   UNL     1     -12.170  11.599  70.783  1.00  0.00    -0.443 A  
HETATM   27  C   UNL     1     -11.337  10.773  69.998  1.00  0.00    -0.397 A  
HETATM   28  C   UNL     1     -11.324   9.391  70.218  1.00  0.00    -0.261 A  
HETATM   29  C   UNL     1     -12.128   8.828  71.206  1.00  0.00    -0.344 A  
HETATM   30  C   UNL     1     -12.959   9.622  72.001  1.00  0.00    -0.518 A  
HETATM   31  C   UNL     1     -12.953  11.004  71.767  1.00  0.00    -0.438 A  
HETATM   32  N   UNL     1     -13.649  12.008  72.391  1.00  0.00    -0.497 NA 
HETATM   33  H   UNL     1     -14.305  11.864  73.159  1.00  0.00     0.000 HD 
ENDBRANCH  19  20
ENDBRANCH  18  19
ENDBRANCH  15  18
ENDBRANCH  14  15
ENDBRANCH  12  14
ENDBRANCH  11  12
ENDBRANCH  10  11
ENDBRANCH   9  10
ENDBRANCH   8   9
ENDBRANCH   2   3
TORSDOF 10
ENDMDL
MODEL        2
REMARK 921   NORMALIZED FREE ENERGY PREDICTED BY IDOCK:   -7.06 KCAL/MOL
REMARK 922        TOTAL FREE ENERGY PREDICTED BY IDOCK:  -13.04 KCAL/MOL
REMARK 923 INTER-LIGAND FREE ENERGY PREDICTED BY IDOCK:  -11.53 KCAL/MOL
REMARK 924 INTRA-LIGAND FREE ENERGY PREDICTED BY IDOCK:   -1.50 KCAL/MOL
REMARK 927      BINDING AFFINITY PREDICTED BY RF-SCORE:    0.00 PKD
ROOT
HETATM    1  C   UNL     1     -10.229  19.952  66.403  1.00  0.00    -0.500 C  
HETATM    2  O   UNL     1     -10.812  18.758  66.921  1.00  0.00    -0.379 OA 
ENDROOT
BRANCH   2   3
HETATM    3  C   UNL     1      -9.958  17.704  67.122  1.00  0.00    -0.316 A  
HETATM    4  C   UNL     1      -9.015  17.717  68.164  1.00  0.00    -0.271 A  
HETATM    5  C   UNL     1      -8.185  16.621  68.394  1.00  0.00    -0.206 A  
HETATM    6  C   UNL     1      -8.264  15.506  67.570  1.00  0.00    -0.182 A  
HETATM    7  C   UNL     1      -9.160  15.501  66.502  1.00  0.00    -0.336 A  
HETATM    8  C   UNL     1     -10.005  16.593  66.257  1.00  0.00    -0.320 A  
BRANCH   8   9
HETATM    9  O   UNL     1     -10.809  16.385  65.161  1.00  0.00    -0.512 OA 
BRANCH   9  10
HETATM   10  C   UNL     1     -10.804  15.083  64.589  1.00  0.00    -0.269 C  
BRANCH  10  11
HETATM   11  C   UNL     1     -12.240  14.645  64.253  1.00  0.00    -0.408 C  
BRANCH  11  12
HETATM   12  N   UNL     1     -12.842  13.755  65.261  1.00  0.00    -0.737 NA 
HETATM   13  H   UNL     1     -13.798  13.504  65.007  1.00  0.00     0.000 HD 
BRANCH  12  14
HETATM   14  C   UNL     1     -12.022  12.549  65.507  1.00  0.00    -0.442 C  
BRANCH  14  15
HETATM   15  C   UNL     1     -11.640  12.391  66.995  1.00  0.00    -0.365 C  
HETATM   16  O   UNL     1     -10.242  12.103  67.098  1.00  0.00    -0.208 OA 
HETATM   17  H   UNL     1     -10.007  12.007  68.014  1.00  0.00     0.000 HD 
BRANCH  15  18
HETATM   18  C   UNL     1     -11.993  13.665  67.772  1.00  0.00    -0.352 C  
BRANCH  18  19
HETATM   19  O   UNL     1     -11.319  13.700  69.025  1.00  0.00    -0.257 OA 
BRANCH  19  20
HETATM   20  C   UNL     1     -12.095  14.023  70.113  1.00  0.00    -0.351 A  
HETATM   21  C   UNL     1     -12.505  15.328  70.441  1.00  0.00    -0.426 A  
HETATM   22  C   UNL     1     -13.316  15.579  71.543  1.00  0.00    -0.593 A  
HETATM   23  C   UNL     1     -13.754  14.542  72.365  1.00  0.00    -0.583 A  
HETATM   24  C   UNL     1     -13.336  13.245  72.041  1.00  0.00    -0.489 A  
HETATM   25  C   UNL     1     -12.518  12.959  70.947  1.00  0.00    -0.383 A  
HETATM   26  C   UNL     1     -12.288  11.542  70.950  1.00  0.00    -0.460 A  
HETATM   27  C   UNL     1     -11.543  10.667  70.130  1.00  0.00    -0.414 A  
HETATM   28  C   UNL     1     -11.532   9.296  70.411  1.00  0.00    -0.255 A  
HETATM   29  C   UNL     1     -12.252   8.791  71.491  1.00  0.00    -0.382 A  
HETATM   30  C   UNL     1     -12.994   9.636  72.322  1.00  0.00    -0.440 A  
HETATM   31  C   UNL     1     -12.988  11.006  72.026  1.00  0.00    -0.293 A  
HETATM   32  N   UNL     1     -13.607  12.049  72.665  1.00  0.00    -0.403 NA 
HETATM   33  H   UNL     1     -14.193  11.952  73.495  1.00  0.00     0.000 HD 
ENDBRANCH  19  20
ENDBRANCH  18  19
ENDBRANCH  15  18
ENDBRANCH  14  15
ENDBRANCH  12  14
ENDBRANCH  11  12
ENDBRANCH  10  11
ENDBRANCH   9  10
ENDBRANCH   8   9
ENDBRANCH   2   3
TORSDOF 10
ENDMDL
MODEL        3
REMARK 921   NORMALIZED FREE ENERGY PREDICTED BY IDOCK:   -7.05 KCAL/MOL
REMARK 922        TOTAL FREE ENERGY PREDICTED BY IDOCK:  -13.02 KCAL/MOL
REMARK 923 INTER-LIGAND FREE ENERGY PREDICTED BY IDOCK:  -11.38 KCAL/MOL
REMARK 924 INTRA-LIGAND FREE ENERGY PREDICTED BY IDOCK:   -1.64 KCAL/MOL
REMARK 927      BINDING AFFINITY PREDICTED BY RF-SCORE:    0.00 PKD
ROOT
HETATM    1  C   UNL     1      -8.804  15.609  69.414  1.00  0.00    -0.257 C  
HETATM    2  O   UNL     1      -8.625  16.027  68.062  1.00  0.00    -0.163 OA 
ENDROOT
BRANCH   2   3
HETATM    3  C   UNL     1      -9.265  17.184  67.696  1.00  0.00    -0.238 A  
HETATM    4  C   UNL     1      -9.325  18.290  68.561  1.00  0.00    -0.334 A  
HETATM    5  C   UNL     1      -9.934  19.480  68.162  1.00  0.00    -0.522 A  
HETATM    6  C   UNL     1     -10.515  19.574  66.905  1.00  0.00    -0.589 A  
HETATM    7  C   UNL     1     -10.506  18.467  66.057  1.00  0.00    -0.433 A  
HETATM    8  C   UNL     1      -9.897  17.263  66.439  1.00  0.00    -0.299 A  
BRANCH   8   9
HETATM    9  O   UNL     1      -9.998  16.302  65.461  1.00  0.00    -0.491 OA 
BRANCH   9  10
HETATM   10  C   UNL     1     -11.270  16.129  64.849  1.00  0.00    -0.285 C  
BRANCH  10  11
HETATM   11  C   UNL     1     -11.446  14.671  64.394  1.00  0.00    -0.263 C  
BRANCH  11  12
HETATM   12  N   UNL     1     -10.191  13.898  64.372  1.00  0.00    -0.732 NA 
HETATM   13  H   UNL     1      -9.454  14.376  64.891  1.00  0.00     0.000 HD 
BRANCH  12  14
HETATM   14  C   UNL     1     -10.375  12.514  64.860  1.00  0.00    -0.300 C  
BRANCH  14  15
HETATM   15  C   UNL     1      -9.797  12.308  66.277  1.00  0.00    -0.241 C  
HETATM   16  O   UNL     1      -9.322  13.560  66.782  1.00  0.00    -0.247 OA 
HETATM   17  H   UNL     1      -8.967  13.434  67.655  1.00  0.00     0.000 HD 
BRANCH  15  18
HETATM   18  C   UNL     1     -10.864  11.715  67.206  1.00  0.00    -0.256 C  
BRANCH  18  19
HETATM   19  O   UNL     1     -10.566  11.998  68.569  1.00  0.00    -0.218 OA 
BRANCH  19  20
HETATM   20  C   UNL     1     -11.130  11.151  69.493  1.00  0.00    -0.252 A  
HETATM   21  C   UNL     1     -10.908   9.762  69.540  1.00  0.00    -0.264 A  
HETATM   22  C   UNL     1     -11.489   8.967  70.524  1.00  0.00    -0.248 A  
HETATM   23  C   UNL     1     -12.314   9.521  71.501  1.00  0.00    -0.465 A  
HETATM   24  C   UNL     1     -12.539  10.902  71.445  1.00  0.00    -0.403 A  
HETATM   25  C   UNL     1     -11.978  11.727  70.470  1.00  0.00    -0.383 A  
HETATM   26  C   UNL     1     -12.448  13.059  70.721  1.00  0.00    -0.384 A  
HETATM   27  C   UNL     1     -12.255  14.305  70.085  1.00  0.00    -0.407 A  
HETATM   28  C   UNL     1     -12.870  15.450  70.602  1.00  0.00    -0.484 A  
HETATM   29  C   UNL     1     -13.670  15.368  71.740  1.00  0.00    -0.610 A  
HETATM   30  C   UNL     1     -13.881  14.147  72.388  1.00  0.00    -0.638 A  
HETATM   31  C   UNL     1     -13.260  13.012  71.850  1.00  0.00    -0.430 A  
HETATM   32  N   UNL     1     -13.299  11.705  72.265  1.00  0.00    -0.546 NA 
HETATM   33  H   UNL     1     -13.822  11.372  73.075  1.00  0.00     0.000 HD 
ENDBRANCH  19  20
ENDBRANCH  18  19
ENDBRANCH  15  18
ENDBRANCH  14  15
ENDBRANCH  12  14
ENDBRANCH  11  12
ENDBRANCH  10  11
ENDBRANCH   9  10
ENDBRANCH   8   9
ENDBRANCH   2   3
TORSDOF 10
ENDMDL
MODEL        4
REMARK 921   NORMALIZED FREE ENERGY PREDICTED BY IDOCK:   -6.91 KCAL/MOL
REMARK 922        TOTAL FREE ENERGY PREDICTED BY IDOCK:  -12.80 KCAL/MOL
REMARK 923 INTER-LIGAND FREE ENERGY PREDICTED BY IDOCK:  -11.29 KCAL/MOL
REMARK 924 INTRA-LIGAND FREE ENERGY PREDICTED BY IDOCK:   -1.51 KCAL/MOL
REMARK 927      BINDING AFFINITY PREDICTED BY RF-SCORE:    0.00 PKD
ROOT
HETATM    1  C   UNL     1     -10.657  19.881  65.915  1.00  0.00    -0.417 C  
HETATM    2  O   UNL     1     -10.594  18.526  65.477  1.00  0.00    -0.621 OA 
ENDROOT
BRANCH   2   3
HETATM    3  C   UNL     1     -10.188  17.605  66.410  1.00  0.00    -0.364 A  
HETATM    4  C   UNL     1      -9.790  18.000  67.698  1.00  0.00    -0.305 A  
HETATM    5  C   UNL     1      -9.426  17.055  68.657  1.00  0.00    -0.274 A  
HETATM    6  C   UNL     1      -9.428  15.704  68.335  1.00  0.00    -0.196 A  
HETATM    7  C   UNL     1      -9.771  15.304  67.045  1.00  0.00    -0.232 A  
HETATM    8  C   UNL     1     -10.142  16.239  66.068  1.00  0.00    -0.356 A  
BRANCH   8   9
HETATM    9  O   UNL     1     -10.444  15.638  64.869  1.00  0.00    -0.444 OA 
BRANCH   9  10
HETATM   10  C   UNL     1     -11.681  14.943  64.783  1.00  0.00    -0.402 C  
BRANCH  10  11
HETATM   11  C   UNL     1     -11.475  13.570  64.121  1.00  0.00    -0.360 C  
BRANCH  11  12
HETATM   12  N   UNL     1     -10.251  12.876  64.560  1.00  0.00    -0.523 NA 
HETATM   13  H   UNL     1      -9.729  13.437  65.233  1.00  0.00     0.000 HD 
BRANCH  12  14
HETATM   14  C   UNL     1     -10.532  11.526  65.095  1.00  0.00    -0.286 C  
BRANCH  14  15
HETATM   15  C   UNL     1      -9.958  11.324  66.514  1.00  0.00    -0.212 C  
HETATM   16  O   UNL     1      -8.862  12.222  66.715  1.00  0.00    -0.202 OA 
HETATM   17  H   UNL     1      -8.509  12.099  67.589  1.00  0.00     0.000 HD 
BRANCH  15  18
HETATM   18  C   UNL     1     -11.050  11.554  67.567  1.00  0.00    -0.272 C  
BRANCH  18  19
HETATM   19  O   UNL     1     -10.501  11.544  68.880  1.00  0.00    -0.208 OA 
BRANCH  19  20
HETATM   20  C   UNL     1     -11.196  10.812  69.814  1.00  0.00    -0.297 A  
HETATM   21  C   UNL     1     -11.083   9.419  69.980  1.00  0.00    -0.248 A  
HETATM   22  C   UNL     1     -11.795   8.746  70.968  1.00  0.00    -0.315 A  
HETATM   23  C   UNL     1     -12.650   9.430  71.831  1.00  0.00    -0.481 A  
HETATM   24  C   UNL     1     -12.766  10.815  71.656  1.00  0.00    -0.414 A  
HETATM   25  C   UNL     1     -12.071  11.521  70.673  1.00  0.00    -0.450 A  
HETATM   26  C   UNL     1     -12.458  12.898  70.787  1.00  0.00    -0.370 A  
HETATM   27  C   UNL     1     -12.124  14.073  70.080  1.00  0.00    -0.412 A  
HETATM   28  C   UNL     1     -12.690  15.295  70.460  1.00  0.00    -0.440 A  
HETATM   29  C   UNL     1     -13.579  15.358  71.531  1.00  0.00    -0.604 A  
HETATM   30  C   UNL     1     -13.931  14.209  72.246  1.00  0.00    -0.646 A  
HETATM   31  C   UNL     1     -13.356  12.995  71.845  1.00  0.00    -0.446 A  
HETATM   32  N   UNL     1     -13.524  11.731  72.349  1.00  0.00    -0.498 NA 
HETATM   33  H   UNL     1     -14.132  11.499  73.135  1.00  0.00     0.000 HD 
ENDBRANCH  19  20
ENDBRANCH  18  19
ENDBRANCH  15  18
ENDBRANCH  14  15
ENDBRANCH  12  14
ENDBRANCH  11  12
ENDBRANCH  10  11
ENDBRANCH   9  10
ENDBRANCH   8   9
ENDBRANCH   2   3
TORSDOF 10
ENDMDL
MODEL        5
REMARK 921   NORMALIZED FREE ENERGY PREDICTED BY IDOCK:   -6.86 KCAL/MOL
REMARK 922        TOTAL FREE ENERGY PREDICTED BY IDOCK:  -12.72 KCAL/MOL
REMARK 923 INTER-LIGAND FREE ENERGY PREDICTED BY IDOCK:  -11.01 KCAL/MOL
REMARK 924 INTRA-LIGAND FREE ENERGY PREDICTED BY IDOCK:   -1.71 KCAL/MOL
REMARK 927      BINDING AFFINITY PREDICTED BY RF-SCORE:    0.00 PKD
ROOT
HETATM    1  C   UNL     1     -13.837  15.705  72.596  1.00  0.00    -0.564 C  
HETATM    2  O   UNL     1     -13.262  15.411  71.325  1.00  0.00    -0.449 OA 
ENDROOT
BRANCH   2   3
HETATM    3  C   UNL     1     -12.907  14.104  71.108  1.00  0.00    -0.360 A  
HETATM    4  C   UNL     1     -13.321  13.082  71.978  1.00  0.00    -0.588 A  
HETATM    5  C   UNL     1     -13.000  11.749  71.723  1.00  0.00    -0.466 A  
HETATM    6  C   UNL     1     -12.236  11.420  70.611  1.00  0.00    -0.484 A  
HETATM    7  C   UNL     1     -11.775  12.431  69.769  1.00  0.00    -0.361 A  
HETATM    8  C   UNL     1     -12.091  13.777  70.007  1.00  0.00    -0.349 A  
BRANCH   8   9
HETATM    9  O   UNL     1     -11.542  14.609  69.060  1.00  0.00    -0.268 OA 
BRANCH   9  10
HETATM   10  C   UNL     1     -10.907  15.793  69.525  1.00  0.00    -0.287 C  
BRANCH  10  11
HETATM   11  C   UNL     1     -11.109  16.936  68.516  1.00  0.00    -0.213 C  
BRANCH  11  12
HETATM   12  N   UNL     1     -10.064  17.975  68.576  1.00  0.00    -0.377 NA 
HETATM   13  H   UNL     1      -9.161  17.607  68.275  1.00  0.00     0.000 HD 
BRANCH  12  14
HETATM   14  C   UNL     1     -10.431  19.184  67.807  1.00  0.00    -0.419 C  
BRANCH  14  15
HETATM   15  C   UNL     1      -9.759  19.224  66.418  1.00  0.00    -0.374 C  
HETATM   16  O   UNL     1      -9.586  20.585  66.012  1.00  0.00    -0.654 OA 
HETATM   17  H   UNL     1      -9.172  20.610  65.157  1.00  0.00     0.000 HD 
BRANCH  15  18
HETATM   18  C   UNL     1      -8.411  18.492  66.458  1.00  0.00    -0.277 C  
BRANCH  18  19
HETATM   19  O   UNL     1      -8.483  17.256  65.756  1.00  0.00    -0.532 OA 
BRANCH  19  20
HETATM   20  C   UNL     1      -8.074  16.145  66.456  1.00  0.00    -0.296 A  
HETATM   21  C   UNL     1      -6.896  16.074  67.222  1.00  0.00    -0.236 A  
HETATM   22  C   UNL     1      -6.560  14.926  67.931  1.00  0.00    -0.173 A  
HETATM   23  C   UNL     1      -7.381  13.800  67.909  1.00  0.00    -0.155 A  
HETATM   24  C   UNL     1      -8.548  13.871  67.138  1.00  0.00    -0.203 A  
HETATM   25  C   UNL     1      -8.913  15.005  66.410  1.00  0.00    -0.286 A  
HETATM   26  C   UNL     1     -10.143  14.698  65.738  1.00  0.00    -0.364 A  
HETATM   27  C   UNL     1     -10.984  15.411  64.856  1.00  0.00    -0.453 A  
HETATM   28  C   UNL     1     -12.150  14.808  64.370  1.00  0.00    -0.457 A  
HETATM   29  C   UNL     1     -12.484  13.511  64.752  1.00  0.00    -0.402 A  
HETATM   30  C   UNL     1     -11.667  12.780  65.621  1.00  0.00    -0.443 A  
HETATM   31  C   UNL     1     -10.503  13.401  66.092  1.00  0.00    -0.295 A  
HETATM   32  N   UNL     1      -9.528  12.927  66.932  1.00  0.00    -0.231 NA 
HETATM   33  H   UNL     1      -9.529  11.996  67.350  1.00  0.00     0.000 HD 
ENDBRANCH  19  20
ENDBRANCH  18  19
ENDBRANCH  15  18
ENDBRANCH  14  15
ENDBRANCH  12  14
ENDBRANCH  11  12
ENDBRANCH  10  11
ENDBRANCH   9  10
ENDBRANCH   8   9
ENDBRANCH   2   3
TORSDOF 10
ENDMDL
MODEL        6
REMARK 921   NORMALIZED FREE ENERGY PREDICTED BY IDOCK:   -6.76 KCAL/MOL
REMARK 922        TOTAL FREE ENERGY PREDICTED BY IDOCK:  -12.56 KCAL/MOL
REMARK 923 INTER-LIGAND FREE ENERGY PREDICTED BY IDOCK:  -10.93 KCAL/MOL
REMARK 924 INTRA-LIGAND FREE ENERGY PREDICTED BY IDOCK:   -1.63 KCAL/MOL
REMARK 927      BINDING AFFINITY PREDICTED BY RF-SCORE:    0.00 PKD
ROOT
HETATM    1  C   UNL     1     -11.150   5.288  72.383  1.00  0.00    -0.197 C  
HETATM    2  O   UNL     1     -11.591   5.963  71.206  1.00  0.00    -0.203 OA 
ENDROOT
BRANCH   2   3
HETATM    3  C   UNL     1     -12.191   7.182  71.395  1.00  0.00    -0.362 A  
HETATM    4  C   UNL     1     -13.577   7.290  71.595  1.00  0.00    -0.435 A  
HETATM    5  C   UNL     1     -14.173   8.527  71.838  1.00  0.00    -0.536 A  
HETATM    6  C   UNL     1     -13.398   9.678  71.857  1.00  0.00    -0.526 A  
HETATM    7  C   UNL     1     -12.029   9.591  71.609  1.00  0.00    -0.474 A  
HETATM    8  C   UNL     1     -11.411   8.355  71.366  1.00  0.00    -0.264 A  
BRANCH   8   9
HETATM    9  O   UNL     1     -10.060   8.490  71.149  1.00  0.00    -0.183 OA 
BRANCH   9  10
HETATM   10  C   UNL     1      -9.634   8.687  69.807  1.00  0.00    -0.171 C  
BRANCH  10  11
HETATM   11  C   UNL     1      -8.796   9.973  69.699  1.00  0.00    -0.199 C  
BRANCH  11  12
HETATM   12  N   UNL     1      -9.488  11.079  69.013  1.00  0.00    -0.362 NA 
HETATM   13  H   UNL     1      -8.947  11.942  69.067  1.00  0.00     0.000 HD 
BRANCH  12  14
HETATM   14  C   UNL     1      -9.825  10.747  67.611  1.00  0.00    -0.171 C  
BRANCH  14  15
HETATM   15  C   UNL     1     -11.280  11.121  67.252  1.00  0.00    -0.277 C  
HETATM   16  O   UNL     1     -12.120  10.904  68.390  1.00  0.00    -0.776 OA 
HETATM   17  H   UNL     1     -13.016  11.134  68.169  1.00  0.00     0.000 HD 
BRANCH  15  18
HETATM   18  C   UNL     1     -11.355  12.581  66.790  1.00  0.00    -0.334 C  
BRANCH  18  19
HETATM   19  O   UNL     1     -11.987  13.394  67.773  1.00  0.00    -0.351 OA 
BRANCH  19  20
HETATM   20  C   UNL     1     -11.412  14.623  67.994  1.00  0.00    -0.324 A  
HETATM   21  C   UNL     1     -10.742  15.378  67.013  1.00  0.00    -0.321 A  
HETATM   22  C   UNL     1     -10.208  16.630  67.300  1.00  0.00    -0.290 A  
HETATM   23  C   UNL     1     -10.319  17.184  68.574  1.00  0.00    -0.364 A  
HETATM   24  C   UNL     1     -10.978  16.426  69.550  1.00  0.00    -0.317 A  
HETATM   25  C   UNL     1     -11.520  15.164  69.298  1.00  0.00    -0.327 A  
HETATM   26  C   UNL     1     -12.089  14.695  70.529  1.00  0.00    -0.388 A  
HETATM   27  C   UNL     1     -12.749  13.509  70.916  1.00  0.00    -0.366 A  
HETATM   28  C   UNL     1     -13.199  13.364  72.233  1.00  0.00    -0.570 A  
HETATM   29  C   UNL     1     -13.000  14.382  73.162  1.00  0.00    -0.517 A  
HETATM   30  C   UNL     1     -12.345  15.566  72.808  1.00  0.00    -0.522 A  
HETATM   31  C   UNL     1     -11.899  15.688  71.485  1.00  0.00    -0.425 A  
HETATM   32  N   UNL     1     -11.229  16.716  70.872  1.00  0.00    -0.375 NA 
HETATM   33  H   UNL     1     -10.952  17.582  71.335  1.00  0.00     0.000 HD 
ENDBRANCH  19  20
ENDBRANCH  18  19
ENDBRANCH  15  18
ENDBRANCH  14  15
ENDBRANCH  12  14
ENDBRANCH  11  12
ENDBRANCH  10  11
ENDBRANCH   9  10
ENDBRANCH   8   9
ENDBRANCH   2   3
TORSDOF 10
ENDMDL
MODEL        7
REMARK 921   NORMALIZED FREE ENERGY PREDICTED BY IDOCK:   -6.76 KCAL/MOL
REMARK 922        TOTAL FREE ENERGY PREDICTED BY IDOCK:  -12.56 KCAL/MOL
REMARK 923 INTER-LIGAND FREE ENERGY PREDICTED BY IDOCK:  -11.35 KCAL/MOL
REMARK 924 INTRA-LIGAND FREE ENERGY PREDICTED BY IDOCK:   -1.21 KCAL/MOL
REMARK 927      BINDING AFFINITY PREDICTED BY RF-SCORE:    0.00 PKD
ROOT
HETATM    1  C   UNL     1      -5.925  17.866  68.125  1.00  0.00    -0.170 C  
HETATM    2  O   UNL     1      -7.030  18.294  68.919  1.00  0.00    -0.268 OA 
ENDROOT
BRANCH   2   3
HETATM    3  C   UNL     1      -8.128  18.750  68.233  1.00  0.00    -0.324 A  
HETATM    4  C   UNL     1      -8.182  20.061  67.732  1.00  0.00    -0.330 A  
HETATM    5  C   UNL     1      -9.280  20.502  66.993  1.00  0.00    -0.446 A  
HETATM    6  C   UNL     1     -10.351  19.648  66.767  1.00  0.00    -0.591 A  
HETATM    7  C   UNL     1     -10.332  18.362  67.303  1.00  0.00    -0.417 A  
HETATM    8  C   UNL     1      -9.236  17.900  68.046  1.00  0.00    -0.267 A  
BRANCH   8   9
HETATM    9  O   UNL     1      -9.416  16.608  68.480  1.00  0.00    -0.223 OA 
BRANCH   9  10
HETATM   10  C   UNL     1     -10.103  15.719  67.607  1.00  0.00    -0.247 C  
BRANCH  10  11
HETATM   11  C   UNL     1      -9.422  14.340  67.610  1.00  0.00    -0.211 C  
BRANCH  11  12
HETATM   12  N   UNL     1      -9.253  13.756  66.267  1.00  0.00    -0.484 NA 
HETATM   13  H   UNL     1      -8.277  13.782  65.973  1.00  0.00     0.000 HD 
BRANCH  12  14
HETATM   14  C   UNL     1      -9.801  12.385  66.177  1.00  0.00    -0.252 C  
BRANCH  14  15
HETATM   15  C   UNL     1     -11.100  12.217  66.995  1.00  0.00    -0.294 C  
HETATM   16  O   UNL     1     -12.221  12.187  66.106  1.00  0.00    -0.611 OA 
HETATM   17  H   UNL     1     -13.020  12.082  66.609  1.00  0.00     0.000 HD 
BRANCH  15  18
HETATM   18  C   UNL     1     -11.037  10.935  67.835  1.00  0.00    -0.302 C  
BRANCH  18  19
HETATM   19  O   UNL     1     -10.713  11.230  69.189  1.00  0.00    -0.215 OA 
BRANCH  19  20
HETATM   20  C   UNL     1     -11.496  10.617  70.139  1.00  0.00    -0.329 A  
HETATM   21  C   UNL     1     -11.520   9.231  70.379  1.00  0.00    -0.255 A  
HETATM   22  C   UNL     1     -12.317   8.681  71.378  1.00  0.00    -0.344 A  
HETATM   23  C   UNL     1     -13.122   9.488  72.181  1.00  0.00    -0.522 A  
HETATM   24  C   UNL     1     -13.102  10.866  71.933  1.00  0.00    -0.432 A  
HETATM   25  C   UNL     1     -12.319  11.450  70.935  1.00  0.00    -0.483 A  
HETATM   26  C   UNL     1     -12.576  12.861  70.968  1.00  0.00    -0.376 A  
HETATM   27  C   UNL     1     -12.115  13.961  70.212  1.00  0.00    -0.423 A  
HETATM   28  C   UNL     1     -12.570  15.249  70.514  1.00  0.00    -0.450 A  
HETATM   29  C   UNL     1     -13.473  15.452  71.554  1.00  0.00    -0.601 A  
HETATM   30  C   UNL     1     -13.950  14.381  72.316  1.00  0.00    -0.610 A  
HETATM   31  C   UNL     1     -13.485  13.099  71.995  1.00  0.00    -0.507 A  
HETATM   32  N   UNL     1     -13.785  11.885  72.557  1.00  0.00    -0.362 NA 
HETATM   33  H   UNL     1     -14.431  11.753  73.336  1.00  0.00     0.000 HD 
ENDBRANCH  19  20
ENDBRANCH  18  19
ENDBRANCH  15  18
ENDBRANCH  14  15
ENDBRANCH  12  14
ENDBRANCH  11  12
ENDBRANCH  10  11
ENDBRANCH   9  10
ENDBRANCH   8   9
ENDBRANCH   2   3
TORSDOF 10
ENDMDL
MODEL        8
REMARK 921   NORMALIZED FREE ENERGY PREDICTED BY IDOCK:   -6.74 KCAL/MOL
REMARK 922        TOTAL FREE ENERGY PREDICTED BY IDOCK:  -12.53 KCAL/MOL
REMARK 923 INTER-LIGAND FREE ENERGY PREDICTED BY IDOCK:  -10.99 KCAL/MOL
REMARK 924 INTRA-LIGAND FREE ENERGY PREDICTED BY IDOCK:   -1.55 KCAL/MOL
REMARK 927      BINDING AFFINITY PREDICTED BY RF-SCORE:    0.00 PKD
ROOT
HETATM    1  C   UNL     1      -6.398  19.101  65.498  1.00  0.00    -0.255 C  
HETATM    2  O   UNL     1      -7.418  18.117  65.654  1.00  0.00    -0.535 OA 
ENDROOT
BRANCH   2   3
HETATM    3  C   UNL     1      -8.426  18.422  66.533  1.00  0.00    -0.270 A  
HETATM    4  C   UNL     1      -8.176  19.161  67.701  1.00  0.00    -0.316 A  
HETATM    5  C   UNL     1      -9.214  19.512  68.564  1.00  0.00    -0.413 A  
HETATM    6  C   UNL     1     -10.512  19.106  68.287  1.00  0.00    -0.377 A  
HETATM    7  C   UNL     1     -10.765  18.329  67.158  1.00  0.00    -0.334 A  
HETATM    8  C   UNL     1      -9.735  17.968  66.277  1.00  0.00    -0.270 A  
BRANCH   8   9
HETATM    9  O   UNL     1     -10.196  17.206  65.230  1.00  0.00    -0.591 OA 
BRANCH   9  10
HETATM   10  C   UNL     1     -10.754  15.937  65.547  1.00  0.00    -0.372 C  
BRANCH  10  11
HETATM   11  C   UNL     1     -11.866  15.581  64.545  1.00  0.00    -0.216 C  
BRANCH  11  12
HETATM   12  N   UNL     1     -12.383  14.208  64.693  1.00  0.00    -0.580 NA 
HETATM   13  H   UNL     1     -13.396  14.206  64.807  1.00  0.00     0.000 HD 
BRANCH  12  14
HETATM   14  C   UNL     1     -11.969  13.329  63.577  1.00  0.00    -0.474 C  
BRANCH  14  15
HETATM   15  C   UNL     1     -11.436  11.966  64.069  1.00  0.00    -0.398 C  
HETATM   16  O   UNL     1     -11.160  11.129  62.941  1.00  0.00    -0.812 OA 
HETATM   17  H   UNL     1     -10.832  10.290  63.244  1.00  0.00     0.000 HD 
BRANCH  15  18
HETATM   18  C   UNL     1     -10.177  12.164  64.921  1.00  0.00    -0.280 C  
BRANCH  18  19
HETATM   19  O   UNL     1     -10.515  12.593  66.236  1.00  0.00    -0.246 OA 
BRANCH  19  20
HETATM   20  C   UNL     1     -10.667  11.597  67.171  1.00  0.00    -0.247 A  
HETATM   21  C   UNL     1     -10.336  10.246  66.957  1.00  0.00    -0.299 A  
HETATM   22  C   UNL     1     -10.488   9.293  67.960  1.00  0.00    -0.275 A  
HETATM   23  C   UNL     1     -10.974   9.645  69.217  1.00  0.00    -0.194 A  
HETATM   24  C   UNL     1     -11.311  10.989  69.423  1.00  0.00    -0.284 A  
HETATM   25  C   UNL     1     -11.177  11.968  68.438  1.00  0.00    -0.313 A  
HETATM   26  C   UNL     1     -11.636  13.204  69.006  1.00  0.00    -0.360 A  
HETATM   27  C   UNL     1     -11.765  14.522  68.514  1.00  0.00    -0.353 A  
HETATM   28  C   UNL     1     -12.256  15.529  69.353  1.00  0.00    -0.233 A  
HETATM   29  C   UNL     1     -12.615  15.239  70.667  1.00  0.00    -0.471 A  
HETATM   30  C   UNL     1     -12.502  13.943  71.178  1.00  0.00    -0.450 A  
HETATM   31  C   UNL     1     -12.013  12.948  70.320  1.00  0.00    -0.283 A  
HETATM   32  N   UNL     1     -11.809  11.611  70.546  1.00  0.00    -0.488 NA 
HETATM   33  H   UNL     1     -12.001  11.139  71.429  1.00  0.00     0.000 HD 
ENDBRANCH  19  20
ENDBRANCH  18  19
ENDBRANCH  15  18
ENDBRANCH  14  15
ENDBRANCH  12  14
ENDBRANCH  11  12
ENDBRANCH  10  11
ENDBRANCH   9  10
ENDBRANCH   8   9
ENDBRANCH   2   3
TORSDOF 10
ENDMDL
MODEL        9
REMARK 921   NORMALIZED FREE ENERGY PREDICTED BY IDOCK:   -6.70 KCAL/MOL
REMARK 922        TOTAL FREE ENERGY PREDICTED BY IDOCK:  -12.46 KCAL/MOL
REMARK 923 INTER-LIGAND FREE ENERGY PREDICTED BY IDOCK:  -10.65 KCAL/MOL
REMARK 924 INTRA-LIGAND FREE ENERGY PREDICTED BY IDOCK:   -1.81 KCAL/MOL
REMARK 927      BINDING AFFINITY PREDICTED BY RF-SCORE:    0.00 PKD
ROOT
HETATM    1  C   UNL     1      -8.863   8.162  73.101  1.00  0.00    -0.257 C  
HETATM    2  O   UNL     1      -9.402   8.085  71.783  1.00  0.00    -0.145 OA 
ENDROOT
BRANCH   2   3
HETATM    3  C   UNL     1     -10.631   8.666  71.596  1.00  0.00    -0.303 A  
HETATM    4  C   UNL     1     -11.753   8.253  72.333  1.00  0.00    -0.463 A  
HETATM    5  C   UNL     1     -12.987   8.882  72.174  1.00  0.00    -0.473 A  
HETATM    6  C   UNL     1     -13.126   9.914  71.256  1.00  0.00    -0.487 A  
HETATM    7  C   UNL     1     -12.032  10.299  70.482  1.00  0.00    -0.415 A  
HETATM    8  C   UNL     1     -10.782   9.680  70.630  1.00  0.00    -0.322 A  
BRANCH   8   9
HETATM    9  O   UNL     1      -9.843  10.207  69.776  1.00  0.00    -0.232 OA 
BRANCH   9  10
HETATM   10  C   UNL     1     -10.273  11.233  68.890  1.00  0.00    -0.180 C  
BRANCH  10  11
HETATM   11  C   UNL     1      -9.509  11.140  67.558  1.00  0.00    -0.168 C  
BRANCH  11  12
HETATM   12  N   UNL     1     -10.023  12.042  66.512  1.00  0.00    -0.201 NA 
HETATM   13  H   UNL     1      -9.427  12.025  65.685  1.00  0.00     0.000 HD 
BRANCH  12  14
HETATM   14  C   UNL     1     -11.430  11.751  66.162  1.00  0.00    -0.220 C  
BRANCH  14  15
HETATM   15  C   UNL     1     -12.065  12.865  65.301  1.00  0.00    -0.453 C  
HETATM   16  O   UNL     1     -13.088  12.302  64.474  1.00  0.00    -0.791 OA 
HETATM   17  H   UNL     1     -13.478  12.988  63.945  1.00  0.00     0.000 HD 
BRANCH  15  18
HETATM   18  C   UNL     1     -12.637  13.969  66.199  1.00  0.00    -0.367 C  
BRANCH  18  19
HETATM   19  O   UNL     1     -12.030  13.943  67.487  1.00  0.00    -0.377 OA 
BRANCH  19  20
HETATM   20  C   UNL     1     -11.377  15.092  67.864  1.00  0.00    -0.338 A  
HETATM   21  C   UNL     1     -10.603  15.890  67.002  1.00  0.00    -0.306 A  
HETATM   22  C   UNL     1      -9.993  17.059  67.446  1.00  0.00    -0.278 A  
HETATM   23  C   UNL     1     -10.129  17.485  68.766  1.00  0.00    -0.363 A  
HETATM   24  C   UNL     1     -10.893  16.683  69.624  1.00  0.00    -0.282 A  
HETATM   25  C   UNL     1     -11.513  15.502  69.213  1.00  0.00    -0.349 A  
HETATM   26  C   UNL     1     -12.179  14.953  70.360  1.00  0.00    -0.393 A  
HETATM   27  C   UNL     1     -12.945  13.789  70.587  1.00  0.00    -0.176 A  
HETATM   28  C   UNL     1     -13.473  13.544  71.859  1.00  0.00    -0.528 A  
HETATM   29  C   UNL     1     -13.248  14.441  72.901  1.00  0.00    -0.613 A  
HETATM   30  C   UNL     1     -12.490  15.599  72.706  1.00  0.00    -0.537 A  
HETATM   31  C   UNL     1     -11.966  15.823  71.425  1.00  0.00    -0.441 A  
HETATM   32  N   UNL     1     -11.191  16.853  70.957  1.00  0.00    -0.196 NA 
HETATM   33  H   UNL     1     -10.876  17.641  71.522  1.00  0.00     0.000 HD 
ENDBRANCH  19  20
ENDBRANCH  18  19
ENDBRANCH  15  18
ENDBRANCH  14  15
ENDBRANCH  12  14
ENDBRANCH  11  12
ENDBRANCH  10  11
ENDBRANCH   9  10
ENDBRANCH   8   9
ENDBRANCH   2   3
TORSDOF 10
ENDMDL
MODEL       10
REMARK 921   NORMALIZED FREE ENERGY PREDICTED BY IDOCK:   -6.66 KCAL/MOL
REMARK 922        TOTAL FREE ENERGY PREDICTED BY IDOCK:  -12.40 KCAL/MOL
REMARK 923 INTER-LIGAND FREE ENERGY PREDICTED BY IDOCK:  -10.44 KCAL/MOL
REMARK 924 INTRA-LIGAND FREE ENERGY PREDICTED BY IDOCK:   -1.95 KCAL/MOL
REMARK 927      BINDING AFFINITY PREDICTED BY RF-SCORE:    0.00 PKD
ROOT
HETATM    1  C   UNL     1     -12.655  15.598  73.884  1.00  0.00    -0.634 C  
HETATM    2  O   UNL     1     -12.993  14.470  73.080  1.00  0.00    -0.481 OA 
ENDROOT
BRANCH   2   3
HETATM    3  C   UNL     1     -12.690  14.565  71.745  1.00  0.00    -0.343 A  
HETATM    4  C   UNL     1     -12.578  15.813  71.110  1.00  0.00    -0.487 A  
HETATM    5  C   UNL     1     -12.220  15.905  69.765  1.00  0.00    -0.157 A  
HETATM    6  C   UNL     1     -11.995  14.750  69.028  1.00  0.00    -0.308 A  
HETATM    7  C   UNL     1     -12.152  13.505  69.633  1.00  0.00    -0.365 A  
HETATM    8  C   UNL     1     -12.509  13.393  70.985  1.00  0.00    -0.353 A  
BRANCH   8   9
HETATM    9  O   UNL     1     -12.609  12.081  71.384  1.00  0.00    -0.320 OA 
BRANCH   9  10
HETATM   10  C   UNL     1     -12.387  11.083  70.396  1.00  0.00    -0.356 C  
BRANCH  10  11
HETATM   11  C   UNL     1     -11.253  10.142  70.836  1.00  0.00    -0.307 C  
BRANCH  11  12
HETATM   12  N   UNL     1     -10.033  10.256  70.017  1.00  0.00    -0.420 NA 
HETATM   13  H   UNL     1      -9.462   9.413  70.085  1.00  0.00     0.000 HD 
BRANCH  12  14
HETATM   14  C   UNL     1     -10.332  10.585  68.606  1.00  0.00    -0.185 C  
BRANCH  14  15
HETATM   15  C   UNL     1      -9.905   9.462  67.637  1.00  0.00    -0.174 C  
HETATM   16  O   UNL     1     -11.024   8.609  67.374  1.00  0.00    -0.464 OA 
HETATM   17  H   UNL     1     -10.761   7.918  66.778  1.00  0.00     0.000 HD 
BRANCH  15  18
HETATM   18  C   UNL     1      -9.360  10.062  66.334  1.00  0.00    -0.168 C  
BRANCH  18  19
HETATM   19  O   UNL     1      -9.488  11.480  66.336  1.00  0.00    -0.200 OA 
BRANCH  19  20
HETATM   20  C   UNL     1     -10.309  12.008  65.368  1.00  0.00    -0.266 A  
HETATM   21  C   UNL     1     -11.033  11.245  64.434  1.00  0.00    -0.331 A  
HETATM   22  C   UNL     1     -11.870  11.846  63.499  1.00  0.00    -0.560 A  
HETATM   23  C   UNL     1     -12.022  13.231  63.454  1.00  0.00    -0.491 A  
HETATM   24  C   UNL     1     -11.292  13.987  64.379  1.00  0.00    -0.319 A  
HETATM   25  C   UNL     1     -10.439  13.418  65.327  1.00  0.00    -0.334 A  
HETATM   26  C   UNL     1      -9.858  14.496  66.075  1.00  0.00    -0.342 A  
HETATM   27  C   UNL     1      -8.924  14.566  67.131  1.00  0.00    -0.244 A  
HETATM   28  C   UNL     1      -8.563  15.812  67.655  1.00  0.00    -0.173 A  
HETATM   29  C   UNL     1      -9.120  16.981  67.142  1.00  0.00    -0.232 A  
HETATM   30  C   UNL     1     -10.043  16.941  66.093  1.00  0.00    -0.347 A  
HETATM   31  C   UNL     1     -10.387  15.683  65.580  1.00  0.00    -0.396 A  
HETATM   32  N   UNL     1     -11.245  15.350  64.562  1.00  0.00    -0.685 NA 
HETATM   33  H   UNL     1     -11.778  16.025  64.013  1.00  0.00     0.000 HD 
ENDBRANCH  19  20
ENDBRANCH  18  19
ENDBRANCH  15  18
ENDBRANCH  14  15
ENDBRANCH  12  14
ENDBRANCH  11  12
ENDBRANCH  10  11
ENDBRANCH   9  10
ENDBRANCH   8   9
ENDBRANCH   2   3
TORSDOF 10
ENDMDL
MODEL       11
REMARK 921   NORMALIZED FREE ENERGY PREDICTED BY IDOCK:   -6.63 KCAL/MOL
REMARK 922        TOTAL FREE ENERGY PREDICTED BY IDOCK:  -12.35 KCAL/MOL
REMARK 923 INTER-LIGAND FREE ENERGY PREDICTED BY IDOCK:  -10.58 KCAL/MOL
REMARK 924 INTRA-LIGAND FREE ENERGY PREDICTED BY IDOCK:   -1.77 KCAL/MOL
REMARK 927      BINDING AFFINITY PREDICTED BY RF-SCORE:    0.00 PKD
ROOT
HETATM    1  C   UNL     1     -13.337   9.636  71.348  1.00  0.00    -0.368 C  
HETATM    2  O   UNL     1     -12.435  10.191  70.393  1.00  0.00    -0.251 OA 
ENDROOT
BRANCH   2   3
HETATM    3  C   UNL     1     -11.114   9.850  70.539  1.00  0.00    -0.332 A  
HETATM    4  C   UNL     1     -10.679   9.055  71.613  1.00  0.00    -0.441 A  
HETATM    5  C   UNL     1      -9.344   8.671  71.727  1.00  0.00    -0.343 A  
HETATM    6  C   UNL     1      -8.417   9.098  70.786  1.00  0.00    -0.256 A  
HETATM    7  C   UNL     1      -8.825   9.929  69.745  1.00  0.00    -0.229 A  
HETATM    8  C   UNL     1     -10.165  10.324  69.612  1.00  0.00    -0.235 A  
BRANCH   8   9
HETATM    9  O   UNL     1     -10.355  11.138  68.520  1.00  0.00    -0.178 OA 
BRANCH   9  10
HETATM   10  C   UNL     1      -9.819  10.697  67.279  1.00  0.00    -0.176 C  
BRANCH  10  11
HETATM   11  C   UNL     1      -9.070  11.848  66.586  1.00  0.00    -0.203 C  
BRANCH  11  12
HETATM   12  N   UNL     1      -9.656  12.247  65.293  1.00  0.00    -0.438 NA 
HETATM   13  H   UNL     1      -9.088  11.916  64.513  1.00  0.00     0.000 HD 
BRANCH  12  14
HETATM   14  C   UNL     1     -11.061  11.807  65.154  1.00  0.00    -0.282 C  
BRANCH  14  15
HETATM   15  C   UNL     1     -11.947  12.874  64.476  1.00  0.00    -0.395 C  
HETATM   16  O   UNL     1     -12.937  12.227  63.670  1.00  0.00    -0.777 OA 
HETATM   17  H   UNL     1     -13.483  12.884  63.253  1.00  0.00     0.000 HD 
BRANCH  15  18
HETATM   18  C   UNL     1     -12.605  13.769  65.533  1.00  0.00    -0.512 C  
BRANCH  18  19
HETATM   19  O   UNL     1     -11.788  13.869  66.695  1.00  0.00    -0.374 OA 
BRANCH  19  20
HETATM   20  C   UNL     1     -11.231  15.103  66.930  1.00  0.00    -0.292 A  
HETATM   21  C   UNL     1     -10.655  15.921  65.939  1.00  0.00    -0.348 A  
HETATM   22  C   UNL     1     -10.135  17.174  66.244  1.00  0.00    -0.329 A  
HETATM   23  C   UNL     1     -10.166  17.669  67.547  1.00  0.00    -0.348 A  
HETATM   24  C   UNL     1     -10.732  16.849  68.532  1.00  0.00    -0.359 A  
HETATM   25  C   UNL     1     -11.257  15.584  68.262  1.00  0.00    -0.343 A  
HETATM   26  C   UNL     1     -11.721  15.044  69.508  1.00  0.00    -0.350 A  
HETATM   27  C   UNL     1     -12.319  13.822  69.887  1.00  0.00    -0.334 A  
HETATM   28  C   UNL     1     -12.667  13.606  71.224  1.00  0.00    -0.443 A  
HETATM   29  C   UNL     1     -12.428  14.588  72.183  1.00  0.00    -0.371 A  
HETATM   30  C   UNL     1     -11.832  15.805  71.837  1.00  0.00    -0.568 A  
HETATM   31  C   UNL     1     -11.488  15.999  70.492  1.00  0.00    -0.389 A  
HETATM   32  N   UNL     1     -10.892  17.072  69.880  1.00  0.00    -0.311 NA 
HETATM   33  H   UNL     1     -10.606  17.925  70.361  1.00  0.00     0.000 HD 
ENDBRANCH  19  20
ENDBRANCH  18  19
ENDBRANCH  15  18
ENDBRANCH  14  15
ENDBRANCH  12  14
ENDBRANCH  11  12
ENDBRANCH  10  11
ENDBRANCH   9  10
ENDBRANCH   8   9
ENDBRANCH   2   3
TORSDOF 10
ENDMDL
MODEL       12
REMARK 921   NORMALIZED FREE ENERGY PREDICTED BY IDOCK:   -6.62 KCAL/MOL
REMARK 922        TOTAL FREE ENERGY PREDICTED BY IDOCK:  -12.34 KCAL/MOL
REMARK 923 INTER-LIGAND FREE ENERGY PREDICTED BY IDOCK:  -10.94 KCAL/MOL
REMARK 924 INTRA-LIGAND FREE ENERGY PREDICTED BY IDOCK:   -1.40 KCAL/MOL
REMARK 927      BINDING AFFINITY PREDICTED BY RF-SCORE:    0.00 PKD
ROOT
HETATM    1  C   UNL     1     -13.290   9.524  71.994  1.00  0.00    -0.452 C  
HETATM    2  O   UNL     1     -12.457   8.810  71.082  1.00  0.00    -0.280 OA 
ENDROOT
BRANCH   2   3
HETATM    3  C   UNL     1     -11.715   7.786  71.614  1.00  0.00    -0.280 A  
HETATM    4  C   UNL     1     -11.221   7.848  72.928  1.00  0.00    -0.429 A  
HETATM    5  C   UNL     1     -10.511   6.782  73.478  1.00  0.00    -0.356 A  
HETATM    6  C   UNL     1     -10.260   5.649  72.716  1.00  0.00    -0.213 A  
HETATM    7  C   UNL     1     -10.700   5.596  71.394  1.00  0.00    -0.310 A  
HETATM    8  C   UNL     1     -11.418   6.658  70.824  1.00  0.00    -0.353 A  
BRANCH   8   9
HETATM    9  O   UNL     1     -11.759   6.404  69.517  1.00  0.00    -0.366 OA 
BRANCH   9  10
HETATM   10  C   UNL     1     -10.720   5.977  68.645  1.00  0.00    -0.297 C  
BRANCH  10  11
HETATM   11  C   UNL     1      -9.952   7.193  68.098  1.00  0.00    -0.151 C  
BRANCH  11  12
HETATM   12  N   UNL     1     -10.824   8.277  67.611  1.00  0.00    -0.506 NA 
HETATM   13  H   UNL     1     -11.803   8.088  67.823  1.00  0.00     0.000 HD 
BRANCH  12  14
HETATM   14  C   UNL     1     -10.413   9.602  68.125  1.00  0.00    -0.222 C  
BRANCH  14  15
HETATM   15  C   UNL     1     -11.462  10.698  67.832  1.00  0.00    -0.181 C  
HETATM   16  O   UNL     1     -12.519  10.612  68.792  1.00  0.00    -0.795 OA 
HETATM   17  H   UNL     1     -13.164  11.287  68.612  1.00  0.00     0.000 HD 
BRANCH  15  18
HETATM   18  C   UNL     1     -10.805  12.084  67.865  1.00  0.00    -0.215 C  
BRANCH  18  19
HETATM   19  O   UNL     1     -11.785  13.113  67.774  1.00  0.00    -0.321 OA 
BRANCH  19  20
HETATM   20  C   UNL     1     -11.321  14.397  67.932  1.00  0.00    -0.301 A  
HETATM   21  C   UNL     1     -10.646  15.129  66.937  1.00  0.00    -0.297 A  
HETATM   22  C   UNL     1     -10.229  16.438  67.157  1.00  0.00    -0.282 A  
HETATM   23  C   UNL     1     -10.467  17.074  68.374  1.00  0.00    -0.370 A  
HETATM   24  C   UNL     1     -11.131  16.339  69.364  1.00  0.00    -0.328 A  
HETATM   25  C   UNL     1     -11.557  15.023  69.180  1.00  0.00    -0.333 A  
HETATM   26  C   UNL     1     -12.170  14.601  70.407  1.00  0.00    -0.391 A  
HETATM   27  C   UNL     1     -12.763  13.397  70.846  1.00  0.00    -0.349 A  
HETATM   28  C   UNL     1     -13.288  13.314  72.140  1.00  0.00    -0.618 A  
HETATM   29  C   UNL     1     -13.230  14.411  72.996  1.00  0.00    -0.547 A  
HETATM   30  C   UNL     1     -12.645  15.614  72.590  1.00  0.00    -0.532 A  
HETATM   31  C   UNL     1     -12.121  15.674  71.292  1.00  0.00    -0.411 A  
HETATM   32  N   UNL     1     -11.491  16.705  70.641  1.00  0.00    -0.451 NA 
HETATM   33  H   UNL     1     -11.313  17.622  71.050  1.00  0.00     0.000 HD 
ENDBRANCH  19  20
ENDBRANCH  18  19
ENDBRANCH  15  18
ENDBRANCH  14  15
ENDBRANCH  12  14
ENDBRANCH  11  12
ENDBRANCH  10  11
ENDBRANCH   9  10
ENDBRANCH   8   9
ENDBRANCH   2   3
TORSDOF 10
ENDMDL
MODEL       13
REMARK 921   NORMALIZED FREE ENERGY PREDICTED BY IDOCK:   -6.60 KCAL/MOL
REMARK 922        TOTAL FREE ENERGY PREDICTED BY IDOCK:  -12.31 KCAL/MOL
REMARK 923 INTER-LIGAND FREE ENERGY PREDICTED BY IDOCK:  -10.98 KCAL/MOL
REMARK 924 INTRA-LIGAND FREE ENERGY PREDICTED BY IDOCK:   -1.33 KCAL/MOL
REMARK 927      BINDING AFFINITY PREDICTED BY RF-SCORE:    0.00 PKD
ROOT
HETATM    1  C   UNL     1      -5.778  19.794  67.376  1.00  0.00    -0.173 C  
HETATM    2  O   UNL     1      -6.893  19.787  68.264  1.00  0.00    -0.271 OA 
ENDROOT
BRANCH   2   3
HETATM    3  C   UNL     1      -8.094  19.399  67.726  1.00  0.00    -0.291 A  
HETATM    4  C   UNL     1      -8.978  20.334  67.162  1.00  0.00    -0.469 A  
HETATM    5  C   UNL     1     -10.174  19.926  66.571  1.00  0.00    -0.611 A  
HETATM    6  C   UNL     1     -10.517  18.581  66.559  1.00  0.00    -0.435 A  
HETATM    7  C   UNL     1      -9.673  17.649  67.160  1.00  0.00    -0.291 A  
HETATM    8  C   UNL     1      -8.465  18.040  67.757  1.00  0.00    -0.247 A  
BRANCH   8   9
HETATM    9  O   UNL     1      -7.784  16.970  68.287  1.00  0.00    -0.193 OA 
BRANCH   9  10
HETATM   10  C   UNL     1      -8.554  15.846  68.694  1.00  0.00    -0.198 C  
BRANCH  10  11
HETATM   11  C   UNL     1      -8.025  14.568  68.021  1.00  0.00    -0.135 C  
BRANCH  11  12
HETATM   12  N   UNL     1      -8.821  14.134  66.859  1.00  0.00    -0.318 NA 
HETATM   13  H   UNL     1      -8.221  13.876  66.076  1.00  0.00     0.000 HD 
BRANCH  12  14
HETATM   14  C   UNL     1      -9.757  13.039  67.197  1.00  0.00    -0.230 C  
BRANCH  14  15
HETATM   15  C   UNL     1     -11.195  13.324  66.712  1.00  0.00    -0.304 C  
HETATM   16  O   UNL     1     -11.845  12.088  66.398  1.00  0.00    -0.578 OA 
HETATM   17  H   UNL     1     -12.730  12.264  66.100  1.00  0.00     0.000 HD 
BRANCH  15  18
HETATM   18  C   UNL     1     -11.976  14.093  67.785  1.00  0.00    -0.354 C  
BRANCH  18  19
HETATM   19  O   UNL     1     -11.360  13.952  69.061  1.00  0.00    -0.253 OA 
BRANCH  19  20
HETATM   20  C   UNL     1     -12.175  14.168  70.146  1.00  0.00    -0.351 A  
HETATM   21  C   UNL     1     -12.664  15.428  70.538  1.00  0.00    -0.455 A  
HETATM   22  C   UNL     1     -13.512  15.570  71.632  1.00  0.00    -0.584 A  
HETATM   23  C   UNL     1     -13.908  14.465  72.383  1.00  0.00    -0.595 A  
HETATM   24  C   UNL     1     -13.412  13.214  71.996  1.00  0.00    -0.507 A  
HETATM   25  C   UNL     1     -12.556  13.036  70.907  1.00  0.00    -0.364 A  
HETATM   26  C   UNL     1     -12.249  11.636  70.835  1.00  0.00    -0.401 A  
HETATM   27  C   UNL     1     -11.439  10.851  69.985  1.00  0.00    -0.411 A  
HETATM   28  C   UNL     1     -11.358   9.469  70.187  1.00  0.00    -0.241 A  
HETATM   29  C   UNL     1     -12.071   8.864  71.219  1.00  0.00    -0.360 A  
HETATM   30  C   UNL     1     -12.877   9.618  72.079  1.00  0.00    -0.497 A  
HETATM   31  C   UNL     1     -12.940  11.001  71.862  1.00  0.00    -0.380 A  
HETATM   32  N   UNL     1     -13.630  11.970  72.544  1.00  0.00    -0.482 NA 
HETATM   33  H   UNL     1     -14.226  11.793  73.352  1.00  0.00     0.000 HD 
ENDBRANCH  19  20
ENDBRANCH  18  19
ENDBRANCH  15  18
ENDBRANCH  14  15
ENDBRANCH  12  14
ENDBRANCH  11  12
ENDBRANCH  10  11
ENDBRANCH   9  10
ENDBRANCH   8   9
ENDBRANCH   2   3
TORSDOF 10
ENDMDL
MODEL       14
REMARK 921   NORMALIZED FREE ENERGY PREDICTED BY IDOCK:   -6.60 KCAL/MOL
REMARK 922        TOTAL FREE ENERGY PREDICTED BY IDOCK:  -12.30 KCAL/MOL
REMARK 923 INTER-LIGAND FREE ENERGY PREDICTED BY IDOCK:   -9.85 KCAL/MOL
REMARK 924 INTRA-LIGAND FREE ENERGY PREDICTED BY IDOCK:   -2.45 KCAL/MOL
REMARK 927      BINDING AFFINITY PREDICTED BY RF-SCORE:    0.00 PKD
ROOT
HETATM    1  C   UNL     1     -10.041  18.970  66.420  1.00  0.00    -0.415 C  
HETATM    2  O   UNL     1     -10.851  18.009  67.094  1.00  0.00    -0.312 OA 
ENDROOT
BRANCH   2   3
HETATM    3  C   UNL     1     -10.266  16.795  67.349  1.00  0.00    -0.288 A  
HETATM    4  C   UNL     1      -9.471  16.151  66.387  1.00  0.00    -0.323 A  
HETATM    5  C   UNL     1      -8.837  14.942  66.671  1.00  0.00    -0.287 A  
HETATM    6  C   UNL     1      -9.012  14.344  67.912  1.00  0.00    -0.186 A  
HETATM    7  C   UNL     1      -9.839  14.947  68.858  1.00  0.00    -0.230 A  
HETATM    8  C   UNL     1     -10.482  16.164  68.591  1.00  0.00    -0.269 A  
BRANCH   8   9
HETATM    9  O   UNL     1     -11.247  16.586  69.652  1.00  0.00    -0.284 OA 
BRANCH   9  10
HETATM   10  C   UNL     1     -11.227  15.784  70.826  1.00  0.00    -0.375 C  
BRANCH  10  11
HETATM   11  C   UNL     1     -12.652  15.619  71.381  1.00  0.00    -0.457 C  
BRANCH  11  12
HETATM   12  N   UNL     1     -12.943  14.263  71.882  1.00  0.00    -0.333 NA 
HETATM   13  H   UNL     1     -13.880  14.211  72.282  1.00  0.00     0.000 HD 
BRANCH  12  14
HETATM   14  C   UNL     1     -12.746  13.227  70.845  1.00  0.00    -0.254 C  
BRANCH  14  15
HETATM   15  C   UNL     1     -12.540  11.821  71.450  1.00  0.00    -0.262 C  
HETATM   16  O   UNL     1     -13.647  11.502  72.298  1.00  0.00    -0.535 OA 
HETATM   17  H   UNL     1     -13.521  10.637  72.670  1.00  0.00     0.000 HD 
BRANCH  15  18
HETATM   18  C   UNL     1     -12.391  10.779  70.334  1.00  0.00    -0.353 C  
BRANCH  18  19
HETATM   19  O   UNL     1     -11.944  11.387  69.127  1.00  0.00    -0.321 OA 
BRANCH  19  20
HETATM   20  C   UNL     1     -11.120  10.618  68.339  1.00  0.00    -0.272 A  
HETATM   21  C   UNL     1     -10.462   9.453  68.773  1.00  0.00    -0.236 A  
HETATM   22  C   UNL     1      -9.666   8.706  67.911  1.00  0.00    -0.192 A  
HETATM   23  C   UNL     1      -9.491   9.086  66.581  1.00  0.00    -0.251 A  
HETATM   24  C   UNL     1     -10.141  10.251  66.156  1.00  0.00    -0.242 A  
HETATM   25  C   UNL     1     -10.942  11.028  66.995  1.00  0.00    -0.333 A  
HETATM   26  C   UNL     1     -11.413  12.139  66.219  1.00  0.00    -0.433 A  
HETATM   27  C   UNL     1     -12.227  13.258  66.501  1.00  0.00    -0.389 A  
HETATM   28  C   UNL     1     -12.510  14.182  65.490  1.00  0.00    -0.495 A  
HETATM   29  C   UNL     1     -11.994  14.004  64.208  1.00  0.00    -0.463 A  
HETATM   30  C   UNL     1     -11.182  12.908  63.902  1.00  0.00    -0.471 A  
HETATM   31  C   UNL     1     -10.908  11.997  64.931  1.00  0.00    -0.301 A  
HETATM   32  N   UNL     1     -10.146  10.856  64.920  1.00  0.00    -0.290 NA 
HETATM   33  H   UNL     1      -9.649  10.503  64.102  1.00  0.00     0.000 HD 
ENDBRANCH  19  20
ENDBRANCH  18  19
ENDBRANCH  15  18
ENDBRANCH  14  15
ENDBRANCH  12  14
ENDBRANCH  11  12
ENDBRANCH  10  11
ENDBRANCH   9  10
ENDBRANCH   8   9
ENDBRANCH   2   3
TORSDOF 10
ENDMDL
MODEL       15
REMARK 921   NORMALIZED FREE ENERGY PREDICTED BY IDOCK:   -6.59 KCAL/MOL
REMARK 922        TOTAL FREE ENERGY PREDICTED BY IDOCK:  -12.30 KCAL/MOL
REMARK 923 INTER-LIGAND FREE ENERGY PREDICTED BY IDOCK:  -11.42 KCAL/MOL
REMARK 924 INTRA-LIGAND FREE ENERGY PREDICTED BY IDOCK:   -0.87 KCAL/MOL
REMARK 927      BINDING AFFINITY PREDICTED BY RF-SCORE:    0.00 PKD
ROOT
HETATM    1  C   UNL     1     -10.463  19.910  66.787  1.00  0.00    -0.451 C  
HETATM    2  O   UNL     1      -9.248  19.906  66.040  1.00  0.00    -0.381 OA 
ENDROOT
BRANCH   2   3
HETATM    3  C   UNL     1      -8.122  19.508  66.716  1.00  0.00    -0.292 A  
HETATM    4  C   UNL     1      -7.442  20.383  67.580  1.00  0.00    -0.357 A  
HETATM    5  C   UNL     1      -6.329  19.956  68.302  1.00  0.00    -0.295 A  
HETATM    6  C   UNL     1      -5.861  18.657  68.152  1.00  0.00    -0.195 A  
HETATM    7  C   UNL     1      -6.497  17.795  67.260  1.00  0.00    -0.185 A  
HETATM    8  C   UNL     1      -7.620  18.205  66.527  1.00  0.00    -0.241 A  
BRANCH   8   9
HETATM    9  O   UNL     1      -8.094  17.206  65.710  1.00  0.00    -0.497 OA 
BRANCH   9  10
HETATM   10  C   UNL     1      -9.053  16.315  66.263  1.00  0.00    -0.331 C  
BRANCH  10  11
HETATM   11  C   UNL     1     -10.385  16.428  65.502  1.00  0.00    -0.313 C  
BRANCH  11  12
HETATM   12  N   UNL     1     -10.703  15.247  64.679  1.00  0.00    -0.612 NA 
HETATM   13  H   UNL     1     -10.007  15.111  63.946  1.00  0.00     0.000 HD 
BRANCH  12  14
HETATM   14  C   UNL     1     -10.868  14.023  65.493  1.00  0.00    -0.309 C  
BRANCH  14  15
HETATM   15  C   UNL     1     -12.081  14.109  66.445  1.00  0.00    -0.451 C  
HETATM   16  O   UNL     1     -13.286  13.923  65.696  1.00  0.00    -0.623 OA 
HETATM   17  H   UNL     1     -14.033  13.975  66.282  1.00  0.00     0.000 HD 
BRANCH  15  18
HETATM   18  C   UNL     1     -11.961  13.057  67.555  1.00  0.00    -0.306 C  
BRANCH  18  19
HETATM   19  O   UNL     1     -11.264  13.582  68.680  1.00  0.00    -0.249 OA 
BRANCH  19  20
HETATM   20  C   UNL     1     -12.046  13.943  69.752  1.00  0.00    -0.345 A  
HETATM   21  C   UNL     1     -12.477  15.256  70.018  1.00  0.00    -0.330 A  
HETATM   22  C   UNL     1     -13.292  15.545  71.107  1.00  0.00    -0.553 A  
HETATM   23  C   UNL     1     -13.714  14.542  71.977  1.00  0.00    -0.528 A  
HETATM   24  C   UNL     1     -13.275  13.238  71.714  1.00  0.00    -0.405 A  
HETATM   25  C   UNL     1     -12.452  12.913  70.635  1.00  0.00    -0.333 A  
HETATM   26  C   UNL     1     -12.200  11.502  70.704  1.00  0.00    -0.473 A  
HETATM   27  C   UNL     1     -11.441  10.601  69.927  1.00  0.00    -0.393 A  
HETATM   28  C   UNL     1     -11.408   9.245  70.271  1.00  0.00    -0.238 A  
HETATM   29  C   UNL     1     -12.120   8.781  71.375  1.00  0.00    -0.361 A  
HETATM   30  C   UNL     1     -12.876   9.652  72.165  1.00  0.00    -0.460 A  
HETATM   31  C   UNL     1     -12.891  11.006  71.805  1.00  0.00    -0.391 A  
HETATM   32  N   UNL     1     -13.527  12.068  72.394  1.00  0.00    -0.525 NA 
HETATM   33  H   UNL     1     -14.111  12.001  73.228  1.00  0.00     0.000 HD 
ENDBRANCH  19  20
ENDBRANCH  18  19
ENDBRANCH  15  18
ENDBRANCH  14  15
ENDBRANCH  12  14
ENDBRANCH  11  12
ENDBRANCH  10  11
ENDBRANCH   9  10
ENDBRANCH   8   9
ENDBRANCH   2   3
TORSDOF 10
ENDMDL
MODEL       16
REMARK 921   NORMALIZED FREE ENERGY PREDICTED BY IDOCK:   -6.57 KCAL/MOL
REMARK 922        TOTAL FREE ENERGY PREDICTED BY IDOCK:  -12.26 KCAL/MOL
REMARK 923 INTER-LIGAND FREE ENERGY PREDICTED BY IDOCK:  -10.96 KCAL/MOL
REMARK 924 INTRA-LIGAND FREE ENERGY PREDICTED BY IDOCK:   -1.30 KCAL/MOL
REMARK 927      BINDING AFFINITY PREDICTED BY RF-SCORE:    0.00 PKD
ROOT
HETATM    1  C   UNL     1      -6.523  17.505  68.766  1.00  0.00    -0.207 C  
HETATM    2  O   UNL     1      -7.499  18.477  69.136  1.00  0.00    -0.240 OA 
ENDROOT
BRANCH   2   3
HETATM    3  C   UNL     1      -8.335  18.907  68.137  1.00  0.00    -0.309 A  
HETATM    4  C   UNL     1      -7.860  19.697  67.077  1.00  0.00    -0.299 A  
HETATM    5  C   UNL     1      -8.704  20.088  66.039  1.00  0.00    -0.246 A  
HETATM    6  C   UNL     1     -10.042  19.718  66.057  1.00  0.00    -0.574 A  
HETATM    7  C   UNL     1     -10.538  18.977  67.129  1.00  0.00    -0.545 A  
HETATM    8  C   UNL     1      -9.703  18.573  68.181  1.00  0.00    -0.339 A  
BRANCH   8   9
HETATM    9  O   UNL     1     -10.386  17.852  69.132  1.00  0.00    -0.340 OA 
BRANCH   9  10
HETATM   10  C   UNL     1     -10.185  16.445  69.150  1.00  0.00    -0.280 C  
BRANCH  10  11
HETATM   11  C   UNL     1     -10.935  15.786  67.981  1.00  0.00    -0.330 C  
BRANCH  11  12
HETATM   12  N   UNL     1     -10.058  15.060  67.044  1.00  0.00    -0.241 NA 
HETATM   13  H   UNL     1     -10.308  14.073  66.994  1.00  0.00     0.000 HD 
BRANCH  12  14
HETATM   14  C   UNL     1     -10.043  15.675  65.698  1.00  0.00    -0.365 C  
BRANCH  14  15
HETATM   15  C   UNL     1     -11.445  15.714  65.053  1.00  0.00    -0.175 C  
HETATM   16  O   UNL     1     -11.452  16.670  63.989  1.00  0.00    -1.523 OA 
HETATM   17  H   UNL     1     -12.315  16.694  63.592  1.00  0.00     0.000 HD 
BRANCH  15  18
HETATM   18  C   UNL     1     -11.832  14.322  64.538  1.00  0.00    -0.442 C  
BRANCH  18  19
HETATM   19  O   UNL     1     -11.720  13.349  65.571  1.00  0.00    -0.319 OA 
BRANCH  19  20
HETATM   20  C   UNL     1     -11.032  12.205  65.242  1.00  0.00    -0.304 A  
HETATM   21  C   UNL     1     -10.560  11.900  63.952  1.00  0.00    -0.444 A  
HETATM   22  C   UNL     1      -9.844  10.735  63.697  1.00  0.00    -0.406 A  
HETATM   23  C   UNL     1      -9.566   9.825  64.715  1.00  0.00    -0.284 A  
HETATM   24  C   UNL     1     -10.045  10.127  65.996  1.00  0.00    -0.248 A  
HETATM   25  C   UNL     1     -10.772  11.283  66.286  1.00  0.00    -0.312 A  
HETATM   26  C   UNL     1     -11.104  11.235  67.681  1.00  0.00    -0.336 A  
HETATM   27  C   UNL     1     -11.829  12.082  68.547  1.00  0.00    -0.369 A  
HETATM   28  C   UNL     1     -11.968  11.739  69.896  1.00  0.00    -0.405 A  
HETATM   29  C   UNL     1     -11.396  10.569  70.389  1.00  0.00    -0.411 A  
HETATM   30  C   UNL     1     -10.678   9.709  69.552  1.00  0.00    -0.252 A  
HETATM   31  C   UNL     1     -10.554  10.069  68.204  1.00  0.00    -0.227 A  
HETATM   32  N   UNL     1      -9.924   9.422  67.172  1.00  0.00    -0.190 NA 
HETATM   33  H   UNL     1      -9.431   8.533  67.263  1.00  0.00     0.000 HD 
ENDBRANCH  19  20
ENDBRANCH  18  19
ENDBRANCH  15  18
ENDBRANCH  14  15
ENDBRANCH  12  14
ENDBRANCH  11  12
ENDBRANCH  10  11
ENDBRANCH   9  10
ENDBRANCH   8   9
ENDBRANCH   2   3
TORSDOF 10
ENDMDL
MODEL       17
REMARK 921   NORMALIZED FREE ENERGY PREDICTED BY IDOCK:   -6.57 KCAL/MOL
REMARK 922        TOTAL FREE ENERGY PREDICTED BY IDOCK:  -12.26 KCAL/MOL
REMARK 923 INTER-LIGAND FREE ENERGY PREDICTED BY IDOCK:  -10.01 KCAL/MOL
REMARK 924 INTRA-LIGAND FREE ENERGY PREDICTED BY IDOCK:   -2.25 KCAL/MOL
REMARK 927      BINDING AFFINITY PREDICTED BY RF-SCORE:    0.00 PKD
ROOT
HETATM    1  C   UNL     1      -8.096   8.301  70.316  1.00  0.00    -0.104 C  
HETATM    2  O   UNL     1      -9.176   9.014  69.716  1.00  0.00    -0.154 OA 
ENDROOT
BRANCH   2   3
HETATM    3  C   UNL     1      -9.140   9.128  68.349  1.00  0.00    -0.132 A  
HETATM    4  C   UNL     1      -8.171   9.918  67.708  1.00  0.00    -0.114 A  
HETATM    5  C   UNL     1      -8.109   9.990  66.317  1.00  0.00    -0.117 A  
HETATM    6  C   UNL     1      -9.031   9.296  65.545  1.00  0.00    -0.251 A  
HETATM    7  C   UNL     1     -10.029   8.550  66.170  1.00  0.00    -0.160 A  
HETATM    8  C   UNL     1     -10.106   8.464  67.568  1.00  0.00    -0.218 A  
BRANCH   8   9
HETATM    9  O   UNL     1     -11.158   7.679  67.978  1.00  0.00     0.044 OA 
BRANCH   9  10
HETATM   10  C   UNL     1     -10.841   6.448  68.615  1.00  0.00    -0.314 C  
BRANCH  10  11
HETATM   11  C   UNL     1     -11.413   6.426  70.042  1.00  0.00    -0.428 C  
BRANCH  11  12
HETATM   12  N   UNL     1     -11.888   7.739  70.514  1.00  0.00    -0.479 NA 
HETATM   13  H   UNL     1     -12.163   8.335  69.733  1.00  0.00     0.000 HD 
BRANCH  12  14
HETATM   14  C   UNL     1     -12.981   7.619  71.504  1.00  0.00    -0.341 C  
BRANCH  14  15
HETATM   15  C   UNL     1     -13.488   8.995  71.990  1.00  0.00    -0.442 C  
HETATM   16  O   UNL     1     -13.852   8.906  73.371  1.00  0.00    -1.192 OA 
HETATM   17  H   UNL     1     -14.164   9.753  73.670  1.00  0.00     0.000 HD 
BRANCH  15  18
HETATM   18  C   UNL     1     -12.409  10.064  71.778  1.00  0.00    -0.345 C  
BRANCH  18  19
HETATM   19  O   UNL     1     -12.766  10.944  70.718  1.00  0.00    -0.342 OA 
BRANCH  19  20
HETATM   20  C   UNL     1     -12.853  12.276  71.049  1.00  0.00    -0.160 A  
HETATM   21  C   UNL     1     -13.344  12.762  72.275  1.00  0.00    -0.563 A  
HETATM   22  C   UNL     1     -13.376  14.124  72.555  1.00  0.00    -0.616 A  
HETATM   23  C   UNL     1     -12.919  15.060  71.628  1.00  0.00    -0.432 A  
HETATM   24  C   UNL     1     -12.439  14.572  70.406  1.00  0.00    -0.347 A  
HETATM   25  C   UNL     1     -12.399  13.213  70.090  1.00  0.00    -0.284 A  
HETATM   26  C   UNL     1     -11.871  13.104  68.760  1.00  0.00    -0.361 A  
HETATM   27  C   UNL     1     -11.612  12.021  67.893  1.00  0.00    -0.405 A  
HETATM   28  C   UNL     1     -11.072  12.262  66.625  1.00  0.00    -0.344 A  
HETATM   29  C   UNL     1     -10.789  13.562  66.214  1.00  0.00    -0.291 A  
HETATM   30  C   UNL     1     -11.040  14.654  67.051  1.00  0.00    -0.333 A  
HETATM   31  C   UNL     1     -11.585  14.391  68.315  1.00  0.00    -0.328 A  
HETATM   32  N   UNL     1     -11.936  15.254  69.322  1.00  0.00    -0.458 NA 
HETATM   33  H   UNL     1     -11.837  16.268  69.273  1.00  0.00     0.000 HD 
ENDBRANCH  19  20
ENDBRANCH  18  19
ENDBRANCH  15  18
ENDBRANCH  14  15
ENDBRANCH  12  14
ENDBRANCH  11  12
ENDBRANCH  10  11
ENDBRANCH   9  10
ENDBRANCH   8   9
ENDBRANCH   2   3
TORSDOF 10
ENDMDL
MODEL       18
REMARK 921   NORMALIZED FREE ENERGY PREDICTED BY IDOCK:   -6.55 KCAL/MOL
REMARK 922        TOTAL FREE ENERGY PREDICTED BY IDOCK:  -12.23 KCAL/MOL
REMARK 923 INTER-LIGAND FREE ENERGY PREDICTED BY IDOCK:  -10.67 KCAL/MOL
REMARK 924 INTRA-LIGAND FREE ENERGY PREDICTED BY IDOCK:   -1.56 KCAL/MOL
REMARK 927      BINDING AFFINITY PREDICTED BY RF-SCORE:    0.00 PKD
ROOT
HETATM    1  C   UNL     1     -10.467  18.252  66.029  1.00  0.00    -0.361 C  
HETATM    2  O   UNL     1      -9.926  17.057  65.471  1.00  0.00    -0.567 OA 
ENDROOT
BRANCH   2   3
HETATM    3  C   UNL     1     -10.750  15.960  65.474  1.00  0.00    -0.372 A  
HETATM    4  C   UNL     1     -11.530  15.630  64.354  1.00  0.00    -0.266 A  
HETATM    5  C   UNL     1     -12.327  14.485  64.345  1.00  0.00    -0.437 A  
HETATM    6  C   UNL     1     -12.378  13.668  65.467  1.00  0.00    -0.519 A  
HETATM    7  C   UNL     1     -11.648  14.012  66.604  1.00  0.00    -0.400 A  
HETATM    8  C   UNL     1     -10.839  15.158  66.630  1.00  0.00    -0.318 A  
BRANCH   8   9
HETATM    9  O   UNL     1     -10.206  15.313  67.840  1.00  0.00    -0.232 OA 
BRANCH   9  10
HETATM   10  C   UNL     1      -8.788  15.213  67.849  1.00  0.00    -0.166 C  
BRANCH  10  11
HETATM   11  C   UNL     1      -8.353  13.800  67.425  1.00  0.00    -0.193 C  
BRANCH  11  12
HETATM   12  N   UNL     1      -8.242  12.849  68.546  1.00  0.00    -0.291 NA 
HETATM   13  H   UNL     1      -8.978  13.004  69.235  1.00  0.00     0.000 HD 
BRANCH  12  14
HETATM   14  C   UNL     1      -8.225  11.442  68.089  1.00  0.00    -0.143 C  
BRANCH  14  15
HETATM   15  C   UNL     1      -9.387  11.124  67.123  1.00  0.00    -0.165 C  
HETATM   16  O   UNL     1      -9.014  10.034  66.274  1.00  0.00    -0.144 OA 
HETATM   17  H   UNL     1      -9.729   9.838  65.680  1.00  0.00     0.000 HD 
BRANCH  15  18
HETATM   18  C   UNL     1     -10.659  10.789  67.912  1.00  0.00    -0.221 C  
BRANCH  18  19
HETATM   19  O   UNL     1     -10.573  11.281  69.246  1.00  0.00    -0.212 OA 
BRANCH  19  20
HETATM   20  C   UNL     1     -11.369  10.646  70.169  1.00  0.00    -0.323 A  
HETATM   21  C   UNL     1     -11.361   9.259  70.410  1.00  0.00    -0.283 A  
HETATM   22  C   UNL     1     -12.174   8.687  71.384  1.00  0.00    -0.348 A  
HETATM   23  C   UNL     1     -13.029   9.469  72.158  1.00  0.00    -0.497 A  
HETATM   24  C   UNL     1     -13.040  10.847  71.909  1.00  0.00    -0.432 A  
HETATM   25  C   UNL     1     -12.243  11.454  70.937  1.00  0.00    -0.447 A  
HETATM   26  C   UNL     1     -12.542  12.857  70.960  1.00  0.00    -0.376 A  
HETATM   27  C   UNL     1     -12.088  13.970  70.219  1.00  0.00    -0.425 A  
HETATM   28  C   UNL     1     -12.591  15.244  70.504  1.00  0.00    -0.450 A  
HETATM   29  C   UNL     1     -13.534  15.421  71.513  1.00  0.00    -0.601 A  
HETATM   30  C   UNL     1     -14.004  14.336  72.260  1.00  0.00    -0.629 A  
HETATM   31  C   UNL     1     -13.491  13.068  71.956  1.00  0.00    -0.492 A  
HETATM   32  N   UNL     1     -13.774  11.846  72.509  1.00  0.00    -0.362 NA 
HETATM   33  H   UNL     1     -14.441  11.696  73.267  1.00  0.00     0.000 HD 
ENDBRANCH  19  20
ENDBRANCH  18  19
ENDBRANCH  15  18
ENDBRANCH  14  15
ENDBRANCH  12  14
ENDBRANCH  11  12
ENDBRANCH  10  11
ENDBRANCH   9  10
ENDBRANCH   8   9
ENDBRANCH   2   3
TORSDOF 10
ENDMDL
MODEL       19
REMARK 921   NORMALIZED FREE ENERGY PREDICTED BY IDOCK:   -6.55 KCAL/MOL
REMARK 922        TOTAL FREE ENERGY PREDICTED BY IDOCK:  -12.23 KCAL/MOL
REMARK 923 INTER-LIGAND FREE ENERGY PREDICTED BY IDOCK:  -11.27 KCAL/MOL
REMARK 924 INTRA-LIGAND FREE ENERGY PREDICTED BY IDOCK:   -0.96 KCAL/MOL
REMARK 927      BINDING AFFINITY PREDICTED BY RF-SCORE:    0.00 PKD
ROOT
HETATM    1  C   UNL     1     -10.868  19.297  67.302  1.00  0.00    -0.449 C  
HETATM    2  O   UNL     1      -9.746  19.699  66.520  1.00  0.00    -0.343 OA 
ENDROOT
BRANCH   2   3
HETATM    3  C   UNL     1      -8.518  19.271  66.957  1.00  0.00    -0.284 A  
HETATM    4  C   UNL     1      -7.739  20.053  67.826  1.00  0.00    -0.327 A  
HETATM    5  C   UNL     1      -6.515  19.589  68.306  1.00  0.00    -0.280 A  
HETATM    6  C   UNL     1      -6.037  18.349  67.904  1.00  0.00    -0.180 A  
HETATM    7  C   UNL     1      -6.777  17.586  67.002  1.00  0.00    -0.209 A  
HETATM    8  C   UNL     1      -8.011  18.034  66.510  1.00  0.00    -0.263 A  
BRANCH   8   9
HETATM    9  O   UNL     1      -8.576  17.134  65.638  1.00  0.00    -0.470 OA 
BRANCH   9  10
HETATM   10  C   UNL     1      -8.863  15.835  66.141  1.00  0.00    -0.311 C  
BRANCH  10  11
HETATM   11  C   UNL     1     -10.236  15.361  65.634  1.00  0.00    -0.376 C  
BRANCH  11  12
HETATM   12  N   UNL     1     -10.211  14.027  65.008  1.00  0.00    -0.520 NA 
HETATM   13  H   UNL     1      -9.547  13.994  64.235  1.00  0.00     0.000 HD 
BRANCH  12  14
HETATM   14  C   UNL     1      -9.942  12.952  65.988  1.00  0.00    -0.272 C  
BRANCH  14  15
HETATM   15  C   UNL     1     -11.202  12.557  66.789  1.00  0.00    -0.296 C  
HETATM   16  O   UNL     1     -12.317  12.449  65.898  1.00  0.00    -0.638 OA 
HETATM   17  H   UNL     1     -13.092  12.206  66.391  1.00  0.00     0.000 HD 
BRANCH  15  18
HETATM   18  C   UNL     1     -10.968  11.236  67.531  1.00  0.00    -0.265 C  
BRANCH  18  19
HETATM   19  O   UNL     1     -10.615  11.472  68.891  1.00  0.00    -0.209 OA 
BRANCH  19  20
HETATM   20  C   UNL     1     -11.328  10.760  69.826  1.00  0.00    -0.300 A  
HETATM   21  C   UNL     1     -11.258   9.364  69.989  1.00  0.00    -0.217 A  
HETATM   22  C   UNL     1     -11.987   8.712  70.979  1.00  0.00    -0.278 A  
HETATM   23  C   UNL     1     -12.816   9.420  71.847  1.00  0.00    -0.497 A  
HETATM   24  C   UNL     1     -12.890  10.808  71.675  1.00  0.00    -0.457 A  
HETATM   25  C   UNL     1     -12.177  11.494  70.690  1.00  0.00    -0.473 A  
HETATM   26  C   UNL     1     -12.521  12.882  70.809  1.00  0.00    -0.370 A  
HETATM   27  C   UNL     1     -12.153  14.048  70.102  1.00  0.00    -0.419 A  
HETATM   28  C   UNL     1     -12.679  15.286  70.487  1.00  0.00    -0.440 A  
HETATM   29  C   UNL     1     -13.560  15.375  71.562  1.00  0.00    -0.604 A  
HETATM   30  C   UNL     1     -13.945  14.236  72.277  1.00  0.00    -0.629 A  
HETATM   31  C   UNL     1     -13.410  13.005  71.871  1.00  0.00    -0.446 A  
HETATM   32  N   UNL     1     -13.616  11.746  72.374  1.00  0.00    -0.449 NA 
HETATM   33  H   UNL     1     -14.227  11.532  73.162  1.00  0.00     0.000 HD 
ENDBRANCH  19  20
ENDBRANCH  18  19
ENDBRANCH  15  18
ENDBRANCH  14  15
ENDBRANCH  12  14
ENDBRANCH  11  12
ENDBRANCH  10  11
ENDBRANCH   9  10
ENDBRANCH   8   9
ENDBRANCH   2   3
TORSDOF 10
ENDMDL
MODEL       20
REMARK 921   NORMALIZED FREE ENERGY PREDICTED BY IDOCK:   -6.51 KCAL/MOL
REMARK 922        TOTAL FREE ENERGY PREDICTED BY IDOCK:  -12.17 KCAL/MOL
REMARK 923 INTER-LIGAND FREE ENERGY PREDICTED BY IDOCK:   -9.99 KCAL/MOL
REMARK 924 INTRA-LIGAND FREE ENERGY PREDICTED BY IDOCK:   -2.17 KCAL/MOL
REMARK 927      BINDING AFFINITY PREDICTED BY RF-SCORE:    0.00 PKD
ROOT
HETATM    1  C   UNL     1      -6.539  11.866  67.152  1.00  0.00    -0.148 C  
HETATM    2  O   UNL     1      -7.879  11.714  66.688  1.00  0.00    -0.149 OA 
ENDROOT
BRANCH   2   3
HETATM    3  C   UNL     1      -8.434  10.468  66.838  1.00  0.00    -0.125 A  
HETATM    4  C   UNL     1      -7.740   9.433  67.486  1.00  0.00    -0.091 A  
HETATM    5  C   UNL     1      -8.330   8.184  67.679  1.00  0.00    -0.127 A  
HETATM    6  C   UNL     1      -9.611   7.942  67.202  1.00  0.00    -0.222 A  
HETATM    7  C   UNL     1     -10.291   8.944  66.512  1.00  0.00    -0.267 A  
HETATM    8  C   UNL     1      -9.715  10.208  66.311  1.00  0.00    -0.218 A  
BRANCH   8   9
HETATM    9  O   UNL     1     -10.549  11.048  65.612  1.00  0.00    -0.252 OA 
BRANCH   9  10
HETATM   10  C   UNL     1     -10.149  11.413  64.297  1.00  0.00    -0.297 C  
BRANCH  10  11
HETATM   11  C   UNL     1     -10.171  12.944  64.142  1.00  0.00    -0.286 C  
BRANCH  11  12
HETATM   12  N   UNL     1      -9.916  13.673  65.397  1.00  0.00    -0.499 NA 
HETATM   13  H   UNL     1      -8.967  14.047  65.420  1.00  0.00     0.000 HD 
BRANCH  12  14
HETATM   14  C   UNL     1     -10.914  14.737  65.641  1.00  0.00    -0.344 C  
BRANCH  14  15
HETATM   15  C   UNL     1     -11.877  14.386  66.797  1.00  0.00    -0.410 C  
HETATM   16  O   UNL     1     -11.902  12.967  66.979  1.00  0.00    -0.371 OA 
HETATM   17  H   UNL     1     -12.494  12.751  67.691  1.00  0.00     0.000 HD 
BRANCH  15  18
HETATM   18  C   UNL     1     -11.441  15.094  68.085  1.00  0.00    -0.342 C  
BRANCH  18  19
HETATM   19  O   UNL     1     -11.257  14.158  69.142  1.00  0.00    -0.252 OA 
BRANCH  19  20
HETATM   20  C   UNL     1     -12.148  14.249  70.185  1.00  0.00    -0.339 A  
HETATM   21  C   UNL     1     -12.720  15.451  70.642  1.00  0.00    -0.490 A  
HETATM   22  C   UNL     1     -13.641  15.466  71.685  1.00  0.00    -0.603 A  
HETATM   23  C   UNL     1     -14.032  14.286  72.316  1.00  0.00    -0.629 A  
HETATM   24  C   UNL     1     -13.453  13.094  71.864  1.00  0.00    -0.424 A  
HETATM   25  C   UNL     1     -12.523  13.043  70.825  1.00  0.00    -0.384 A  
HETATM   26  C   UNL     1     -12.146  11.668  70.662  1.00  0.00    -0.432 A  
HETATM   27  C   UNL     1     -11.248  10.991  69.808  1.00  0.00    -0.339 A  
HETATM   28  C   UNL     1     -11.115   9.601  69.904  1.00  0.00    -0.268 A  
HETATM   29  C   UNL     1     -11.862   8.884  70.834  1.00  0.00    -0.283 A  
HETATM   30  C   UNL     1     -12.756   9.529  71.695  1.00  0.00    -0.478 A  
HETATM   31  C   UNL     1     -12.870  10.921  71.586  1.00  0.00    -0.449 A  
HETATM   32  N   UNL     1     -13.647  11.801  72.296  1.00  0.00    -0.475 NA 
HETATM   33  H   UNL     1     -14.284  11.532  73.046  1.00  0.00     0.000 HD 
ENDBRANCH  19  20
ENDBRANCH  18  19
ENDBRANCH  15  18
ENDBRANCH  14  15
ENDBRANCH  12  14
ENDBRANCH  11  12
ENDBRANCH  10  11
ENDBRANCH   9  10
ENDBRANCH   8   9
ENDBRANCH   2   3
TORSDOF 10
ENDMDL
MODEL       21
REMARK 921   NORMALIZED FREE ENERGY PREDICTED BY IDOCK:   -6.48 KCAL/MOL
REMARK 922        TOTAL FREE ENERGY PREDICTED BY IDOCK:  -12.12 KCAL/MOL
REMARK 923 INTER-LIGAND FREE ENERGY PREDICTED BY IDOCK:  -10.48 KCAL/MOL
REMARK 924 INTRA-LIGAND FREE ENERGY PREDICTED BY IDOCK:   -1.64 KCAL/MOL
REMARK 927      BINDING AFFINITY PREDICTED BY RF-SCORE:    0.00 PKD
ROOT
HETATM    1  C   UNL     1      -8.704  10.051  63.440  1.00  0.00    -0.222 C  
HETATM    2  O   UNL     1      -9.683   9.981  64.474  1.00  0.00    -0.310 OA 
ENDROOT
BRANCH   2   3
HETATM    3  C   UNL     1     -10.502  11.073  64.608  1.00  0.00    -0.329 A  
HETATM    4  C   UNL     1     -11.357  11.476  63.568  1.00  0.00    -0.375 A  
HETATM    5  C   UNL     1     -12.223  12.557  63.729  1.00  0.00    -0.615 A  
HETATM    6  C   UNL     1     -12.229  13.269  64.921  1.00  0.00    -0.466 A  
HETATM    7  C   UNL     1     -11.350  12.911  65.942  1.00  0.00    -0.348 A  
HETATM    8  C   UNL     1     -10.473  11.825  65.799  1.00  0.00    -0.260 A  
BRANCH   8   9
HETATM    9  O   UNL     1      -9.697  11.640  66.918  1.00  0.00    -0.191 OA 
BRANCH   9  10
HETATM   10  C   UNL     1      -8.428  12.282  66.942  1.00  0.00    -0.159 C  
BRANCH  10  11
HETATM   11  C   UNL     1      -8.359  13.280  68.110  1.00  0.00    -0.161 C  
BRANCH  11  12
HETATM   12  N   UNL     1      -8.820  14.637  67.762  1.00  0.00    -0.171 NA 
HETATM   13  H   UNL     1      -9.663  14.604  67.188  1.00  0.00     0.000 HD 
BRANCH  12  14
HETATM   14  C   UNL     1      -9.021  15.486  68.956  1.00  0.00    -0.237 C  
BRANCH  14  15
HETATM   15  C   UNL     1     -10.232  16.432  68.809  1.00  0.00    -0.258 C  
HETATM   16  O   UNL     1      -9.983  17.362  67.751  1.00  0.00    -0.280 OA 
HETATM   17  H   UNL     1     -10.729  17.944  67.660  1.00  0.00     0.000 HD 
BRANCH  15  18
HETATM   18  C   UNL     1     -11.507  15.623  68.535  1.00  0.00    -0.375 C  
BRANCH  18  19
HETATM   19  O   UNL     1     -11.503  14.404  69.269  1.00  0.00    -0.253 OA 
BRANCH  19  20
HETATM   20  C   UNL     1     -12.361  14.349  70.342  1.00  0.00    -0.342 A  
HETATM   21  C   UNL     1     -13.033  15.460  70.884  1.00  0.00    -0.539 A  
HETATM   22  C   UNL     1     -13.911  15.326  71.954  1.00  0.00    -0.644 A  
HETATM   23  C   UNL     1     -14.159  14.082  72.531  1.00  0.00    -0.474 A  
HETATM   24  C   UNL     1     -13.481  12.980  71.994  1.00  0.00    -0.492 A  
HETATM   25  C   UNL     1     -12.589  13.078  70.925  1.00  0.00    -0.364 A  
HETATM   26  C   UNL     1     -12.083  11.760  70.674  1.00  0.00    -0.407 A  
HETATM   27  C   UNL     1     -11.154  11.223  69.756  1.00  0.00    -0.238 A  
HETATM   28  C   UNL     1     -10.879   9.852  69.769  1.00  0.00    -0.300 A  
HETATM   29  C   UNL     1     -11.517   9.014  70.681  1.00  0.00    -0.291 A  
HETATM   30  C   UNL     1     -12.438   9.518  71.604  1.00  0.00    -0.476 A  
HETATM   31  C   UNL     1     -12.694  10.895  71.577  1.00  0.00    -0.428 A  
HETATM   32  N   UNL     1     -13.529  11.653  72.358  1.00  0.00    -0.475 NA 
HETATM   33  H   UNL     1     -14.108  11.282  73.112  1.00  0.00     0.000 HD 
ENDBRANCH  19  20
ENDBRANCH  18  19
ENDBRANCH  15  18
ENDBRANCH  14  15
ENDBRANCH  12  14
ENDBRANCH  11  12
ENDBRANCH  10  11
ENDBRANCH   9  10
ENDBRANCH   8   9
ENDBRANCH   2   3
TORSDOF 10
ENDMDL
MODEL       22
REMARK 921   NORMALIZED FREE ENERGY PREDICTED BY IDOCK:   -6.47 KCAL/MOL
REMARK 922        TOTAL FREE ENERGY PREDICTED BY IDOCK:  -12.11 KCAL/MOL
REMARK 923 INTER-LIGAND FREE ENERGY PREDICTED BY IDOCK:  -10.41 KCAL/MOL
REMARK 924 INTRA-LIGAND FREE ENERGY PREDICTED BY IDOCK:   -1.69 KCAL/MOL
REMARK 927      BINDING AFFINITY PREDICTED BY RF-SCORE:    0.00 PKD
ROOT
HETATM    1  C   UNL     1     -11.312  16.136  68.953  1.00  0.00    -0.350 C  
HETATM    2  O   UNL     1     -11.237  14.934  69.715  1.00  0.00    -0.259 OA 
ENDROOT
BRANCH   2   3
HETATM    3  C   UNL     1     -11.846  14.957  70.945  1.00  0.00    -0.321 A  
HETATM    4  C   UNL     1     -11.813  16.105  71.753  1.00  0.00    -0.581 A  
HETATM    5  C   UNL     1     -12.477  16.139  72.979  1.00  0.00    -0.590 A  
HETATM    6  C   UNL     1     -13.160  15.016  73.428  1.00  0.00    -0.548 A  
HETATM    7  C   UNL     1     -13.157  13.854  72.659  1.00  0.00    -0.525 A  
HETATM    8  C   UNL     1     -12.497  13.802  71.422  1.00  0.00    -0.318 A  
BRANCH   8   9
HETATM    9  O   UNL     1     -12.618  12.570  70.826  1.00  0.00    -0.304 OA 
BRANCH   9  10
HETATM   10  C   UNL     1     -13.146  11.513  71.619  1.00  0.00    -0.373 C  
BRANCH  10  11
HETATM   11  C   UNL     1     -12.896  10.159  70.933  1.00  0.00    -0.355 C  
BRANCH  11  12
HETATM   12  N   UNL     1     -11.504   9.686  71.039  1.00  0.00    -0.339 NA 
HETATM   13  H   UNL     1     -11.451   8.807  71.553  1.00  0.00     0.000 HD 
BRANCH  12  14
HETATM   14  C   UNL     1     -10.848   9.572  69.718  1.00  0.00    -0.243 C  
BRANCH  14  15
HETATM   15  C   UNL     1     -11.092  10.812  68.830  1.00  0.00    -0.253 C  
HETATM   16  O   UNL     1     -10.333  11.914  69.336  1.00  0.00    -0.427 OA 
HETATM   17  H   UNL     1     -10.483  12.677  68.790  1.00  0.00     0.000 HD 
BRANCH  15  18
HETATM   18  C   UNL     1     -10.710  10.508  67.376  1.00  0.00    -0.281 C  
BRANCH  18  19
HETATM   19  O   UNL     1     -10.041  11.617  66.784  1.00  0.00    -0.208 OA 
BRANCH  19  20
HETATM   20  C   UNL     1     -10.746  12.295  65.819  1.00  0.00    -0.263 A  
HETATM   21  C   UNL     1     -11.754  11.726  65.019  1.00  0.00    -0.174 A  
HETATM   22  C   UNL     1     -12.448  12.481  64.079  1.00  0.00    -0.527 A  
HETATM   23  C   UNL     1     -12.170  13.834  63.896  1.00  0.00    -0.402 A  
HETATM   24  C   UNL     1     -11.159  14.395  64.687  1.00  0.00    -0.354 A  
HETATM   25  C   UNL     1     -10.439  13.666  65.635  1.00  0.00    -0.304 A  
HETATM   26  C   UNL     1      -9.487  14.563  66.224  1.00  0.00    -0.310 A  
HETATM   27  C   UNL     1      -8.482  14.421  67.206  1.00  0.00    -0.229 A  
HETATM   28  C   UNL     1      -7.707  15.528  67.570  1.00  0.00    -0.195 A  
HETATM   29  C   UNL     1      -7.922  16.766  66.970  1.00  0.00    -0.231 A  
HETATM   30  C   UNL     1      -8.906  16.934  65.992  1.00  0.00    -0.194 A  
HETATM   31  C   UNL     1      -9.668  15.812  65.639  1.00  0.00    -0.297 A  
HETATM   32  N   UNL     1     -10.677  15.684  64.719  1.00  0.00    -0.660 NA 
HETATM   33  H   UNL     1     -11.025  16.444  64.135  1.00  0.00     0.000 HD 
ENDBRANCH  19  20
ENDBRANCH  18  19
ENDBRANCH  15  18
ENDBRANCH  14  15
ENDBRANCH  12  14
ENDBRANCH  11  12
ENDBRANCH  10  11
ENDBRANCH   9  10
ENDBRANCH   8   9
ENDBRANCH   2   3
TORSDOF 10
ENDMDL
MODEL       23
REMARK 921   NORMALIZED FREE ENERGY PREDICTED BY IDOCK:   -6.44 KCAL/MOL
REMARK 922        TOTAL FREE ENERGY PREDICTED BY IDOCK:  -12.05 KCAL/MOL
REMARK 923 INTER-LIGAND FREE ENERGY PREDICTED BY IDOCK:  -10.68 KCAL/MOL
REMARK 924 INTRA-LIGAND FREE ENERGY PREDICTED BY IDOCK:   -1.37 KCAL/MOL
REMARK 927      BINDING AFFINITY PREDICTED BY RF-SCORE:    0.00 PKD
ROOT
HETATM    1  C   UNL     1     -12.489  15.422  74.026  1.00  0.00    -0.642 C  
HETATM    2  O   UNL     1     -13.236  14.641  73.095  1.00  0.00    -0.507 OA 
ENDROOT
BRANCH   2   3
HETATM    3  C   UNL     1     -12.754  14.604  71.811  1.00  0.00    -0.336 A  
HETATM    4  C   UNL     1     -12.442  15.783  71.115  1.00  0.00    -0.490 A  
HETATM    5  C   UNL     1     -11.905  15.736  69.829  1.00  0.00    -0.352 A  
HETATM    6  C   UNL     1     -11.698  14.511  69.208  1.00  0.00    -0.350 A  
HETATM    7  C   UNL     1     -12.052  13.336  69.869  1.00  0.00    -0.377 A  
HETATM    8  C   UNL     1     -12.590  13.363  71.164  1.00  0.00    -0.345 A  
BRANCH   8   9
HETATM    9  O   UNL     1     -12.867  12.101  71.632  1.00  0.00    -0.359 OA 
BRANCH   9  10
HETATM   10  C   UNL     1     -12.434  11.004  70.838  1.00  0.00    -0.410 C  
BRANCH  10  11
HETATM   11  C   UNL     1     -12.615   9.686  71.610  1.00  0.00    -0.402 C  
BRANCH  11  12
HETATM   12  N   UNL     1     -11.597   8.667  71.294  1.00  0.00    -0.273 NA 
HETATM   13  H   UNL     1     -11.984   7.928  70.707  1.00  0.00     0.000 HD 
BRANCH  12  14
HETATM   14  C   UNL     1     -10.385   9.254  70.683  1.00  0.00    -0.263 C  
BRANCH  14  15
HETATM   15  C   UNL     1      -9.994   8.554  69.363  1.00  0.00    -0.194 C  
HETATM   16  O   UNL     1     -11.153   7.944  68.787  1.00  0.00    -0.416 OA 
HETATM   17  H   UNL     1     -10.912   7.514  67.975  1.00  0.00     0.000 HD 
BRANCH  15  18
HETATM   18  C   UNL     1      -9.370   9.564  68.391  1.00  0.00    -0.133 C  
BRANCH  18  19
HETATM   19  O   UNL     1     -10.277   9.887  67.342  1.00  0.00    -0.194 OA 
BRANCH  19  20
HETATM   20  C   UNL     1      -9.785   9.755  66.065  1.00  0.00    -0.255 A  
HETATM   21  C   UNL     1      -8.918   8.729  65.646  1.00  0.00    -0.248 A  
HETATM   22  C   UNL     1      -8.483   8.640  64.328  1.00  0.00    -0.101 A  
HETATM   23  C   UNL     1      -8.893   9.566  63.370  1.00  0.00    -0.236 A  
HETATM   24  C   UNL     1      -9.749  10.590  63.793  1.00  0.00    -0.326 A  
HETATM   25  C   UNL     1     -10.200  10.714  65.109  1.00  0.00    -0.368 A  
HETATM   26  C   UNL     1     -11.031  11.882  65.163  1.00  0.00    -0.365 A  
HETATM   27  C   UNL     1     -11.746  12.531  66.193  1.00  0.00    -0.466 A  
HETATM   28  C   UNL     1     -12.487  13.682  65.904  1.00  0.00    -0.502 A  
HETATM   29  C   UNL     1     -12.523  14.190  64.607  1.00  0.00    -0.375 A  
HETATM   30  C   UNL     1     -11.821  13.571  63.569  1.00  0.00    -0.313 A  
HETATM   31  C   UNL     1     -11.082  12.422  63.881  1.00  0.00    -0.415 A  
HETATM   32  N   UNL     1     -10.303  11.628  63.079  1.00  0.00    -0.670 NA 
HETATM   33  H   UNL     1     -10.154  11.786  62.082  1.00  0.00     0.000 HD 
ENDBRANCH  19  20
ENDBRANCH  18  19
ENDBRANCH  15  18
ENDBRANCH  14  15
ENDBRANCH  12  14
ENDBRANCH  11  12
ENDBRANCH  10  11
ENDBRANCH   9  10
ENDBRANCH   8   9
ENDBRANCH   2   3
TORSDOF 10
ENDMDL
MODEL       24
REMARK 921   NORMALIZED FREE ENERGY PREDICTED BY IDOCK:   -6.43 KCAL/MOL
REMARK 922        TOTAL FREE ENERGY PREDICTED BY IDOCK:  -12.04 KCAL/MOL
REMARK 923 INTER-LIGAND FREE ENERGY PREDICTED BY IDOCK:   -9.82 KCAL/MOL
REMARK 924 INTRA-LIGAND FREE ENERGY PREDICTED BY IDOCK:   -2.22 KCAL/MOL
REMARK 927      BINDING AFFINITY PREDICTED BY RF-SCORE:    0.00 PKD
ROOT
HETATM    1  C   UNL     1     -12.550  11.969  63.212  1.00  0.00    -0.385 C  
HETATM    2  O   UNL     1     -12.824  12.702  64.404  1.00  0.00    -0.712 OA 
ENDROOT
BRANCH   2   3
HETATM    3  C   UNL     1     -11.923  13.684  64.731  1.00  0.00    -0.396 A  
HETATM    4  C   UNL     1     -12.088  15.005  64.281  1.00  0.00    -0.323 A  
HETATM    5  C   UNL     1     -11.197  16.008  64.659  1.00  0.00    -0.340 A  
HETATM    6  C   UNL     1     -10.112  15.703  65.469  1.00  0.00    -0.395 A  
HETATM    7  C   UNL     1      -9.909  14.387  65.880  1.00  0.00    -0.336 A  
HETATM    8  C   UNL     1     -10.796  13.364  65.513  1.00  0.00    -0.289 A  
BRANCH   8   9
HETATM    9  O   UNL     1     -10.416  12.146  66.023  1.00  0.00    -0.236 OA 
BRANCH   9  10
HETATM   10  C   UNL     1      -9.824  12.138  67.316  1.00  0.00    -0.196 C  
BRANCH  10  11
HETATM   11  C   UNL     1     -10.855  11.701  68.370  1.00  0.00    -0.219 C  
BRANCH  11  12
HETATM   12  N   UNL     1     -11.018  12.661  69.477  1.00  0.00    -0.452 NA 
HETATM   13  H   UNL     1     -10.118  13.041  69.771  1.00  0.00     0.000 HD 
BRANCH  12  14
HETATM   14  C   UNL     1     -11.972  13.742  69.147  1.00  0.00    -0.361 C  
BRANCH  14  15
HETATM   15  C   UNL     1     -12.025  14.833  70.238  1.00  0.00    -0.310 C  
HETATM   16  O   UNL     1     -12.312  14.226  71.502  1.00  0.00    -0.341 OA 
HETATM   17  H   UNL     1     -12.345  14.898  72.174  1.00  0.00     0.000 HD 
BRANCH  15  18
HETATM   18  C   UNL     1     -10.697  15.598  70.291  1.00  0.00    -0.338 C  
BRANCH  18  19
HETATM   19  O   UNL     1      -9.930  15.366  69.114  1.00  0.00    -0.213 OA 
BRANCH  19  20
HETATM   20  C   UNL     1      -8.616  15.765  69.168  1.00  0.00    -0.256 A  
HETATM   21  C   UNL     1      -7.566  14.987  69.691  1.00  0.00    -0.140 A  
HETATM   22  C   UNL     1      -6.252  15.443  69.686  1.00  0.00    -0.153 A  
HETATM   23  C   UNL     1      -5.926  16.693  69.161  1.00  0.00    -0.162 A  
HETATM   24  C   UNL     1      -6.974  17.468  68.650  1.00  0.00    -0.232 A  
HETATM   25  C   UNL     1      -8.304  17.044  68.643  1.00  0.00    -0.264 A  
HETATM   26  C   UNL     1      -9.083  18.102  68.067  1.00  0.00    -0.289 A  
HETATM   27  C   UNL     1     -10.460  18.281  67.811  1.00  0.00    -0.430 A  
HETATM   28  C   UNL     1     -10.906  19.464  67.214  1.00  0.00    -0.561 A  
HETATM   29  C   UNL     1     -10.001  20.465  66.870  1.00  0.00    -0.549 A  
HETATM   30  C   UNL     1      -8.633  20.317  67.115  1.00  0.00    -0.417 A  
HETATM   31  C   UNL     1      -8.208  19.126  67.719  1.00  0.00    -0.286 A  
HETATM   32  N   UNL     1      -6.948  18.720  68.080  1.00  0.00    -0.238 NA 
HETATM   33  H   UNL     1      -6.103  19.275  67.945  1.00  0.00     0.000 HD 
ENDBRANCH  19  20
ENDBRANCH  18  19
ENDBRANCH  15  18
ENDBRANCH  14  15
ENDBRANCH  12  14
ENDBRANCH  11  12
ENDBRANCH  10  11
ENDBRANCH   9  10
ENDBRANCH   8   9
ENDBRANCH   2   3
TORSDOF 10
ENDMDL
MODEL       25
REMARK 921   NORMALIZED FREE ENERGY PREDICTED BY IDOCK:   -6.42 KCAL/MOL
REMARK 922        TOTAL FREE ENERGY PREDICTED BY IDOCK:  -12.02 KCAL/MOL
REMARK 923 INTER-LIGAND FREE ENERGY PREDICTED BY IDOCK:  -10.59 KCAL/MOL
REMARK 924 INTRA-LIGAND FREE ENERGY PREDICTED BY IDOCK:   -1.43 KCAL/MOL
REMARK 927      BINDING AFFINITY PREDICTED BY RF-SCORE:    0.00 PKD
ROOT
HETATM    1  C   UNL     1     -11.882   9.654  71.115  1.00  0.00    -0.367 C  
HETATM    2  O   UNL     1     -10.616   9.441  70.494  1.00  0.00    -0.228 OA 
ENDROOT
BRANCH   2   3
HETATM    3  C   UNL     1     -10.604   8.589  69.419  1.00  0.00    -0.195 A  
HETATM    4  C   UNL     1     -10.669   7.196  69.592  1.00  0.00    -0.256 A  
HETATM    5  C   UNL     1     -10.708   6.338  68.493  1.00  0.00    -0.354 A  
HETATM    6  C   UNL     1     -10.653   6.857  67.206  1.00  0.00    -0.393 A  
HETATM    7  C   UNL     1     -10.536   8.233  67.023  1.00  0.00    -0.328 A  
HETATM    8  C   UNL     1     -10.499   9.112  68.116  1.00  0.00    -0.211 A  
BRANCH   8   9
HETATM    9  O   UNL     1     -10.384  10.423  67.717  1.00  0.00    -0.182 OA 
BRANCH   9  10
HETATM   10  C   UNL     1     -10.421  10.684  66.320  1.00  0.00    -0.203 C  
BRANCH  10  11
HETATM   11  C   UNL     1      -9.227  11.563  65.911  1.00  0.00    -0.210 C  
BRANCH  11  12
HETATM   12  N   UNL     1      -9.560  12.590  64.907  1.00  0.00    -0.472 NA 
HETATM   13  H   UNL     1      -8.843  12.644  64.183  1.00  0.00     0.000 HD 
BRANCH  12  14
HETATM   14  C   UNL     1     -10.900  12.384  64.317  1.00  0.00    -0.355 C  
BRANCH  14  15
HETATM   15  C   UNL     1     -11.658  13.712  64.103  1.00  0.00    -0.352 C  
HETATM   16  O   UNL     1     -12.645  13.537  63.082  1.00  0.00    -0.882 OA 
HETATM   17  H   UNL     1     -13.112  14.354  62.950  1.00  0.00     0.000 HD 
BRANCH  15  18
HETATM   18  C   UNL     1     -12.307  14.171  65.415  1.00  0.00    -0.463 C  
BRANCH  18  19
HETATM   19  O   UNL     1     -11.354  14.195  66.472  1.00  0.00    -0.321 OA 
BRANCH  19  20
HETATM   20  C   UNL     1     -10.896  15.439  66.836  1.00  0.00    -0.313 A  
HETATM   21  C   UNL     1     -10.299  16.359  65.954  1.00  0.00    -0.378 A  
HETATM   22  C   UNL     1      -9.884  17.614  66.386  1.00  0.00    -0.315 A  
HETATM   23  C   UNL     1     -10.046  18.008  67.714  1.00  0.00    -0.359 A  
HETATM   24  C   UNL     1     -10.632  17.086  68.590  1.00  0.00    -0.362 A  
HETATM   25  C   UNL     1     -11.054  15.817  68.192  1.00  0.00    -0.341 A  
HETATM   26  C   UNL     1     -11.577  15.160  69.356  1.00  0.00    -0.343 A  
HETATM   27  C   UNL     1     -12.124  13.882  69.600  1.00  0.00    -0.404 A  
HETATM   28  C   UNL     1     -12.558  13.548  70.887  1.00  0.00    -0.414 A  
HETATM   29  C   UNL     1     -12.455  14.468  71.927  1.00  0.00    -0.406 A  
HETATM   30  C   UNL     1     -11.913  15.739  71.716  1.00  0.00    -0.547 A  
HETATM   31  C   UNL     1     -11.480  16.052  70.420  1.00  0.00    -0.377 A  
HETATM   32  N   UNL     1     -10.908  17.200  69.934  1.00  0.00    -0.261 NA 
HETATM   33  H   UNL     1     -10.714  18.030  70.495  1.00  0.00     0.000 HD 
ENDBRANCH  19  20
ENDBRANCH  18  19
ENDBRANCH  15  18
ENDBRANCH  14  15
ENDBRANCH  12  14
ENDBRANCH  11  12
ENDBRANCH  10  11
ENDBRANCH   9  10
ENDBRANCH   8   9
ENDBRANCH   2   3
TORSDOF 10
ENDMDL
MODEL       26
REMARK 921   NORMALIZED FREE ENERGY PREDICTED BY IDOCK:   -6.42 KCAL/MOL
REMARK 922        TOTAL FREE ENERGY PREDICTED BY IDOCK:  -12.01 KCAL/MOL
REMARK 923 INTER-LIGAND FREE ENERGY PREDICTED BY IDOCK:  -10.75 KCAL/MOL
REMARK 924 INTRA-LIGAND FREE ENERGY PREDICTED BY IDOCK:   -1.26 KCAL/MOL
REMARK 927      BINDING AFFINITY PREDICTED BY RF-SCORE:    0.00 PKD
ROOT
HETATM    1  C   UNL     1      -6.604  18.699  69.179  1.00  0.00    -0.270 C  
HETATM    2  O   UNL     1      -7.867  19.285  69.489  1.00  0.00    -0.100 OA 
ENDROOT
BRANCH   2   3
HETATM    3  C   UNL     1      -8.781  19.329  68.467  1.00  0.00    -0.367 A  
HETATM    4  C   UNL     1      -8.560  20.115  67.324  1.00  0.00    -0.414 A  
HETATM    5  C   UNL     1      -9.470  20.116  66.267  1.00  0.00    -0.450 A  
HETATM    6  C   UNL     1     -10.627  19.353  66.348  1.00  0.00    -0.558 A  
HETATM    7  C   UNL     1     -10.883  18.609  67.498  1.00  0.00    -0.373 A  
HETATM    8  C   UNL     1      -9.978  18.593  68.571  1.00  0.00    -0.388 A  
BRANCH   8   9
HETATM    9  O   UNL     1     -10.417  17.798  69.602  1.00  0.00    -0.022 OA 
BRANCH   9  10
HETATM   10  C   UNL     1     -10.723  16.444  69.294  1.00  0.00    -0.325 C  
BRANCH  10  11
HETATM   11  C   UNL     1     -11.472  15.788  70.467  1.00  0.00    -0.381 C  
BRANCH  11  12
HETATM   12  N   UNL     1     -12.939  15.835  70.338  1.00  0.00    -0.714 NA 
HETATM   13  H   UNL     1     -13.266  15.199  69.611  1.00  0.00     0.000 HD 
BRANCH  12  14
HETATM   14  C   UNL     1     -13.625  15.574  71.623  1.00  0.00    -0.481 C  
BRANCH  14  15
HETATM   15  C   UNL     1     -12.838  14.594  72.520  1.00  0.00    -0.388 C  
HETATM   16  O   UNL     1     -12.985  14.982  73.890  1.00  0.00    -0.551 OA 
HETATM   17  H   UNL     1     -12.501  14.379  74.442  1.00  0.00     0.000 HD 
BRANCH  15  18
HETATM   18  C   UNL     1     -13.335  13.159  72.304  1.00  0.00    -0.522 C  
BRANCH  18  19
HETATM   19  O   UNL     1     -13.066  12.723  70.975  1.00  0.00    -0.146 OA 
BRANCH  19  20
HETATM   20  C   UNL     1     -12.586  11.441  70.852  1.00  0.00    -0.356 A  
HETATM   21  C   UNL     1     -12.674  10.457  71.854  1.00  0.00    -0.459 A  
HETATM   22  C   UNL     1     -12.192   9.168  71.650  1.00  0.00    -0.433 A  
HETATM   23  C   UNL     1     -11.602   8.803  70.441  1.00  0.00    -0.105 A  
HETATM   24  C   UNL     1     -11.507   9.788  69.450  1.00  0.00     0.034 A  
HETATM   25  C   UNL     1     -11.975  11.092  69.623  1.00  0.00    -0.429 A  
HETATM   26  C   UNL     1     -11.688  11.809  68.414  1.00  0.00    -0.389 A  
HETATM   27  C   UNL     1     -11.892  13.140  67.989  1.00  0.00    -0.398 A  
HETATM   28  C   UNL     1     -11.489  13.528  66.706  1.00  0.00    -0.374 A  
HETATM   29  C   UNL     1     -10.888  12.610  65.848  1.00  0.00    -0.300 A  
HETATM   30  C   UNL     1     -10.669  11.287  66.244  1.00  0.00    -0.312 A  
HETATM   31  C   UNL     1     -11.077  10.921  67.534  1.00  0.00    -0.310 A  
HETATM   32  N   UNL     1     -10.980   9.715  68.181  1.00  0.00    -0.469 NA 
HETATM   33  H   UNL     1     -10.569   8.874  67.775  1.00  0.00     0.000 HD 
ENDBRANCH  19  20
ENDBRANCH  18  19
ENDBRANCH  15  18
ENDBRANCH  14  15
ENDBRANCH  12  14
ENDBRANCH  11  12
ENDBRANCH  10  11
ENDBRANCH   9  10
ENDBRANCH   8   9
ENDBRANCH   2   3
TORSDOF 10
ENDMDL
MODEL       27
REMARK 921   NORMALIZED FREE ENERGY PREDICTED BY IDOCK:   -6.41 KCAL/MOL
REMARK 922        TOTAL FREE ENERGY PREDICTED BY IDOCK:  -12.01 KCAL/MOL
REMARK 923 INTER-LIGAND FREE ENERGY PREDICTED BY IDOCK:  -10.17 KCAL/MOL
REMARK 924 INTRA-LIGAND FREE ENERGY PREDICTED BY IDOCK:   -1.84 KCAL/MOL
REMARK 927      BINDING AFFINITY PREDICTED BY RF-SCORE:    0.00 PKD
ROOT
HETATM    1  C   UNL     1     -10.820   6.291  67.811  1.00  0.00    -0.338 C  
HETATM    2  O   UNL     1     -11.367   6.760  69.042  1.00  0.00    -0.183 OA 
ENDROOT
BRANCH   2   3
HETATM    3  C   UNL     1     -11.002   6.070  70.170  1.00  0.00    -0.359 A  
HETATM    4  C   UNL     1      -9.873   5.235  70.181  1.00  0.00    -0.290 A  
HETATM    5  C   UNL     1      -9.479   4.576  71.345  1.00  0.00    -0.219 A  
HETATM    6  C   UNL     1     -10.223   4.720  72.508  1.00  0.00    -0.245 A  
HETATM    7  C   UNL     1     -11.374   5.505  72.497  1.00  0.00    -0.323 A  
HETATM    8  C   UNL     1     -11.785   6.177  71.336  1.00  0.00    -0.171 A  
BRANCH   8   9
HETATM    9  O   UNL     1     -12.940   6.895  71.539  1.00  0.00    -0.367 OA 
BRANCH   9  10
HETATM   10  C   UNL     1     -12.845   8.066  72.340  1.00  0.00    -0.104 C  
BRANCH  10  11
HETATM   11  C   UNL     1     -13.362   9.287  71.560  1.00  0.00    -0.369 C  
BRANCH  11  12
HETATM   12  N   UNL     1     -12.565   9.609  70.362  1.00  0.00    -0.496 NA 
HETATM   13  H   UNL     1     -13.016  10.335  69.804  1.00  0.00     0.000 HD 
BRANCH  12  14
HETATM   14  C   UNL     1     -11.173   9.981  70.697  1.00  0.00    -0.350 C  
BRANCH  14  15
HETATM   15  C   UNL     1     -10.312  10.227  69.439  1.00  0.00    -0.235 C  
HETATM   16  O   UNL     1      -9.397   9.140  69.269  1.00  0.00    -0.152 OA 
HETATM   17  H   UNL     1      -8.867   9.292  68.495  1.00  0.00     0.000 HD 
BRANCH  15  18
HETATM   18  C   UNL     1     -11.208  10.384  68.204  1.00  0.00    -0.268 C  
BRANCH  18  19
HETATM   19  O   UNL     1     -12.125  11.459  68.374  1.00  0.00    -0.575 OA 
BRANCH  19  20
HETATM   20  C   UNL     1     -11.689  12.691  67.949  1.00  0.00    -0.358 A  
HETATM   21  C   UNL     1     -11.144  12.949  66.677  1.00  0.00    -0.316 A  
HETATM   22  C   UNL     1     -10.749  14.229  66.303  1.00  0.00    -0.297 A  
HETATM   23  C   UNL     1     -10.880  15.307  67.177  1.00  0.00    -0.322 A  
HETATM   24  C   UNL     1     -11.413  15.045  68.445  1.00  0.00    -0.323 A  
HETATM   25  C   UNL     1     -11.814  13.772  68.855  1.00  0.00    -0.396 A  
HETATM   26  C   UNL     1     -12.283  13.891  70.206  1.00  0.00    -0.428 A  
HETATM   27  C   UNL     1     -12.789  12.976  71.155  1.00  0.00    -0.331 A  
HETATM   28  C   UNL     1     -13.174  13.431  72.420  1.00  0.00    -0.564 A  
HETATM   29  C   UNL     1     -13.063  14.779  72.749  1.00  0.00    -0.569 A  
HETATM   30  C   UNL     1     -12.562  15.708  71.831  1.00  0.00    -0.509 A  
HETATM   31  C   UNL     1     -12.177  15.230  70.571  1.00  0.00    -0.371 A  
HETATM   32  N   UNL     1     -11.651  15.900  69.496  1.00  0.00    -0.338 NA 
HETATM   33  H   UNL     1     -11.461  16.903  69.478  1.00  0.00     0.000 HD 
ENDBRANCH  19  20
ENDBRANCH  18  19
ENDBRANCH  15  18
ENDBRANCH  14  15
ENDBRANCH  12  14
ENDBRANCH  11  12
ENDBRANCH  10  11
ENDBRANCH   9  10
ENDBRANCH   8   9
ENDBRANCH   2   3
TORSDOF 10
ENDMDL
MODEL       28
REMARK 921   NORMALIZED FREE ENERGY PREDICTED BY IDOCK:   -6.40 KCAL/MOL
REMARK 922        TOTAL FREE ENERGY PREDICTED BY IDOCK:  -12.00 KCAL/MOL
REMARK 923 INTER-LIGAND FREE ENERGY PREDICTED BY IDOCK:  -10.54 KCAL/MOL
REMARK 924 INTRA-LIGAND FREE ENERGY PREDICTED BY IDOCK:   -1.46 KCAL/MOL
REMARK 927      BINDING AFFINITY PREDICTED BY RF-SCORE:    0.00 PKD
ROOT
HETATM    1  C   UNL     1      -9.316  10.873  68.689  1.00  0.00    -0.187 C  
HETATM    2  O   UNL     1     -10.479  10.507  69.428  1.00  0.00    -0.218 OA 
ENDROOT
BRANCH   2   3
HETATM    3  C   UNL     1     -10.760   9.165  69.489  1.00  0.00    -0.215 A  
HETATM    4  C   UNL     1     -10.323   8.282  68.488  1.00  0.00    -0.230 A  
HETATM    5  C   UNL     1     -10.568   6.912  68.582  1.00  0.00    -0.254 A  
HETATM    6  C   UNL     1     -11.278   6.408  69.663  1.00  0.00    -0.483 A  
HETATM    7  C   UNL     1     -11.762   7.280  70.637  1.00  0.00    -0.310 A  
HETATM    8  C   UNL     1     -11.523   8.661  70.561  1.00  0.00    -0.188 A  
BRANCH   8   9
HETATM    9  O   UNL     1     -12.082   9.339  71.618  1.00  0.00    -0.331 OA 
BRANCH   9  10
HETATM   10  C   UNL     1     -13.279  10.063  71.365  1.00  0.00    -0.395 C  
BRANCH  10  11
HETATM   11  C   UNL     1     -13.135  11.514  71.853  1.00  0.00    -0.387 C  
BRANCH  11  12
HETATM   12  N   UNL     1     -12.449  12.399  70.894  1.00  0.00    -0.342 NA 
HETATM   13  H   UNL     1     -12.908  12.383  69.983  1.00  0.00     0.000 HD 
BRANCH  12  14
HETATM   14  C   UNL     1     -12.318  13.783  71.400  1.00  0.00    -0.252 C  
BRANCH  14  15
HETATM   15  C   UNL     1     -12.633  14.838  70.318  1.00  0.00    -0.315 C  
HETATM   16  O   UNL     1     -13.902  15.439  70.595  1.00  0.00    -0.809 OA 
HETATM   17  H   UNL     1     -14.096  16.088  69.929  1.00  0.00     0.000 HD 
BRANCH  15  18
HETATM   18  C   UNL     1     -11.526  15.899  70.271  1.00  0.00    -0.366 C  
BRANCH  18  19
HETATM   19  O   UNL     1     -10.567  15.589  69.266  1.00  0.00    -0.209 OA 
BRANCH  19  20
HETATM   20  C   UNL     1     -10.483  16.481  68.223  1.00  0.00    -0.313 A  
HETATM   21  C   UNL     1     -10.119  17.833  68.358  1.00  0.00    -0.376 A  
HETATM   22  C   UNL     1     -10.026  18.673  67.253  1.00  0.00    -0.360 A  
HETATM   23  C   UNL     1     -10.290  18.203  65.968  1.00  0.00    -0.360 A  
HETATM   24  C   UNL     1     -10.661  16.859  65.839  1.00  0.00    -0.233 A  
HETATM   25  C   UNL     1     -10.770  15.990  66.926  1.00  0.00    -0.262 A  
HETATM   26  C   UNL     1     -11.187  14.717  66.410  1.00  0.00    -0.342 A  
HETATM   27  C   UNL     1     -11.482  13.469  66.999  1.00  0.00    -0.369 A  
HETATM   28  C   UNL     1     -11.866  12.394  66.189  1.00  0.00    -0.442 A  
HETATM   29  C   UNL     1     -11.958  12.549  64.808  1.00  0.00    -0.469 A  
HETATM   30  C   UNL     1     -11.675  13.776  64.199  1.00  0.00    -0.397 A  
HETATM   31  C   UNL     1     -11.297  14.840  65.029  1.00  0.00    -0.391 A  
HETATM   32  N   UNL     1     -10.977  16.135  64.712  1.00  0.00    -0.734 NA 
HETATM   33  H   UNL     1     -10.973  16.513  63.764  1.00  0.00     0.000 HD 
ENDBRANCH  19  20
ENDBRANCH  18  19
ENDBRANCH  15  18
ENDBRANCH  14  15
ENDBRANCH  12  14
ENDBRANCH  11  12
ENDBRANCH  10  11
ENDBRANCH   9  10
ENDBRANCH   8   9
ENDBRANCH   2   3
TORSDOF 10
ENDMDL
MODEL       29
REMARK 921   NORMALIZED FREE ENERGY PREDICTED BY IDOCK:   -6.40 KCAL/MOL
REMARK 922        TOTAL FREE ENERGY PREDICTED BY IDOCK:  -11.99 KCAL/MOL
REMARK 923 INTER-LIGAND FREE ENERGY PREDICTED BY IDOCK:  -10.58 KCAL/MOL
REMARK 924 INTRA-LIGAND FREE ENERGY PREDICTED BY IDOCK:   -1.41 KCAL/MOL
REMARK 927      BINDING AFFINITY PREDICTED BY RF-SCORE:    0.00 PKD
ROOT
HETATM    1  C   UNL     1     -11.248  16.581  64.807  1.00  0.00    -0.143 C  
HETATM    2  O   UNL     1     -10.098  16.678  65.644  1.00  0.00    -0.508 OA 
ENDROOT
BRANCH   2   3
HETATM    3  C   UNL     1     -10.057  17.753  66.495  1.00  0.00    -0.358 A  
HETATM    4  C   UNL     1     -10.327  19.054  66.041  1.00  0.00    -0.512 A  
HETATM    5  C   UNL     1     -10.333  20.135  66.922  1.00  0.00    -0.503 A  
HETATM    6  C   UNL     1     -10.042  19.936  68.265  1.00  0.00    -0.571 A  
HETATM    7  C   UNL     1      -9.723  18.658  68.719  1.00  0.00    -0.407 A  
HETATM    8  C   UNL     1      -9.714  17.558  67.848  1.00  0.00    -0.278 A  
BRANCH   8   9
HETATM    9  O   UNL     1      -9.376  16.393  68.495  1.00  0.00    -0.209 OA 
BRANCH   9  10
HETATM   10  C   UNL     1     -10.242  15.951  69.533  1.00  0.00    -0.279 C  
BRANCH  10  11
HETATM   11  C   UNL     1     -11.148  14.818  69.022  1.00  0.00    -0.256 C  
BRANCH  11  12
HETATM   12  N   UNL     1     -10.778  13.484  69.531  1.00  0.00    -0.436 NA 
HETATM   13  H   UNL     1     -10.234  13.556  70.391  1.00  0.00     0.000 HD 
BRANCH  12  14
HETATM   14  C   UNL     1     -11.955  12.607  69.716  1.00  0.00    -0.295 C  
BRANCH  14  15
HETATM   15  C   UNL     1     -11.617  11.116  69.497  1.00  0.00    -0.321 C  
HETATM   16  O   UNL     1     -12.543  10.307  70.228  1.00  0.00    -0.484 OA 
HETATM   17  H   UNL     1     -12.335   9.390  70.093  1.00  0.00     0.000 HD 
BRANCH  15  18
HETATM   18  C   UNL     1     -11.658  10.776  68.002  1.00  0.00    -0.163 C  
BRANCH  18  19
HETATM   19  O   UNL     1     -10.742  11.584  67.271  1.00  0.00    -0.220 OA 
BRANCH  19  20
HETATM   20  C   UNL     1     -11.147  11.958  66.012  1.00  0.00    -0.322 A  
HETATM   21  C   UNL     1     -12.107  12.952  65.745  1.00  0.00    -0.513 A  
HETATM   22  C   UNL     1     -12.448  13.301  64.442  1.00  0.00    -0.356 A  
HETATM   23  C   UNL     1     -11.848  12.677  63.350  1.00  0.00    -0.594 A  
HETATM   24  C   UNL     1     -10.900  11.683  63.619  1.00  0.00    -0.432 A  
HETATM   25  C   UNL     1     -10.538  11.304  64.913  1.00  0.00    -0.364 A  
HETATM   26  C   UNL     1      -9.567  10.254  64.791  1.00  0.00    -0.369 A  
HETATM   27  C   UNL     1      -8.853   9.464  65.718  1.00  0.00    -0.204 A  
HETATM   28  C   UNL     1      -7.948   8.502  65.257  1.00  0.00    -0.120 A  
HETATM   29  C   UNL     1      -7.747   8.321  63.890  1.00  0.00    -0.141 A  
HETATM   30  C   UNL     1      -8.443   9.086  62.950  1.00  0.00    -0.200 A  
HETATM   31  C   UNL     1      -9.348  10.041  63.433  1.00  0.00    -0.257 A  
HETATM   32  N   UNL     1     -10.161  10.910  62.752  1.00  0.00    -0.763 NA 
HETATM   33  H   UNL     1     -10.212  10.976  61.735  1.00  0.00     0.000 HD 
ENDBRANCH  19  20
ENDBRANCH  18  19
ENDBRANCH  15  18
ENDBRANCH  14  15
ENDBRANCH  12  14
ENDBRANCH  11  12
ENDBRANCH  10  11
ENDBRANCH   9  10
ENDBRANCH   8   9
ENDBRANCH   2   3
TORSDOF 10
ENDMDL
MODEL       30
REMARK 921   NORMALIZED FREE ENERGY PREDICTED BY IDOCK:   -6.39 KCAL/MOL
REMARK 922        TOTAL FREE ENERGY PREDICTED BY IDOCK:  -11.98 KCAL/MOL
REMARK 923 INTER-LIGAND FREE ENERGY PREDICTED BY IDOCK:   -9.70 KCAL/MOL
REMARK 924 INTRA-LIGAND FREE ENERGY PREDICTED BY IDOCK:   -2.27 KCAL/MOL
REMARK 927      BINDING AFFINITY PREDICTED BY RF-SCORE:    0.00 PKD
ROOT
HETATM    1  C   UNL     1      -8.906   6.355  66.002  1.00  0.00    -0.150 C  
HETATM    2  O   UNL     1      -9.807   7.290  66.592  1.00  0.00    -0.208 OA 
ENDROOT
BRANCH   2   3
HETATM    3  C   UNL     1      -9.241   8.407  67.151  1.00  0.00    -0.143 A  
HETATM    4  C   UNL     1      -8.409   8.317  68.280  1.00  0.00    -0.132 A  
HETATM    5  C   UNL     1      -7.796   9.451  68.812  1.00  0.00    -0.084 A  
HETATM    6  C   UNL     1      -8.027  10.696  68.241  1.00  0.00    -0.116 A  
HETATM    7  C   UNL     1      -8.890  10.805  67.153  1.00  0.00    -0.135 A  
HETATM    8  C   UNL     1      -9.513   9.676  66.602  1.00  0.00    -0.170 A  
BRANCH   8   9
HETATM    9  O   UNL     1     -10.319  10.001  65.537  1.00  0.00    -0.241 OA 
BRANCH   9  10
HETATM   10  C   UNL     1      -9.678  10.453  64.351  1.00  0.00    -0.333 C  
BRANCH  10  11
HETATM   11  C   UNL     1     -10.381  11.711  63.813  1.00  0.00    -0.398 C  
BRANCH  11  12
HETATM   12  N   UNL     1     -10.242  12.890  64.687  1.00  0.00    -0.491 NA 
HETATM   13  H   UNL     1      -9.500  13.508  64.358  1.00  0.00     0.000 HD 
BRANCH  12  14
HETATM   14  C   UNL     1     -11.516  13.625  64.847  1.00  0.00    -0.340 C  
BRANCH  14  15
HETATM   15  C   UNL     1     -12.128  13.441  66.253  1.00  0.00    -0.422 C  
HETATM   16  O   UNL     1     -12.152  12.049  66.583  1.00  0.00    -0.615 OA 
HETATM   17  H   UNL     1     -12.528  11.937  67.448  1.00  0.00     0.000 HD 
BRANCH  15  18
HETATM   18  C   UNL     1     -11.322  14.233  67.290  1.00  0.00    -0.334 C  
BRANCH  18  19
HETATM   19  O   UNL     1     -11.155  13.480  68.487  1.00  0.00    -0.249 OA 
BRANCH  19  20
HETATM   20  C   UNL     1     -11.917  13.882  69.558  1.00  0.00    -0.343 A  
HETATM   21  C   UNL     1     -12.310  15.211  69.803  1.00  0.00    -0.278 A  
HETATM   22  C   UNL     1     -13.108  15.542  70.894  1.00  0.00    -0.508 A  
HETATM   23  C   UNL     1     -13.549  14.566  71.786  1.00  0.00    -0.474 A  
HETATM   24  C   UNL     1     -13.147  13.246  71.544  1.00  0.00    -0.328 A  
HETATM   25  C   UNL     1     -12.343  12.880  70.463  1.00  0.00    -0.362 A  
HETATM   26  C   UNL     1     -12.128  11.464  70.557  1.00  0.00    -0.487 A  
HETATM   27  C   UNL     1     -11.400  10.528  69.790  1.00  0.00    -0.367 A  
HETATM   28  C   UNL     1     -11.401   9.179  70.160  1.00  0.00    -0.164 A  
HETATM   29  C   UNL     1     -12.115   8.754  71.278  1.00  0.00    -0.344 A  
HETATM   30  C   UNL     1     -12.841   9.660  72.058  1.00  0.00    -0.497 A  
HETATM   31  C   UNL     1     -12.823  11.007  71.673  1.00  0.00    -0.435 A  
HETATM   32  N   UNL     1     -13.425  12.097  72.247  1.00  0.00    -0.556 NA 
HETATM   33  H   UNL     1     -14.004  12.060  73.087  1.00  0.00     0.000 HD 
ENDBRANCH  19  20
ENDBRANCH  18  19
ENDBRANCH  15  18
ENDBRANCH  14  15
ENDBRANCH  12  14
ENDBRANCH  11  12
ENDBRANCH  10  11
ENDBRANCH   9  10
ENDBRANCH   8   9
ENDBRANCH   2   3
TORSDOF 10
ENDMDL
MODEL       31
REMARK 921   NORMALIZED FREE ENERGY PREDICTED BY IDOCK:   -6.38 KCAL/MOL
REMARK 922        TOTAL FREE ENERGY PREDICTED BY IDOCK:  -11.96 KCAL/MOL
REMARK 923 INTER-LIGAND FREE ENERGY PREDICTED BY IDOCK:  -10.76 KCAL/MOL
REMARK 924 INTRA-LIGAND FREE ENERGY PREDICTED BY IDOCK:   -1.20 KCAL/MOL
REMARK 927      BINDING AFFINITY PREDICTED BY RF-SCORE:    0.00 PKD
ROOT
HETATM    1  C   UNL     1     -14.241   8.475  72.058  1.00  0.00    -0.453 C  
HETATM    2  O   UNL     1     -13.426   9.642  71.972  1.00  0.00    -0.410 OA 
ENDROOT
BRANCH   2   3
HETATM    3  C   UNL     1     -12.103   9.436  71.673  1.00  0.00    -0.388 A  
HETATM    4  C   UNL     1     -11.309   8.567  72.440  1.00  0.00    -0.412 A  
HETATM    5  C   UNL     1      -9.979   8.323  72.101  1.00  0.00    -0.343 A  
HETATM    6  C   UNL     1      -9.414   8.965  71.007  1.00  0.00    -0.318 A  
HETATM    7  C   UNL     1     -10.176   9.869  70.269  1.00  0.00    -0.322 A  
HETATM    8  C   UNL     1     -11.517  10.124  70.593  1.00  0.00    -0.349 A  
BRANCH   8   9
HETATM    9  O   UNL     1     -12.086  11.042  69.742  1.00  0.00    -0.317 OA 
BRANCH   9  10
HETATM   10  C   UNL     1     -11.308  11.466  68.630  1.00  0.00    -0.265 C  
BRANCH  10  11
HETATM   11  C   UNL     1     -12.032  12.594  67.875  1.00  0.00    -0.249 C  
BRANCH  11  12
HETATM   12  N   UNL     1     -11.989  12.452  66.408  1.00  0.00    -0.607 NA 
HETATM   13  H   UNL     1     -12.456  11.597  66.106  1.00  0.00     0.000 HD 
BRANCH  12  14
HETATM   14  C   UNL     1     -12.540  13.636  65.713  1.00  0.00    -0.461 C  
BRANCH  14  15
HETATM   15  C   UNL     1     -11.703  14.036  64.479  1.00  0.00    -0.413 C  
HETATM   16  O   UNL     1     -12.573  14.525  63.453  1.00  0.00    -1.028 OA 
HETATM   17  H   UNL     1     -12.057  14.772  62.694  1.00  0.00     0.000 HD 
BRANCH  15  18
HETATM   18  C   UNL     1     -10.663  15.097  64.863  1.00  0.00    -0.398 C  
BRANCH  18  19
HETATM   19  O   UNL     1     -10.576  15.235  66.277  1.00  0.00    -0.294 OA 
BRANCH  19  20
HETATM   20  C   UNL     1      -9.305  15.257  66.799  1.00  0.00    -0.243 A  
HETATM   21  C   UNL     1      -8.503  14.117  66.995  1.00  0.00    -0.178 A  
HETATM   22  C   UNL     1      -7.211  14.217  67.502  1.00  0.00    -0.188 A  
HETATM   23  C   UNL     1      -6.662  15.454  67.834  1.00  0.00    -0.177 A  
HETATM   24  C   UNL     1      -7.466  16.585  67.646  1.00  0.00    -0.144 A  
HETATM   25  C   UNL     1      -8.768  16.521  67.146  1.00  0.00    -0.216 A  
HETATM   26  C   UNL     1      -9.276  17.863  67.115  1.00  0.00    -0.258 A  
HETATM   27  C   UNL     1     -10.509  18.437  66.738  1.00  0.00    -0.415 A  
HETATM   28  C   UNL     1     -10.684  19.822  66.825  1.00  0.00    -0.526 A  
HETATM   29  C   UNL     1      -9.649  20.637  67.279  1.00  0.00    -0.558 A  
HETATM   30  C   UNL     1      -8.419  20.094  67.663  1.00  0.00    -0.357 A  
HETATM   31  C   UNL     1      -8.267  18.704  67.573  1.00  0.00    -0.253 A  
HETATM   32  N   UNL     1      -7.192  17.912  67.886  1.00  0.00    -0.215 NA 
HETATM   33  H   UNL     1      -6.304  18.261  68.249  1.00  0.00     0.000 HD 
ENDBRANCH  19  20
ENDBRANCH  18  19
ENDBRANCH  15  18
ENDBRANCH  14  15
ENDBRANCH  12  14
ENDBRANCH  11  12
ENDBRANCH  10  11
ENDBRANCH   9  10
ENDBRANCH   8   9
ENDBRANCH   2   3
TORSDOF 10
ENDMDL
MODEL       32
REMARK 921   NORMALIZED FREE ENERGY PREDICTED BY IDOCK:   -6.37 KCAL/MOL
REMARK 922        TOTAL FREE ENERGY PREDICTED BY IDOCK:  -11.94 KCAL/MOL
REMARK 923 INTER-LIGAND FREE ENERGY PREDICTED BY IDOCK:  -10.55 KCAL/MOL
REMARK 924 INTRA-LIGAND FREE ENERGY PREDICTED BY IDOCK:   -1.39 KCAL/MOL
REMARK 927      BINDING AFFINITY PREDICTED BY RF-SCORE:    0.00 PKD
ROOT
HETATM    1  C   UNL     1      -9.522   7.232  72.458  1.00  0.00    -0.147 C  
HETATM    2  O   UNL     1     -10.242   7.431  71.243  1.00  0.00    -0.190 OA 
ENDROOT
BRANCH   2   3
HETATM    3  C   UNL     1     -11.143   8.466  71.236  1.00  0.00    -0.255 A  
HETATM    4  C   UNL     1     -12.221   8.500  72.135  1.00  0.00    -0.446 A  
HETATM    5  C   UNL     1     -13.104   9.580  72.157  1.00  0.00    -0.522 A  
HETATM    6  C   UNL     1     -12.938  10.628  71.261  1.00  0.00    -0.513 A  
HETATM    7  C   UNL     1     -11.903  10.581  70.330  1.00  0.00    -0.418 A  
HETATM    8  C   UNL     1     -11.003   9.505  70.295  1.00  0.00    -0.269 A  
BRANCH   8   9
HETATM    9  O   UNL     1     -10.060   9.656  69.307  1.00  0.00    -0.175 OA 
BRANCH   9  10
HETATM   10  C   UNL     1     -10.485   9.451  67.966  1.00  0.00    -0.228 C  
BRANCH  10  11
HETATM   11  C   UNL     1     -10.131  10.675  67.104  1.00  0.00    -0.207 C  
BRANCH  11  12
HETATM   12  N   UNL     1     -11.306  11.397  66.582  1.00  0.00    -0.387 NA 
HETATM   13  H   UNL     1     -11.621  12.110  67.239  1.00  0.00     0.000 HD 
BRANCH  12  14
HETATM   14  C   UNL     1     -11.061  11.975  65.243  1.00  0.00    -0.317 C  
BRANCH  14  15
HETATM   15  C   UNL     1     -12.143  13.000  64.839  1.00  0.00    -0.413 C  
HETATM   16  O   UNL     1     -13.248  12.314  64.242  1.00  0.00    -0.785 OA 
HETATM   17  H   UNL     1     -13.914  12.945  63.993  1.00  0.00     0.000 HD 
BRANCH  15  18
HETATM   18  C   UNL     1     -12.598  13.803  66.064  1.00  0.00    -0.408 C  
BRANCH  18  19
HETATM   19  O   UNL     1     -11.569  14.682  66.506  1.00  0.00    -0.361 OA 
BRANCH  19  20
HETATM   20  C   UNL     1     -11.522  14.915  67.860  1.00  0.00    -0.340 A  
HETATM   21  C   UNL     1     -11.846  13.963  68.845  1.00  0.00    -0.393 A  
HETATM   22  C   UNL     1     -11.747  14.259  70.201  1.00  0.00    -0.357 A  
HETATM   23  C   UNL     1     -11.322  15.514  70.634  1.00  0.00    -0.367 A  
HETATM   24  C   UNL     1     -11.009  16.461  69.651  1.00  0.00    -0.329 A  
HETATM   25  C   UNL     1     -11.103  16.200  68.283  1.00  0.00    -0.348 A  
HETATM   26  C   UNL     1     -10.726  17.402  67.596  1.00  0.00    -0.310 A  
HETATM   27  C   UNL     1     -10.640  17.770  66.236  1.00  0.00    -0.220 A  
HETATM   28  C   UNL     1     -10.219  19.060  65.892  1.00  0.00    -0.369 A  
HETATM   29  C   UNL     1      -9.885  19.980  66.882  1.00  0.00    -0.571 A  
HETATM   30  C   UNL     1      -9.965  19.644  68.237  1.00  0.00    -0.543 A  
HETATM   31  C   UNL     1     -10.393  18.350  68.560  1.00  0.00    -0.294 A  
HETATM   32  N   UNL     1     -10.573  17.759  69.785  1.00  0.00    -0.065 NA 
HETATM   33  H   UNL     1     -10.405  18.222  70.679  1.00  0.00     0.000 HD 
ENDBRANCH  19  20
ENDBRANCH  18  19
ENDBRANCH  15  18
ENDBRANCH  14  15
ENDBRANCH  12  14
ENDBRANCH  11  12
ENDBRANCH  10  11
ENDBRANCH   9  10
ENDBRANCH   8   9
ENDBRANCH   2   3
TORSDOF 10
ENDMDL
MODEL       33
REMARK 921   NORMALIZED FREE ENERGY PREDICTED BY IDOCK:   -6.36 KCAL/MOL
REMARK 922        TOTAL FREE ENERGY PREDICTED BY IDOCK:  -11.92 KCAL/MOL
REMARK 923 INTER-LIGAND FREE ENERGY PREDICTED BY IDOCK:  -10.83 KCAL/MOL
REMARK 924 INTRA-LIGAND FREE ENERGY PREDICTED BY IDOCK:   -1.09 KCAL/MOL
REMARK 927      BINDING AFFINITY PREDICTED BY RF-SCORE:    0.00 PKD
ROOT
HETATM    1  C   UNL     1     -10.560   5.874  68.760  1.00  0.00    -0.272 C  
HETATM    2  O   UNL     1     -11.652   6.105  69.647  1.00  0.00    -0.407 OA 
ENDROOT
BRANCH   2   3
HETATM    3  C   UNL     1     -11.325   6.502  70.919  1.00  0.00    -0.337 A  
HETATM    4  C   UNL     1     -11.207   5.573  71.966  1.00  0.00    -0.222 A  
HETATM    5  C   UNL     1     -10.825   5.978  73.245  1.00  0.00    -0.277 A  
HETATM    6  C   UNL     1     -10.583   7.320  73.504  1.00  0.00    -0.408 A  
HETATM    7  C   UNL     1     -10.747   8.258  72.486  1.00  0.00    -0.411 A  
HETATM    8  C   UNL     1     -11.127   7.870  71.193  1.00  0.00    -0.255 A  
BRANCH   8   9
HETATM    9  O   UNL     1     -11.230   8.945  70.343  1.00  0.00    -0.252 OA 
BRANCH   9  10
HETATM   10  C   UNL     1     -11.530  10.208  70.924  1.00  0.00    -0.360 C  
BRANCH  10  11
HETATM   11  C   UNL     1     -11.940  11.211  69.833  1.00  0.00    -0.363 C  
BRANCH  11  12
HETATM   12  N   UNL     1     -11.557  12.604  70.130  1.00  0.00    -0.543 NA 
HETATM   13  H   UNL     1     -11.431  13.143  69.273  1.00  0.00     0.000 HD 
BRANCH  12  14
HETATM   14  C   UNL     1     -12.514  13.267  71.042  1.00  0.00    -0.336 C  
BRANCH  14  15
HETATM   15  C   UNL     1     -12.216  14.773  71.214  1.00  0.00    -0.333 C  
HETATM   16  O   UNL     1     -10.934  14.936  71.827  1.00  0.00    -0.497 OA 
HETATM   17  H   UNL     1     -10.750  15.863  71.932  1.00  0.00     0.000 HD 
BRANCH  15  18
HETATM   18  C   UNL     1     -12.264  15.482  69.854  1.00  0.00    -0.325 C  
BRANCH  18  19
HETATM   19  O   UNL     1     -11.023  15.353  69.169  1.00  0.00    -0.227 OA 
BRANCH  19  20
HETATM   20  C   UNL     1     -10.798  16.261  68.162  1.00  0.00    -0.342 A  
HETATM   21  C   UNL     1     -10.448  17.609  68.367  1.00  0.00    -0.360 A  
HETATM   22  C   UNL     1     -10.206  18.466  67.299  1.00  0.00    -0.396 A  
HETATM   23  C   UNL     1     -10.301  18.020  65.982  1.00  0.00    -0.333 A  
HETATM   24  C   UNL     1     -10.659  16.681  65.782  1.00  0.00    -0.268 A  
HETATM   25  C   UNL     1     -10.914  15.795  66.830  1.00  0.00    -0.207 A  
HETATM   26  C   UNL     1     -11.266  14.534  66.242  1.00  0.00    -0.342 A  
HETATM   27  C   UNL     1     -11.644  13.278  66.765  1.00  0.00    -0.408 A  
HETATM   28  C   UNL     1     -11.923  12.220  65.893  1.00  0.00    -0.358 A  
HETATM   29  C   UNL     1     -11.832  12.399  64.515  1.00  0.00    -0.452 A  
HETATM   30  C   UNL     1     -11.465  13.633  63.970  1.00  0.00    -0.303 A  
HETATM   31  C   UNL     1     -11.194  14.680  64.860  1.00  0.00    -0.396 A  
HETATM   32  N   UNL     1     -10.828  15.978  64.611  1.00  0.00    -0.843 NA 
HETATM   33  H   UNL     1     -10.698  16.372  63.678  1.00  0.00     0.000 HD 
ENDBRANCH  19  20
ENDBRANCH  18  19
ENDBRANCH  15  18
ENDBRANCH  14  15
ENDBRANCH  12  14
ENDBRANCH  11  12
ENDBRANCH  10  11
ENDBRANCH   9  10
ENDBRANCH   8   9
ENDBRANCH   2   3
TORSDOF 10
ENDMDL
MODEL       34
REMARK 921   NORMALIZED FREE ENERGY PREDICTED BY IDOCK:   -6.36 KCAL/MOL
REMARK 922        TOTAL FREE ENERGY PREDICTED BY IDOCK:  -11.92 KCAL/MOL
REMARK 923 INTER-LIGAND FREE ENERGY PREDICTED BY IDOCK:  -10.93 KCAL/MOL
REMARK 924 INTRA-LIGAND FREE ENERGY PREDICTED BY IDOCK:   -0.99 KCAL/MOL
REMARK 927      BINDING AFFINITY PREDICTED BY RF-SCORE:    0.00 PKD
ROOT
HETATM    1  C   UNL     1     -12.713  12.032  63.529  1.00  0.00    -0.443 C  
HETATM    2  O   UNL     1     -13.124  12.515  64.805  1.00  0.00    -0.853 OA 
ENDROOT
BRANCH   2   3
HETATM    3  C   UNL     1     -12.265  13.385  65.430  1.00  0.00    -0.452 A  
HETATM    4  C   UNL     1     -11.732  14.494  64.754  1.00  0.00    -0.425 A  
HETATM    5  C   UNL     1     -10.900  15.402  65.409  1.00  0.00    -0.403 A  
HETATM    6  C   UNL     1     -10.567  15.199  66.742  1.00  0.00    -0.298 A  
HETATM    7  C   UNL     1     -11.048  14.074  67.409  1.00  0.00    -0.317 A  
HETATM    8  C   UNL     1     -11.888  13.152  66.767  1.00  0.00    -0.385 A  
BRANCH   8   9
HETATM    9  O   UNL     1     -12.251  12.120  67.600  1.00  0.00    -0.462 OA 
BRANCH   9  10
HETATM   10  C   UNL     1     -11.454  11.910  68.759  1.00  0.00    -0.290 C  
BRANCH  10  11
HETATM   11  C   UNL     1     -11.853  10.593  69.446  1.00  0.00    -0.253 C  
BRANCH  11  12
HETATM   12  N   UNL     1     -11.964  10.695  70.912  1.00  0.00    -0.356 NA 
HETATM   13  H   UNL     1     -11.752  11.640  71.233  1.00  0.00     0.000 HD 
BRANCH  12  14
HETATM   14  C   UNL     1     -13.284  10.247  71.408  1.00  0.00    -0.370 C  
BRANCH  14  15
HETATM   15  C   UNL     1     -13.170   9.068  72.398  1.00  0.00    -0.447 C  
HETATM   16  O   UNL     1     -14.306   9.067  73.268  1.00  0.00    -1.131 OA 
HETATM   17  H   UNL     1     -14.236   8.341  73.878  1.00  0.00     0.000 HD 
BRANCH  15  18
HETATM   18  C   UNL     1     -13.067   7.741  71.636  1.00  0.00    -0.345 C  
BRANCH  18  19
HETATM   19  O   UNL     1     -11.741   7.527  71.163  1.00  0.00    -0.279 OA 
BRANCH  19  20
HETATM   20  C   UNL     1     -11.088   6.437  71.687  1.00  0.00    -0.267 A  
HETATM   21  C   UNL     1     -10.954   6.172  73.062  1.00  0.00    -0.278 A  
HETATM   22  C   UNL     1     -10.304   5.031  73.522  1.00  0.00    -0.250 A  
HETATM   23  C   UNL     1      -9.761   4.105  72.633  1.00  0.00    -0.196 A  
HETATM   24  C   UNL     1      -9.888   4.377  71.265  1.00  0.00    -0.190 A  
HETATM   25  C   UNL     1     -10.528   5.514  70.769  1.00  0.00    -0.330 A  
HETATM   26  C   UNL     1     -10.442   5.459  69.338  1.00  0.00    -0.331 A  
HETATM   27  C   UNL     1     -10.872   6.307  68.295  1.00  0.00    -0.397 A  
HETATM   28  C   UNL     1     -10.629   5.949  66.964  1.00  0.00    -0.376 A  
HETATM   29  C   UNL     1      -9.967   4.761  66.664  1.00  0.00    -0.259 A  
HETATM   30  C   UNL     1      -9.526   3.903  67.677  1.00  0.00    -0.233 A  
HETATM   31  C   UNL     1      -9.776   4.284  69.003  1.00  0.00    -0.139 A  
HETATM   32  N   UNL     1      -9.453   3.654  70.177  1.00  0.00    -0.178 NA 
HETATM   33  H   UNL     1      -8.956   2.765  70.237  1.00  0.00     0.000 HD 
ENDBRANCH  19  20
ENDBRANCH  18  19
ENDBRANCH  15  18
ENDBRANCH  14  15
ENDBRANCH  12  14
ENDBRANCH  11  12
ENDBRANCH  10  11
ENDBRANCH   9  10
ENDBRANCH   8   9
ENDBRANCH   2   3
TORSDOF 10
ENDMDL
MODEL       35
REMARK 921   NORMALIZED FREE ENERGY PREDICTED BY IDOCK:   -6.35 KCAL/MOL
REMARK 922        TOTAL FREE ENERGY PREDICTED BY IDOCK:  -11.91 KCAL/MOL
REMARK 923 INTER-LIGAND FREE ENERGY PREDICTED BY IDOCK:  -10.32 KCAL/MOL
REMARK 924 INTRA-LIGAND FREE ENERGY PREDICTED BY IDOCK:   -1.59 KCAL/MOL
REMARK 927      BINDING AFFINITY PREDICTED BY RF-SCORE:    0.00 PKD
ROOT
HETATM    1  C   UNL     1     -14.290   7.495  71.477  1.00  0.00    -0.458 C  
HETATM    2  O   UNL     1     -13.119   6.724  71.735  1.00  0.00    -0.336 OA 
ENDROOT
BRANCH   2   3
HETATM    3  C   UNL     1     -11.919   7.351  71.512  1.00  0.00    -0.307 A  
HETATM    4  C   UNL     1     -11.421   8.312  72.407  1.00  0.00    -0.463 A  
HETATM    5  C   UNL     1     -10.178   8.909  72.201  1.00  0.00    -0.292 A  
HETATM    6  C   UNL     1      -9.426   8.574  71.083  1.00  0.00    -0.249 A  
HETATM    7  C   UNL     1      -9.932   7.660  70.161  1.00  0.00    -0.186 A  
HETATM    8  C   UNL     1     -11.179   7.048  70.353  1.00  0.00    -0.299 A  
BRANCH   8   9
HETATM    9  O   UNL     1     -11.489   6.180  69.332  1.00  0.00    -0.423 OA 
BRANCH   9  10
HETATM   10  C   UNL     1     -10.531   6.032  68.292  1.00  0.00    -0.235 C  
BRANCH  10  11
HETATM   11  C   UNL     1     -11.052   6.670  66.994  1.00  0.00    -0.325 C  
BRANCH  11  12
HETATM   12  N   UNL     1      -9.999   7.298  66.174  1.00  0.00    -0.428 NA 
HETATM   13  H   UNL     1     -10.174   7.158  65.179  1.00  0.00     0.000 HD 
BRANCH  12  14
HETATM   14  C   UNL     1      -9.824   8.733  66.488  1.00  0.00    -0.279 C  
BRANCH  14  15
HETATM   15  C   UNL     1      -9.181   9.515  65.322  1.00  0.00    -0.247 C  
HETATM   16  O   UNL     1      -8.903   8.617  64.244  1.00  0.00    -0.417 OA 
HETATM   17  H   UNL     1      -8.507   9.099  63.526  1.00  0.00     0.000 HD 
BRANCH  15  18
HETATM   18  C   UNL     1     -10.111  10.646  64.864  1.00  0.00    -0.335 C  
BRANCH  18  19
HETATM   19  O   UNL     1     -10.788  11.229  65.973  1.00  0.00    -0.267 OA 
BRANCH  19  20
HETATM   20  C   UNL     1     -10.789  12.603  66.018  1.00  0.00    -0.277 A  
HETATM   21  C   UNL     1     -10.410  13.436  64.950  1.00  0.00    -0.382 A  
HETATM   22  C   UNL     1     -10.464  14.822  65.056  1.00  0.00    -0.443 A  
HETATM   23  C   UNL     1     -10.899  15.438  66.229  1.00  0.00    -0.301 A  
HETATM   24  C   UNL     1     -11.267  14.605  67.293  1.00  0.00    -0.337 A  
HETATM   25  C   UNL     1     -11.219  13.211  67.223  1.00  0.00    -0.319 A  
HETATM   26  C   UNL     1     -11.645  12.709  68.497  1.00  0.00    -0.363 A  
HETATM   27  C   UNL     1     -11.789  11.415  69.045  1.00  0.00    -0.415 A  
HETATM   28  C   UNL     1     -12.248  11.265  70.358  1.00  0.00    -0.453 A  
HETATM   29  C   UNL     1     -12.564  12.383  71.126  1.00  0.00    -0.349 A  
HETATM   30  C   UNL     1     -12.427  13.676  70.612  1.00  0.00    -0.417 A  
HETATM   31  C   UNL     1     -11.961  13.803  69.296  1.00  0.00    -0.352 A  
HETATM   32  N   UNL     1     -11.724  14.929  68.550  1.00  0.00    -0.369 NA 
HETATM   33  H   UNL     1     -11.868  15.883  68.882  1.00  0.00     0.000 HD 
ENDBRANCH  19  20
ENDBRANCH  18  19
ENDBRANCH  15  18
ENDBRANCH  14  15
ENDBRANCH  12  14
ENDBRANCH  11  12
ENDBRANCH  10  11
ENDBRANCH   9  10
ENDBRANCH   8   9
ENDBRANCH   2   3
TORSDOF 10
ENDMDL
MODEL       36
REMARK 921   NORMALIZED FREE ENERGY PREDICTED BY IDOCK:   -6.33 KCAL/MOL
REMARK 922        TOTAL FREE ENERGY PREDICTED BY IDOCK:  -11.87 KCAL/MOL
REMARK 923 INTER-LIGAND FREE ENERGY PREDICTED BY IDOCK:  -10.37 KCAL/MOL
REMARK 924 INTRA-LIGAND FREE ENERGY PREDICTED BY IDOCK:   -1.51 KCAL/MOL
REMARK 927      BINDING AFFINITY PREDICTED BY RF-SCORE:    0.00 PKD
ROOT
HETATM    1  C   UNL     1     -11.376  16.201  68.777  1.00  0.00    -0.359 C  
HETATM    2  O   UNL     1     -11.027  15.061  69.560  1.00  0.00    -0.248 OA 
ENDROOT
BRANCH   2   3
HETATM    3  C   UNL     1     -11.906  14.718  70.555  1.00  0.00    -0.302 A  
HETATM    4  C   UNL     1     -12.371  15.669  71.479  1.00  0.00    -0.490 A  
HETATM    5  C   UNL     1     -13.304  15.324  72.456  1.00  0.00    -0.553 A  
HETATM    6  C   UNL     1     -13.765  14.018  72.543  1.00  0.00    -0.651 A  
HETATM    7  C   UNL     1     -13.274  13.053  71.666  1.00  0.00    -0.426 A  
HETATM    8  C   UNL     1     -12.337  13.382  70.674  1.00  0.00    -0.348 A  
BRANCH   8   9
HETATM    9  O   UNL     1     -11.986  12.290  69.916  1.00  0.00    -0.324 OA 
BRANCH   9  10
HETATM   10  C   UNL     1     -12.250  11.005  70.466  1.00  0.00    -0.381 C  
BRANCH  10  11
HETATM   11  C   UNL     1     -11.098  10.040  70.138  1.00  0.00    -0.310 C  
BRANCH  11  12
HETATM   12  N   UNL     1     -11.266   9.326  68.859  1.00  0.00    -0.444 NA 
HETATM   13  H   UNL     1     -11.134   9.955  68.066  1.00  0.00     0.000 HD 
BRANCH  12  14
HETATM   14  C   UNL     1     -10.383   8.144  68.755  1.00  0.00    -0.202 C  
BRANCH  14  15
HETATM   15  C   UNL     1      -8.887   8.521  68.816  1.00  0.00    -0.139 C  
HETATM   16  O   UNL     1      -8.144   7.428  69.365  1.00  0.00    -0.124 OA 
HETATM   17  H   UNL     1      -7.223   7.659  69.402  1.00  0.00     0.000 HD 
BRANCH  15  18
HETATM   18  C   UNL     1      -8.372   8.881  67.417  1.00  0.00    -0.108 C  
BRANCH  18  19
HETATM   19  O   UNL     1      -9.243   9.809  66.779  1.00  0.00    -0.144 OA 
BRANCH  19  20
HETATM   20  C   UNL     1      -9.154   9.867  65.408  1.00  0.00    -0.196 A  
HETATM   21  C   UNL     1      -8.345   9.024  64.625  1.00  0.00    -0.180 A  
HETATM   22  C   UNL     1      -8.326   9.119  63.237  1.00  0.00    -0.193 A  
HETATM   23  C   UNL     1      -9.112  10.057  62.570  1.00  0.00    -0.309 A  
HETATM   24  C   UNL     1      -9.909  10.901  63.353  1.00  0.00    -0.362 A  
HETATM   25  C   UNL     1      -9.947  10.836  64.747  1.00  0.00    -0.382 A  
HETATM   26  C   UNL     1     -10.850  11.859  65.193  1.00  0.00    -0.350 A  
HETATM   27  C   UNL     1     -11.286  12.299  66.462  1.00  0.00    -0.373 A  
HETATM   28  C   UNL     1     -12.205  13.349  66.554  1.00  0.00    -0.414 A  
HETATM   29  C   UNL     1     -12.694  13.961  65.402  1.00  0.00    -0.525 A  
HETATM   30  C   UNL     1     -12.277  13.549  64.132  1.00  0.00    -0.449 A  
HETATM   31  C   UNL     1     -11.351  12.499  64.064  1.00  0.00    -0.405 A  
HETATM   32  N   UNL     1     -10.770  11.905  62.973  1.00  0.00    -0.675 NA 
HETATM   33  H   UNL     1     -10.951  12.173  62.005  1.00  0.00     0.000 HD 
ENDBRANCH  19  20
ENDBRANCH  18  19
ENDBRANCH  15  18
ENDBRANCH  14  15
ENDBRANCH  12  14
ENDBRANCH  11  12
ENDBRANCH  10  11
ENDBRANCH   9  10
ENDBRANCH   8   9
ENDBRANCH   2   3
TORSDOF 10
ENDMDL
MODEL       37
REMARK 921   NORMALIZED FREE ENERGY PREDICTED BY IDOCK:   -6.32 KCAL/MOL
REMARK 922        TOTAL FREE ENERGY PREDICTED BY IDOCK:  -11.86 KCAL/MOL
REMARK 923 INTER-LIGAND FREE ENERGY PREDICTED BY IDOCK:  -10.04 KCAL/MOL
REMARK 924 INTRA-LIGAND FREE ENERGY PREDICTED BY IDOCK:   -1.82 KCAL/MOL
REMARK 927      BINDING AFFINITY PREDICTED BY RF-SCORE:    0.00 PKD
ROOT
HETATM    1  C   UNL     1      -8.542  14.111  67.104  1.00  0.00    -0.214 C  
HETATM    2  O   UNL     1      -9.332  14.934  66.249  1.00  0.00    -0.286 OA 
ENDROOT
BRANCH   2   3
HETATM    3  C   UNL     1      -9.511  16.232  66.654  1.00  0.00    -0.248 A  
HETATM    4  C   UNL     1      -8.669  17.261  66.200  1.00  0.00    -0.198 A  
HETATM    5  C   UNL     1      -8.888  18.586  66.575  1.00  0.00    -0.301 A  
HETATM    6  C   UNL     1      -9.934  18.900  67.433  1.00  0.00    -0.392 A  
HETATM    7  C   UNL     1     -10.745  17.882  67.932  1.00  0.00    -0.328 A  
HETATM    8  C   UNL     1     -10.542  16.543  67.563  1.00  0.00    -0.313 A  
BRANCH   8   9
HETATM    9  O   UNL     1     -11.449  15.702  68.162  1.00  0.00    -0.352 OA 
BRANCH   9  10
HETATM   10  C   UNL     1     -11.178  15.301  69.500  1.00  0.00    -0.281 C  
BRANCH  10  11
HETATM   11  C   UNL     1     -12.238  14.293  69.977  1.00  0.00    -0.359 C  
BRANCH  11  12
HETATM   12  N   UNL     1     -11.697  12.952  70.263  1.00  0.00    -0.544 NA 
HETATM   13  H   UNL     1     -10.799  13.011  70.743  1.00  0.00     0.000 HD 
BRANCH  12  14
HETATM   14  C   UNL     1     -12.652  12.111  71.019  1.00  0.00    -0.263 C  
BRANCH  14  15
HETATM   15  C   UNL     1     -12.296  10.610  70.950  1.00  0.00    -0.401 C  
HETATM   16  O   UNL     1     -13.434   9.873  70.494  1.00  0.00    -0.610 OA 
HETATM   17  H   UNL     1     -13.215   8.949  70.452  1.00  0.00     0.000 HD 
BRANCH  15  18
HETATM   18  C   UNL     1     -11.097  10.391  70.019  1.00  0.00    -0.314 C  
BRANCH  18  19
HETATM   19  O   UNL     1     -11.445  10.668  68.666  1.00  0.00    -0.274 OA 
BRANCH  19  20
HETATM   20  C   UNL     1     -10.685  10.037  67.711  1.00  0.00    -0.280 A  
HETATM   21  C   UNL     1      -9.933   8.868  67.934  1.00  0.00    -0.223 A  
HETATM   22  C   UNL     1      -9.208   8.265  66.911  1.00  0.00    -0.197 A  
HETATM   23  C   UNL     1      -9.201   8.798  65.623  1.00  0.00    -0.244 A  
HETATM   24  C   UNL     1      -9.942   9.967  65.408  1.00  0.00    -0.279 A  
HETATM   25  C   UNL     1     -10.676  10.601  66.412  1.00  0.00    -0.198 A  
HETATM   26  C   UNL     1     -11.278  11.764  65.826  1.00  0.00    -0.337 A  
HETATM   27  C   UNL     1     -12.101  12.799  66.321  1.00  0.00    -0.400 A  
HETATM   28  C   UNL     1     -12.534  13.812  65.459  1.00  0.00    -0.548 A  
HETATM   29  C   UNL     1     -12.159  13.806  64.118  1.00  0.00    -0.478 A  
HETATM   30  C   UNL     1     -11.342  12.796  63.602  1.00  0.00    -0.514 A  
HETATM   31  C   UNL     1     -10.915  11.793  64.483  1.00  0.00    -0.324 A  
HETATM   32  N   UNL     1     -10.113  10.704  64.258  1.00  0.00    -0.346 NA 
HETATM   33  H   UNL     1      -9.696  10.470  63.356  1.00  0.00     0.000 HD 
ENDBRANCH  19  20
ENDBRANCH  18  19
ENDBRANCH  15  18
ENDBRANCH  14  15
ENDBRANCH  12  14
ENDBRANCH  11  12
ENDBRANCH  10  11
ENDBRANCH   9  10
ENDBRANCH   8   9
ENDBRANCH   2   3
TORSDOF 10
ENDMDL
MODEL       38
REMARK 921   NORMALIZED FREE ENERGY PREDICTED BY IDOCK:   -6.27 KCAL/MOL
REMARK 922        TOTAL FREE ENERGY PREDICTED BY IDOCK:  -11.78 KCAL/MOL
REMARK 923 INTER-LIGAND FREE ENERGY PREDICTED BY IDOCK:   -9.70 KCAL/MOL
REMARK 924 INTRA-LIGAND FREE ENERGY PREDICTED BY IDOCK:   -2.08 KCAL/MOL
REMARK 927      BINDING AFFINITY PREDICTED BY RF-SCORE:    0.00 PKD
ROOT
HETATM    1  C   UNL     1     -14.235   7.901  71.903  1.00  0.00    -0.406 C  
HETATM    2  O   UNL     1     -13.342   7.027  71.215  1.00  0.00    -0.346 OA 
ENDROOT
BRANCH   2   3
HETATM    3  C   UNL     1     -12.005   7.210  71.461  1.00  0.00    -0.326 A  
HETATM    4  C   UNL     1     -11.562   8.057  72.491  1.00  0.00    -0.464 A  
HETATM    5  C   UNL     1     -10.203   8.199  72.768  1.00  0.00    -0.372 A  
HETATM    6  C   UNL     1      -9.265   7.520  72.003  1.00  0.00    -0.163 A  
HETATM    7  C   UNL     1      -9.689   6.717  70.946  1.00  0.00    -0.190 A  
HETATM    8  C   UNL     1     -11.052   6.559  70.653  1.00  0.00    -0.309 A  
BRANCH   8   9
HETATM    9  O   UNL     1     -11.254   5.727  69.578  1.00  0.00    -0.343 OA 
BRANCH   9  10
HETATM   10  C   UNL     1     -10.309   5.794  68.518  1.00  0.00    -0.215 C  
BRANCH  10  11
HETATM   11  C   UNL     1     -10.998   6.251  67.221  1.00  0.00    -0.366 C  
BRANCH  11  12
HETATM   12  N   UNL     1     -10.136   6.166  66.027  1.00  0.00    -0.393 NA 
HETATM   13  H   UNL     1     -10.457   6.801  65.295  1.00  0.00     0.000 HD 
BRANCH  12  14
HETATM   14  C   UNL     1      -8.710   6.397  66.346  1.00  0.00    -0.138 C  
BRANCH  14  15
HETATM   15  C   UNL     1      -8.169   7.698  65.715  1.00  0.00    -0.133 C  
HETATM   16  O   UNL     1      -8.733   7.863  64.411  1.00  0.00    -0.374 OA 
HETATM   17  H   UNL     1      -8.400   8.664  64.022  1.00  0.00     0.000 HD 
BRANCH  15  18
HETATM   18  C   UNL     1      -8.500   8.900  66.608  1.00  0.00    -0.119 C  
BRANCH  18  19
HETATM   19  O   UNL     1      -9.848   9.318  66.419  1.00  0.00    -0.233 OA 
BRANCH  19  20
HETATM   20  C   UNL     1     -10.398  10.047  67.447  1.00  0.00    -0.238 A  
HETATM   21  C   UNL     1     -10.355   9.672  68.802  1.00  0.00    -0.233 A  
HETATM   22  C   UNL     1     -10.908  10.475  69.795  1.00  0.00    -0.335 A  
HETATM   23  C   UNL     1     -11.527  11.684  69.482  1.00  0.00    -0.371 A  
HETATM   24  C   UNL     1     -11.576  12.048  68.130  1.00  0.00    -0.340 A  
HETATM   25  C   UNL     1     -11.037  11.265  67.109  1.00  0.00    -0.364 A  
HETATM   26  C   UNL     1     -11.295  11.946  65.872  1.00  0.00    -0.365 A  
HETATM   27  C   UNL     1     -11.022  11.658  64.517  1.00  0.00    -0.376 A  
HETATM   28  C   UNL     1     -11.414  12.562  63.524  1.00  0.00    -0.570 A  
HETATM   29  C   UNL     1     -12.070  13.743  63.864  1.00  0.00    -0.423 A  
HETATM   30  C   UNL     1     -12.357  14.051  65.197  1.00  0.00    -0.468 A  
HETATM   31  C   UNL     1     -11.960  13.130  66.176  1.00  0.00    -0.422 A  
HETATM   32  N   UNL     1     -12.117  13.166  67.538  1.00  0.00    -0.305 NA 
HETATM   33  H   UNL     1     -12.575  13.924  68.045  1.00  0.00     0.000 HD 
ENDBRANCH  19  20
ENDBRANCH  18  19
ENDBRANCH  15  18
ENDBRANCH  14  15
ENDBRANCH  12  14
ENDBRANCH  11  12
ENDBRANCH  10  11
ENDBRANCH   9  10
ENDBRANCH   8   9
ENDBRANCH   2   3
TORSDOF 10
ENDMDL
MODEL       39
REMARK 921   NORMALIZED FREE ENERGY PREDICTED BY IDOCK:   -6.26 KCAL/MOL
REMARK 922        TOTAL FREE ENERGY PREDICTED BY IDOCK:  -11.77 KCAL/MOL
REMARK 923 INTER-LIGAND FREE ENERGY PREDICTED BY IDOCK:   -9.44 KCAL/MOL
REMARK 924 INTRA-LIGAND FREE ENERGY PREDICTED BY IDOCK:   -2.33 KCAL/MOL
REMARK 927      BINDING AFFINITY PREDICTED BY RF-SCORE:    0.00 PKD
ROOT
HETATM    1  C   UNL     1     -10.404   5.525  67.132  1.00  0.00    -0.248 C  
HETATM    2  O   UNL     1     -11.035   6.767  67.435  1.00  0.00    -0.318 OA 
ENDROOT
BRANCH   2   3
HETATM    3  C   UNL     1     -10.271   7.687  68.107  1.00  0.00    -0.196 A  
HETATM    4  C   UNL     1     -10.020   7.561  69.484  1.00  0.00    -0.180 A  
HETATM    5  C   UNL     1      -9.201   8.472  70.150  1.00  0.00    -0.159 A  
HETATM    6  C   UNL     1      -8.642   9.537  69.457  1.00  0.00    -0.171 A  
HETATM    7  C   UNL     1      -8.924   9.701  68.103  1.00  0.00    -0.123 A  
HETATM    8  C   UNL     1      -9.743   8.794  67.415  1.00  0.00    -0.174 A  
BRANCH   8   9
HETATM    9  O   UNL     1      -9.891   9.137  66.091  1.00  0.00    -0.269 OA 
BRANCH   9  10
HETATM   10  C   UNL     1      -8.720   9.140  65.286  1.00  0.00    -0.188 C  
BRANCH  10  11
HETATM   11  C   UNL     1      -8.785  10.283  64.258  1.00  0.00    -0.206 C  
BRANCH  11  12
HETATM   12  N   UNL     1     -10.142  10.546  63.746  1.00  0.00    -0.444 NA 
HETATM   13  H   UNL     1     -10.853  10.182  64.381  1.00  0.00     0.000 HD 
BRANCH  12  14
HETATM   14  C   UNL     1     -10.366  11.981  63.462  1.00  0.00    -0.461 C  
BRANCH  14  15
HETATM   15  C   UNL     1     -11.864  12.358  63.485  1.00  0.00    -0.521 C  
HETATM   16  O   UNL     1     -12.628  11.302  62.894  1.00  0.00    -0.917 OA 
HETATM   17  H   UNL     1     -13.550  11.534  62.908  1.00  0.00     0.000 HD 
BRANCH  15  18
HETATM   18  C   UNL     1     -12.323  12.623  64.924  1.00  0.00    -0.498 C  
BRANCH  18  19
HETATM   19  O   UNL     1     -11.210  12.682  65.810  1.00  0.00    -0.291 OA 
BRANCH  19  20
HETATM   20  C   UNL     1     -11.097  13.834  66.552  1.00  0.00    -0.306 A  
HETATM   21  C   UNL     1     -10.718  15.085  66.031  1.00  0.00    -0.329 A  
HETATM   22  C   UNL     1     -10.653  16.217  66.836  1.00  0.00    -0.270 A  
HETATM   23  C   UNL     1     -10.963  16.154  68.194  1.00  0.00    -0.341 A  
HETATM   24  C   UNL     1     -11.331  14.905  68.710  1.00  0.00    -0.287 A  
HETATM   25  C   UNL     1     -11.401  13.748  67.933  1.00  0.00    -0.328 A  
HETATM   26  C   UNL     1     -11.787  12.675  68.804  1.00  0.00    -0.341 A  
HETATM   27  C   UNL     1     -12.002  11.292  68.623  1.00  0.00    -0.314 A  
HETATM   28  C   UNL     1     -12.390  10.502  69.710  1.00  0.00    -0.200 A  
HETATM   29  C   UNL     1     -12.566  11.072  70.969  1.00  0.00    -0.512 A  
HETATM   30  C   UNL     1     -12.356  12.439  71.178  1.00  0.00    -0.243 A  
HETATM   31  C   UNL     1     -11.964  13.210  70.077  1.00  0.00    -0.321 A  
HETATM   32  N   UNL     1     -11.682  14.550  69.993  1.00  0.00    -0.286 NA 
HETATM   33  H   UNL     1     -11.728  15.199  70.779  1.00  0.00     0.000 HD 
ENDBRANCH  19  20
ENDBRANCH  18  19
ENDBRANCH  15  18
ENDBRANCH  14  15
ENDBRANCH  12  14
ENDBRANCH  11  12
ENDBRANCH  10  11
ENDBRANCH   9  10
ENDBRANCH   8   9
ENDBRANCH   2   3
TORSDOF 10
ENDMDL
MODEL       40
REMARK 921   NORMALIZED FREE ENERGY PREDICTED BY IDOCK:   -6.26 KCAL/MOL
REMARK 922        TOTAL FREE ENERGY PREDICTED BY IDOCK:  -11.76 KCAL/MOL
REMARK 923 INTER-LIGAND FREE ENERGY PREDICTED BY IDOCK:   -9.96 KCAL/MOL
REMARK 924 INTRA-LIGAND FREE ENERGY PREDICTED BY IDOCK:   -1.80 KCAL/MOL
REMARK 927      BINDING AFFINITY PREDICTED BY RF-SCORE:    0.00 PKD
ROOT
HETATM    1  C   UNL     1      -9.282  13.645  67.473  1.00  0.00    -0.218 C  
HETATM    2  O   UNL     1      -9.211  12.955  66.227  1.00  0.00    -0.190 OA 
ENDROOT
BRANCH   2   3
HETATM    3  C   UNL     1     -10.386  12.842  65.529  1.00  0.00    -0.284 A  
HETATM    4  C   UNL     1     -11.590  13.356  66.039  1.00  0.00    -0.375 A  
HETATM    5  C   UNL     1     -12.771  13.282  65.302  1.00  0.00    -0.474 A  
HETATM    6  C   UNL     1     -12.773  12.669  64.056  1.00  0.00    -0.363 A  
HETATM    7  C   UNL     1     -11.597  12.110  63.561  1.00  0.00    -0.562 A  
HETATM    8  C   UNL     1     -10.398  12.176  64.287  1.00  0.00    -0.334 A  
BRANCH   8   9
HETATM    9  O   UNL     1      -9.360  11.568  63.623  1.00  0.00    -0.182 OA 
BRANCH   9  10
HETATM   10  C   UNL     1      -9.400  10.151  63.513  1.00  0.00    -0.290 C  
BRANCH  10  11
HETATM   11  C   UNL     1      -8.125   9.535  64.114  1.00  0.00    -0.147 C  
BRANCH  11  12
HETATM   12  N   UNL     1      -8.361   8.761  65.346  1.00  0.00    -0.142 NA 
HETATM   13  H   UNL     1      -7.581   8.857  65.997  1.00  0.00     0.000 HD 
BRANCH  12  14
HETATM   14  C   UNL     1      -9.643   9.113  65.993  1.00  0.00    -0.272 C  
BRANCH  14  15
HETATM   15  C   UNL     1      -9.457   9.568  67.458  1.00  0.00    -0.130 C  
HETATM   16  O   UNL     1      -8.342  10.460  67.540  1.00  0.00    -0.114 OA 
HETATM   17  H   UNL     1      -8.228  10.740  68.441  1.00  0.00     0.000 HD 
BRANCH  15  18
HETATM   18  C   UNL     1     -10.735  10.244  67.970  1.00  0.00    -0.255 C  
BRANCH  18  19
HETATM   19  O   UNL     1     -10.543  10.768  69.280  1.00  0.00    -0.211 OA 
BRANCH  19  20
HETATM   20  C   UNL     1     -11.385  10.279  70.250  1.00  0.00    -0.323 A  
HETATM   21  C   UNL     1     -11.477   8.924  70.617  1.00  0.00    -0.280 A  
HETATM   22  C   UNL     1     -12.333   8.503  71.630  1.00  0.00    -0.371 A  
HETATM   23  C   UNL     1     -13.132   9.412  72.321  1.00  0.00    -0.509 A  
HETATM   24  C   UNL     1     -13.044  10.759  71.946  1.00  0.00    -0.451 A  
HETATM   25  C   UNL     1     -12.202  11.215  70.931  1.00  0.00    -0.468 A  
HETATM   26  C   UNL     1     -12.399  12.632  70.822  1.00  0.00    -0.372 A  
HETATM   27  C   UNL     1     -11.865  13.636  69.986  1.00  0.00    -0.378 A  
HETATM   28  C   UNL     1     -12.276  14.964  70.147  1.00  0.00    -0.387 A  
HETATM   29  C   UNL     1     -13.208  15.299  71.127  1.00  0.00    -0.567 A  
HETATM   30  C   UNL     1     -13.757  14.325  71.965  1.00  0.00    -0.542 A  
HETATM   31  C   UNL     1     -13.335  13.001  71.784  1.00  0.00    -0.378 A  
HETATM   32  N   UNL     1     -13.706  11.858  72.444  1.00  0.00    -0.394 NA 
HETATM   33  H   UNL     1     -14.385  11.826  73.205  1.00  0.00     0.000 HD 
ENDBRANCH  19  20
ENDBRANCH  18  19
ENDBRANCH  15  18
ENDBRANCH  14  15
ENDBRANCH  12  14
ENDBRANCH  11  12
ENDBRANCH  10  11
ENDBRANCH   9  10
ENDBRANCH   8   9
ENDBRANCH   2   3
TORSDOF 10
ENDMDL
MODEL       41
REMARK 921   NORMALIZED FREE ENERGY PREDICTED BY IDOCK:   -6.23 KCAL/MOL
REMARK 922        TOTAL FREE ENERGY PREDICTED BY IDOCK:  -11.73 KCAL/MOL
REMARK 923 INTER-LIGAND FREE ENERGY PREDICTED BY IDOCK:  -10.40 KCAL/MOL
REMARK 924 INTRA-LIGAND FREE ENERGY PREDICTED BY IDOCK:   -1.32 KCAL/MOL
REMARK 927      BINDING AFFINITY PREDICTED BY RF-SCORE:    0.00 PKD
ROOT
HETATM    1  C   UNL     1     -11.685   6.698  70.683  1.00  0.00    -0.394 C  
HETATM    2  O   UNL     1     -10.533   7.523  70.522  1.00  0.00    -0.213 OA 
ENDROOT
BRANCH   2   3
HETATM    3  C   UNL     1     -10.573   8.425  69.489  1.00  0.00    -0.213 A  
HETATM    4  C   UNL     1     -10.116   8.085  68.205  1.00  0.00    -0.234 A  
HETATM    5  C   UNL     1     -10.207   8.990  67.148  1.00  0.00    -0.334 A  
HETATM    6  C   UNL     1     -10.731  10.257  67.363  1.00  0.00    -0.339 A  
HETATM    7  C   UNL     1     -11.140  10.625  68.644  1.00  0.00    -0.315 A  
HETATM    8  C   UNL     1     -11.059   9.727  69.719  1.00  0.00    -0.237 A  
BRANCH   8   9
HETATM    9  O   UNL     1     -11.515  10.285  70.890  1.00  0.00    -0.338 OA 
BRANCH   9  10
HETATM   10  C   UNL     1     -12.919  10.261  71.118  1.00  0.00    -0.409 C  
BRANCH  10  11
HETATM   11  C   UNL     1     -13.346  11.496  71.929  1.00  0.00    -0.303 C  
BRANCH  11  12
HETATM   12  N   UNL     1     -12.812  12.766  71.406  1.00  0.00    -0.339 NA 
HETATM   13  H   UNL     1     -13.049  12.889  70.421  1.00  0.00     0.000 HD 
BRANCH  12  14
HETATM   14  C   UNL     1     -13.246  13.931  72.207  1.00  0.00    -0.473 C  
BRANCH  14  15
HETATM   15  C   UNL     1     -12.502  15.226  71.814  1.00  0.00    -0.359 C  
HETATM   16  O   UNL     1     -11.735  15.690  72.930  1.00  0.00    -0.449 OA 
HETATM   17  H   UNL     1     -11.277  16.487  72.688  1.00  0.00     0.000 HD 
BRANCH  15  18
HETATM   18  C   UNL     1     -11.599  14.972  70.600  1.00  0.00    -0.311 C  
BRANCH  18  19
HETATM   19  O   UNL     1     -11.918  15.861  69.535  1.00  0.00    -0.347 OA 
BRANCH  19  20
HETATM   20  C   UNL     1     -11.606  15.417  68.272  1.00  0.00    -0.348 A  
HETATM   21  C   UNL     1     -11.895  14.129  67.786  1.00  0.00    -0.414 A  
HETATM   22  C   UNL     1     -11.577  13.756  66.483  1.00  0.00    -0.386 A  
HETATM   23  C   UNL     1     -10.959  14.649  65.610  1.00  0.00    -0.336 A  
HETATM   24  C   UNL     1     -10.665  15.928  66.101  1.00  0.00    -0.271 A  
HETATM   25  C   UNL     1     -10.965  16.333  67.403  1.00  0.00    -0.175 A  
HETATM   26  C   UNL     1     -10.500  17.683  67.543  1.00  0.00    -0.365 A  
HETATM   27  C   UNL     1     -10.495  18.615  68.604  1.00  0.00    -0.119 A  
HETATM   28  C   UNL     1      -9.955  19.890  68.404  1.00  0.00    -0.531 A  
HETATM   29  C   UNL     1      -9.426  20.246  67.166  1.00  0.00    -0.557 A  
HETATM   30  C   UNL     1      -9.414  19.342  66.099  1.00  0.00    -0.361 A  
HETATM   31  C   UNL     1      -9.955  18.069  66.322  1.00  0.00    -0.337 A  
HETATM   32  N   UNL     1     -10.065  16.996  65.474  1.00  0.00    -0.594 NA 
HETATM   33  H   UNL     1      -9.745  16.991  64.506  1.00  0.00     0.000 HD 
ENDBRANCH  19  20
ENDBRANCH  18  19
ENDBRANCH  15  18
ENDBRANCH  14  15
ENDBRANCH  12  14
ENDBRANCH  11  12
ENDBRANCH  10  11
ENDBRANCH   9  10
ENDBRANCH   8   9
ENDBRANCH   2   3
TORSDOF 10
ENDMDL
MODEL       42
REMARK 921   NORMALIZED FREE ENERGY PREDICTED BY IDOCK:   -6.23 KCAL/MOL
REMARK 922        TOTAL FREE ENERGY PREDICTED BY IDOCK:  -11.71 KCAL/MOL
REMARK 923 INTER-LIGAND FREE ENERGY PREDICTED BY IDOCK:   -9.72 KCAL/MOL
REMARK 924 INTRA-LIGAND FREE ENERGY PREDICTED BY IDOCK:   -2.00 KCAL/MOL
REMARK 927      BINDING AFFINITY PREDICTED BY RF-SCORE:    0.00 PKD
ROOT
HETATM    1  C   UNL     1      -8.659  15.557  66.687  1.00  0.00    -0.290 C  
HETATM    2  O   UNL     1      -9.881  16.041  66.132  1.00  0.00    -0.280 OA 
ENDROOT
BRANCH   2   3
HETATM    3  C   UNL     1     -10.806  15.090  65.784  1.00  0.00    -0.350 A  
HETATM    4  C   UNL     1     -10.884  14.594  64.472  1.00  0.00    -0.209 A  
HETATM    5  C   UNL     1     -11.794  13.591  64.137  1.00  0.00    -0.483 A  
HETATM    6  C   UNL     1     -12.657  13.089  65.101  1.00  0.00    -0.530 A  
HETATM    7  C   UNL     1     -12.625  13.609  66.394  1.00  0.00    -0.289 A  
HETATM    8  C   UNL     1     -11.715  14.616  66.750  1.00  0.00    -0.341 A  
BRANCH   8   9
HETATM    9  O   UNL     1     -11.847  14.984  68.068  1.00  0.00    -0.335 OA 
BRANCH   9  10
HETATM   10  C   UNL     1     -11.152  14.205  69.033  1.00  0.00    -0.263 C  
BRANCH  10  11
HETATM   11  C   UNL     1     -12.137  13.646  70.074  1.00  0.00    -0.348 C  
BRANCH  11  12
HETATM   12  N   UNL     1     -11.811  12.283  70.531  1.00  0.00    -0.517 NA 
HETATM   13  H   UNL     1     -10.854  12.230  70.880  1.00  0.00     0.000 HD 
BRANCH  12  14
HETATM   14  C   UNL     1     -12.775  11.782  71.535  1.00  0.00    -0.295 C  
BRANCH  14  15
HETATM   15  C   UNL     1     -12.729  10.245  71.678  1.00  0.00    -0.456 C  
HETATM   16  O   UNL     1     -13.591   9.651  70.703  1.00  0.00    -0.599 OA 
HETATM   17  H   UNL     1     -13.563   8.705  70.791  1.00  0.00     0.000 HD 
BRANCH  15  18
HETATM   18  C   UNL     1     -11.290   9.738  71.513  1.00  0.00    -0.275 C  
BRANCH  18  19
HETATM   19  O   UNL     1     -10.891   9.776  70.147  1.00  0.00    -0.247 OA 
BRANCH  19  20
HETATM   20  C   UNL     1     -10.845   8.562  69.504  1.00  0.00    -0.125 A  
HETATM   21  C   UNL     1     -11.192   7.333  70.095  1.00  0.00    -0.264 A  
HETATM   22  C   UNL     1     -11.149   6.143  69.374  1.00  0.00    -0.479 A  
HETATM   23  C   UNL     1     -10.761   6.127  68.035  1.00  0.00    -0.370 A  
HETATM   24  C   UNL     1     -10.408   7.351  67.454  1.00  0.00    -0.270 A  
HETATM   25  C   UNL     1     -10.433   8.561  68.149  1.00  0.00    -0.236 A  
HETATM   26  C   UNL     1      -9.992   9.580  67.240  1.00  0.00    -0.244 A  
HETATM   27  C   UNL     1      -9.787  10.973  67.351  1.00  0.00    -0.197 A  
HETATM   28  C   UNL     1      -9.343  11.698  66.240  1.00  0.00    -0.228 A  
HETATM   29  C   UNL     1      -9.102  11.056  65.028  1.00  0.00    -0.182 A  
HETATM   30  C   UNL     1      -9.292   9.677  64.891  1.00  0.00    -0.306 A  
HETATM   31  C   UNL     1      -9.733   8.969  66.017  1.00  0.00    -0.269 A  
HETATM   32  N   UNL     1      -9.990   7.631  66.173  1.00  0.00    -0.440 NA 
HETATM   33  H   UNL     1      -9.885   6.933  65.435  1.00  0.00     0.000 HD 
ENDBRANCH  19  20
ENDBRANCH  18  19
ENDBRANCH  15  18
ENDBRANCH  14  15
ENDBRANCH  12  14
ENDBRANCH  11  12
ENDBRANCH  10  11
ENDBRANCH   9  10
ENDBRANCH   8   9
ENDBRANCH   2   3
TORSDOF 10
ENDMDL
MODEL       43
REMARK 921   NORMALIZED FREE ENERGY PREDICTED BY IDOCK:   -6.22 KCAL/MOL
REMARK 922        TOTAL FREE ENERGY PREDICTED BY IDOCK:  -11.70 KCAL/MOL
REMARK 923 INTER-LIGAND FREE ENERGY PREDICTED BY IDOCK:   -9.48 KCAL/MOL
REMARK 924 INTRA-LIGAND FREE ENERGY PREDICTED BY IDOCK:   -2.22 KCAL/MOL
REMARK 927      BINDING AFFINITY PREDICTED BY RF-SCORE:    0.00 PKD
ROOT
HETATM    1  C   UNL     1     -12.866  11.889  63.700  1.00  0.00    -0.305 C  
HETATM    2  O   UNL     1     -13.040  12.755  64.819  1.00  0.00    -0.813 OA 
ENDROOT
BRANCH   2   3
HETATM    3  C   UNL     1     -12.080  13.720  64.994  1.00  0.00    -0.403 A  
HETATM    4  C   UNL     1     -12.161  14.957  64.333  1.00  0.00    -0.417 A  
HETATM    5  C   UNL     1     -11.209  15.952  64.554  1.00  0.00    -0.324 A  
HETATM    6  C   UNL     1     -10.147  15.716  65.418  1.00  0.00    -0.370 A  
HETATM    7  C   UNL     1     -10.028  14.474  66.039  1.00  0.00    -0.343 A  
HETATM    8  C   UNL     1     -10.977  13.462  65.831  1.00  0.00    -0.274 A  
BRANCH   8   9
HETATM    9  O   UNL     1     -10.676  12.322  66.537  1.00  0.00    -0.236 OA 
BRANCH   9  10
HETATM   10  C   UNL     1      -9.974  12.482  67.763  1.00  0.00    -0.210 C  
BRANCH  10  11
HETATM   11  C   UNL     1     -10.949  12.391  68.949  1.00  0.00    -0.223 C  
BRANCH  11  12
HETATM   12  N   UNL     1     -10.917  13.567  69.839  1.00  0.00    -0.402 NA 
HETATM   13  H   UNL     1     -10.390  14.333  69.418  1.00  0.00     0.000 HD 
BRANCH  12  14
HETATM   14  C   UNL     1     -12.272  14.006  70.237  1.00  0.00    -0.361 C  
BRANCH  14  15
HETATM   15  C   UNL     1     -12.462  15.532  70.092  1.00  0.00    -0.318 C  
HETATM   16  O   UNL     1     -12.122  16.173  71.325  1.00  0.00    -0.550 OA 
HETATM   17  H   UNL     1     -12.238  17.112  71.236  1.00  0.00     0.000 HD 
BRANCH  15  18
HETATM   18  C   UNL     1     -11.598  16.068  68.943  1.00  0.00    -0.354 C  
BRANCH  18  19
HETATM   19  O   UNL     1     -10.559  16.907  69.437  1.00  0.00    -0.337 OA 
BRANCH  19  20
HETATM   20  C   UNL     1      -9.984  17.752  68.518  1.00  0.00    -0.370 A  
HETATM   21  C   UNL     1     -10.657  18.807  67.874  1.00  0.00    -0.406 A  
HETATM   22  C   UNL     1     -10.003  19.643  66.974  1.00  0.00    -0.510 A  
HETATM   23  C   UNL     1      -8.653  19.465  66.677  1.00  0.00    -0.352 A  
HETATM   24  C   UNL     1      -7.989  18.408  67.313  1.00  0.00    -0.236 A  
HETATM   25  C   UNL     1      -8.615  17.547  68.216  1.00  0.00    -0.266 A  
HETATM   26  C   UNL     1      -7.633  16.590  68.638  1.00  0.00    -0.213 A  
HETATM   27  C   UNL     1      -7.657  15.477  69.507  1.00  0.00    -0.200 A  
HETATM   28  C   UNL     1      -6.490  14.733  69.712  1.00  0.00    -0.160 A  
HETATM   29  C   UNL     1      -5.307  15.083  69.065  1.00  0.00    -0.097 A  
HETATM   30  C   UNL     1      -5.256  16.178  68.196  1.00  0.00    -0.110 A  
HETATM   31  C   UNL     1      -6.437  16.906  68.001  1.00  0.00    -0.144 A  
HETATM   32  N   UNL     1      -6.679  18.001  67.211  1.00  0.00    -0.176 NA 
HETATM   33  H   UNL     1      -5.978  18.455  66.624  1.00  0.00     0.000 HD 
ENDBRANCH  19  20
ENDBRANCH  18  19
ENDBRANCH  15  18
ENDBRANCH  14  15
ENDBRANCH  12  14
ENDBRANCH  11  12
ENDBRANCH  10  11
ENDBRANCH   9  10
ENDBRANCH   8   9
ENDBRANCH   2   3
TORSDOF 10
ENDMDL
MODEL       44
REMARK 921   NORMALIZED FREE ENERGY PREDICTED BY IDOCK:   -6.22 KCAL/MOL
REMARK 922        TOTAL FREE ENERGY PREDICTED BY IDOCK:  -11.70 KCAL/MOL
REMARK 923 INTER-LIGAND FREE ENERGY PREDICTED BY IDOCK:  -11.16 KCAL/MOL
REMARK 924 INTRA-LIGAND FREE ENERGY PREDICTED BY IDOCK:   -0.53 KCAL/MOL
REMARK 927      BINDING AFFINITY PREDICTED BY RF-SCORE:    0.00 PKD
ROOT
HETATM    1  C   UNL     1      -9.546   6.498  74.546  1.00  0.00    -0.282 C  
HETATM    2  O   UNL     1     -10.297   7.394  73.731  1.00  0.00    -0.348 OA 
ENDROOT
BRANCH   2   3
HETATM    3  C   UNL     1     -10.539   6.984  72.444  1.00  0.00    -0.223 A  
HETATM    4  C   UNL     1     -10.228   5.681  72.023  1.00  0.00    -0.252 A  
HETATM    5  C   UNL     1     -10.524   5.255  70.728  1.00  0.00    -0.298 A  
HETATM    6  C   UNL     1     -11.109   6.134  69.826  1.00  0.00    -0.486 A  
HETATM    7  C   UNL     1     -11.376   7.445  70.216  1.00  0.00    -0.244 A  
HETATM    8  C   UNL     1     -11.088   7.891  71.515  1.00  0.00    -0.241 A  
BRANCH   8   9
HETATM    9  O   UNL     1     -11.429   9.210  71.694  1.00  0.00    -0.333 OA 
BRANCH   9  10
HETATM   10  C   UNL     1     -11.661   9.986  70.524  1.00  0.00    -0.318 C  
BRANCH  10  11
HETATM   11  C   UNL     1     -12.464  11.250  70.876  1.00  0.00    -0.394 C  
BRANCH  11  12
HETATM   12  N   UNL     1     -11.842  12.500  70.404  1.00  0.00    -0.550 NA 
HETATM   13  H   UNL     1     -11.985  12.628  69.402  1.00  0.00     0.000 HD 
BRANCH  12  14
HETATM   14  C   UNL     1     -12.307  13.681  71.165  1.00  0.00    -0.318 C  
BRANCH  14  15
HETATM   15  C   UNL     1     -12.898  14.775  70.249  1.00  0.00    -0.217 C  
HETATM   16  O   UNL     1     -13.943  15.462  70.944  1.00  0.00    -0.796 OA 
HETATM   17  H   UNL     1     -14.306  16.136  70.381  1.00  0.00     0.000 HD 
BRANCH  15  18
HETATM   18  C   UNL     1     -11.800  15.752  69.812  1.00  0.00    -0.341 C  
BRANCH  18  19
HETATM   19  O   UNL     1     -10.733  15.064  69.167  1.00  0.00    -0.231 OA 
BRANCH  19  20
HETATM   20  C   UNL     1     -10.838  14.943  67.802  1.00  0.00    -0.286 A  
HETATM   21  C   UNL     1     -11.126  13.743  67.127  1.00  0.00    -0.315 A  
HETATM   22  C   UNL     1     -11.247  13.700  65.742  1.00  0.00    -0.302 A  
HETATM   23  C   UNL     1     -11.086  14.849  64.970  1.00  0.00    -0.422 A  
HETATM   24  C   UNL     1     -10.790  16.040  65.644  1.00  0.00    -0.266 A  
HETATM   25  C   UNL     1     -10.656  16.118  67.032  1.00  0.00    -0.292 A  
HETATM   26  C   UNL     1     -10.334  17.479  67.350  1.00  0.00    -0.351 A  
HETATM   27  C   UNL     1     -10.063  18.169  68.552  1.00  0.00    -0.413 A  
HETATM   28  C   UNL     1      -9.783  19.539  68.516  1.00  0.00    -0.503 A  
HETATM   29  C   UNL     1      -9.769  20.225  67.304  1.00  0.00    -0.590 A  
HETATM   30  C   UNL     1     -10.029  19.567  66.099  1.00  0.00    -0.526 A  
HETATM   31  C   UNL     1     -10.303  18.194  66.156  1.00  0.00    -0.385 A  
HETATM   32  N   UNL     1     -10.579  17.306  65.148  1.00  0.00    -0.638 NA 
HETATM   33  H   UNL     1     -10.623  17.552  64.158  1.00  0.00     0.000 HD 
ENDBRANCH  19  20
ENDBRANCH  18  19
ENDBRANCH  15  18
ENDBRANCH  14  15
ENDBRANCH  12  14
ENDBRANCH  11  12
ENDBRANCH  10  11
ENDBRANCH   9  10
ENDBRANCH   8   9
ENDBRANCH   2   3
TORSDOF 10
ENDMDL
MODEL       45
REMARK 921   NORMALIZED FREE ENERGY PREDICTED BY IDOCK:   -6.18 KCAL/MOL
REMARK 922        TOTAL FREE ENERGY PREDICTED BY IDOCK:  -11.65 KCAL/MOL
REMARK 923 INTER-LIGAND FREE ENERGY PREDICTED BY IDOCK:  -10.11 KCAL/MOL
REMARK 924 INTRA-LIGAND FREE ENERGY PREDICTED BY IDOCK:   -1.54 KCAL/MOL
REMARK 927      BINDING AFFINITY PREDICTED BY RF-SCORE:    0.00 PKD
ROOT
HETATM    1  C   UNL     1     -10.516   5.531  68.728  1.00  0.00    -0.191 C  
HETATM    2  O   UNL     1     -11.466   6.330  69.429  1.00  0.00    -0.427 OA 
ENDROOT
BRANCH   2   3
HETATM    3  C   UNL     1     -11.195   6.574  70.751  1.00  0.00    -0.321 A  
HETATM    4  C   UNL     1     -10.733   5.555  71.601  1.00  0.00    -0.296 A  
HETATM    5  C   UNL     1     -10.411   5.822  72.932  1.00  0.00    -0.244 A  
HETATM    6  C   UNL     1     -10.571   7.104  73.440  1.00  0.00    -0.424 A  
HETATM    7  C   UNL     1     -11.077   8.112  72.621  1.00  0.00    -0.450 A  
HETATM    8  C   UNL     1     -11.404   7.863  71.279  1.00  0.00    -0.260 A  
BRANCH   8   9
HETATM    9  O   UNL     1     -11.882   8.988  70.650  1.00  0.00    -0.255 OA 
BRANCH   9  10
HETATM   10  C   UNL     1     -12.065  10.151  71.447  1.00  0.00    -0.382 C  
BRANCH  10  11
HETATM   11  C   UNL     1     -12.591  11.310  70.584  1.00  0.00    -0.288 C  
BRANCH  11  12
HETATM   12  N   UNL     1     -11.567  12.318  70.252  1.00  0.00    -0.533 NA 
HETATM   13  H   UNL     1     -11.031  12.042  69.429  1.00  0.00     0.000 HD 
BRANCH  12  14
HETATM   14  C   UNL     1     -12.143  13.670  70.086  1.00  0.00    -0.361 C  
BRANCH  14  15
HETATM   15  C   UNL     1     -11.305  14.554  69.136  1.00  0.00    -0.277 C  
HETATM   16  O   UNL     1      -9.930  14.164  69.215  1.00  0.00    -0.423 OA 
HETATM   17  H   UNL     1      -9.414  14.708  68.631  1.00  0.00     0.000 HD 
BRANCH  15  18
HETATM   18  C   UNL     1     -11.824  14.431  67.698  1.00  0.00    -0.378 C  
BRANCH  18  19
HETATM   19  O   UNL     1     -11.966  13.064  67.324  1.00  0.00    -0.366 OA 
BRANCH  19  20
HETATM   20  C   UNL     1     -11.805  12.791  65.987  1.00  0.00    -0.439 A  
HETATM   21  C   UNL     1     -12.340  13.569  64.943  1.00  0.00    -0.447 A  
HETATM   22  C   UNL     1     -12.112  13.249  63.609  1.00  0.00    -0.551 A  
HETATM   23  C   UNL     1     -11.341  12.142  63.256  1.00  0.00    -0.410 A  
HETATM   24  C   UNL     1     -10.818  11.366  64.297  1.00  0.00    -0.349 A  
HETATM   25  C   UNL     1     -11.032  11.654  65.646  1.00  0.00    -0.322 A  
HETATM   26  C   UNL     1     -10.365  10.636  66.407  1.00  0.00    -0.291 A  
HETATM   27  C   UNL     1     -10.234  10.371  67.787  1.00  0.00    -0.229 A  
HETATM   28  C   UNL     1      -9.488   9.266  68.213  1.00  0.00    -0.148 A  
HETATM   29  C   UNL     1      -8.875   8.429  67.283  1.00  0.00    -0.137 A  
HETATM   30  C   UNL     1      -8.993   8.665  65.910  1.00  0.00    -0.245 A  
HETATM   31  C   UNL     1      -9.748   9.774  65.506  1.00  0.00    -0.312 A  
HETATM   32  N   UNL     1     -10.036  10.234  64.246  1.00  0.00    -0.351 NA 
HETATM   33  H   UNL     1      -9.713   9.794  63.384  1.00  0.00     0.000 HD 
ENDBRANCH  19  20
ENDBRANCH  18  19
ENDBRANCH  15  18
ENDBRANCH  14  15
ENDBRANCH  12  14
ENDBRANCH  11  12
ENDBRANCH  10  11
ENDBRANCH   9  10
ENDBRANCH   8   9
ENDBRANCH   2   3
TORSDOF 10
ENDMDL
MODEL       46
REMARK 921   NORMALIZED FREE ENERGY PREDICTED BY IDOCK:   -6.18 KCAL/MOL
REMARK 922        TOTAL FREE ENERGY PREDICTED BY IDOCK:  -11.64 KCAL/MOL
REMARK 923 INTER-LIGAND FREE ENERGY PREDICTED BY IDOCK:  -10.67 KCAL/MOL
REMARK 924 INTRA-LIGAND FREE ENERGY PREDICTED BY IDOCK:   -0.97 KCAL/MOL
REMARK 927      BINDING AFFINITY PREDICTED BY RF-SCORE:    0.00 PKD
ROOT
HETATM    1  C   UNL     1     -10.650   4.056  74.034  1.00  0.00    -0.232 C  
HETATM    2  O   UNL     1     -11.072   5.308  73.499  1.00  0.00    -0.302 OA 
ENDROOT
BRANCH   2   3
HETATM    3  C   UNL     1     -10.947   5.460  72.141  1.00  0.00    -0.201 A  
HETATM    4  C   UNL     1     -10.100   4.629  71.389  1.00  0.00    -0.248 A  
HETATM    5  C   UNL     1     -10.016   4.756  70.003  1.00  0.00    -0.314 A  
HETATM    6  C   UNL     1     -10.755   5.733  69.350  1.00  0.00    -0.397 A  
HETATM    7  C   UNL     1     -11.560   6.597  70.091  1.00  0.00    -0.446 A  
HETATM    8  C   UNL     1     -11.660   6.483  71.485  1.00  0.00    -0.315 A  
BRANCH   8   9
HETATM    9  O   UNL     1     -12.505   7.427  72.020  1.00  0.00    -0.297 OA 
BRANCH   9  10
HETATM   10  C   UNL     1     -12.021   8.761  72.100  1.00  0.00    -0.366 C  
BRANCH  10  11
HETATM   11  C   UNL     1     -13.138   9.754  71.734  1.00  0.00    -0.431 C  
BRANCH  11  12
HETATM   12  N   UNL     1     -13.063  10.249  70.347  1.00  0.00    -0.546 NA 
HETATM   13  H   UNL     1     -13.985  10.520  70.003  1.00  0.00     0.000 HD 
BRANCH  12  14
HETATM   14  C   UNL     1     -12.091  11.354  70.197  1.00  0.00    -0.357 C  
BRANCH  14  15
HETATM   15  C   UNL     1     -10.914  10.979  69.271  1.00  0.00    -0.252 C  
HETATM   16  O   UNL     1     -11.329   9.950  68.368  1.00  0.00    -0.508 OA 
HETATM   17  H   UNL     1     -10.604   9.720  67.798  1.00  0.00     0.000 HD 
BRANCH  15  18
HETATM   18  C   UNL     1     -10.427  12.215  68.504  1.00  0.00    -0.233 C  
BRANCH  18  19
HETATM   19  O   UNL     1     -11.525  13.011  68.072  1.00  0.00    -0.269 OA 
BRANCH  19  20
HETATM   20  C   UNL     1     -11.612  13.227  66.717  1.00  0.00    -0.365 A  
HETATM   21  C   UNL     1     -12.000  12.254  65.778  1.00  0.00    -0.362 A  
HETATM   22  C   UNL     1     -12.095  12.551  64.422  1.00  0.00    -0.500 A  
HETATM   23  C   UNL     1     -11.808  13.829  63.944  1.00  0.00    -0.368 A  
HETATM   24  C   UNL     1     -11.413  14.792  64.881  1.00  0.00    -0.412 A  
HETATM   25  C   UNL     1     -11.302  14.526  66.247  1.00  0.00    -0.352 A  
HETATM   26  C   UNL     1     -10.858  15.736  66.878  1.00  0.00    -0.265 A  
HETATM   27  C   UNL     1     -10.548  16.093  68.209  1.00  0.00    -0.288 A  
HETATM   28  C   UNL     1     -10.136  17.398  68.499  1.00  0.00    -0.352 A  
HETATM   29  C   UNL     1     -10.031  18.346  67.484  1.00  0.00    -0.349 A  
HETATM   30  C   UNL     1     -10.328  18.019  66.157  1.00  0.00    -0.368 A  
HETATM   31  C   UNL     1     -10.734  16.705  65.888  1.00  0.00    -0.175 A  
HETATM   32  N   UNL     1     -11.072  16.113  64.698  1.00  0.00    -0.800 NA 
HETATM   33  H   UNL     1     -11.071  16.588  63.796  1.00  0.00     0.000 HD 
ENDBRANCH  19  20
ENDBRANCH  18  19
ENDBRANCH  15  18
ENDBRANCH  14  15
ENDBRANCH  12  14
ENDBRANCH  11  12
ENDBRANCH  10  11
ENDBRANCH   9  10
ENDBRANCH   8   9
ENDBRANCH   2   3
TORSDOF 10
ENDMDL
MODEL       47
REMARK 921   NORMALIZED FREE ENERGY PREDICTED BY IDOCK:   -6.18 KCAL/MOL
REMARK 922        TOTAL FREE ENERGY PREDICTED BY IDOCK:  -11.63 KCAL/MOL
REMARK 923 INTER-LIGAND FREE ENERGY PREDICTED BY IDOCK:   -9.90 KCAL/MOL
REMARK 924 INTRA-LIGAND FREE ENERGY PREDICTED BY IDOCK:   -1.74 KCAL/MOL
REMARK 927      BINDING AFFINITY PREDICTED BY RF-SCORE:    0.00 PKD
ROOT
HETATM    1  C   UNL     1     -12.403  14.252  66.038  1.00  0.00    -0.395 C  
HETATM    2  O   UNL     1     -12.715  12.930  65.602  1.00  0.00    -0.537 OA 
ENDROOT
BRANCH   2   3
HETATM    3  C   UNL     1     -11.665  12.186  65.126  1.00  0.00    -0.310 A  
HETATM    4  C   UNL     1     -11.196  12.344  63.811  1.00  0.00    -0.520 A  
HETATM    5  C   UNL     1     -10.096  11.621  63.350  1.00  0.00    -0.468 A  
HETATM    6  C   UNL     1      -9.467  10.708  64.186  1.00  0.00    -0.327 A  
HETATM    7  C   UNL     1      -9.954  10.505  65.476  1.00  0.00    -0.342 A  
HETATM    8  C   UNL     1     -11.058  11.225  65.958  1.00  0.00    -0.116 A  
BRANCH   8   9
HETATM    9  O   UNL     1     -11.374  10.877  67.250  1.00  0.00    -0.415 OA 
BRANCH   9  10
HETATM   10  C   UNL     1     -10.875  11.709  68.289  1.00  0.00    -0.219 C  
BRANCH  10  11
HETATM   11  C   UNL     1     -12.029  12.194  69.183  1.00  0.00    -0.255 C  
BRANCH  11  12
HETATM   12  N   UNL     1     -11.605  13.108  70.259  1.00  0.00    -0.531 NA 
HETATM   13  H   UNL     1     -10.703  13.534  70.046  1.00  0.00     0.000 HD 
BRANCH  12  14
HETATM   14  C   UNL     1     -12.625  14.137  70.555  1.00  0.00    -0.342 C  
BRANCH  14  15
HETATM   15  C   UNL     1     -12.068  15.572  70.426  1.00  0.00    -0.392 C  
HETATM   16  O   UNL     1     -12.321  16.291  71.637  1.00  0.00    -0.593 OA 
HETATM   17  H   UNL     1     -11.978  17.173  71.557  1.00  0.00     0.000 HD 
BRANCH  15  18
HETATM   18  C   UNL     1     -10.565  15.533  70.119  1.00  0.00    -0.320 C  
BRANCH  18  19
HETATM   19  O   UNL     1     -10.335  15.259  68.741  1.00  0.00    -0.219 OA 
BRANCH  19  20
HETATM   20  C   UNL     1      -9.026  15.337  68.327  1.00  0.00    -0.176 A  
HETATM   21  C   UNL     1      -8.076  14.311  68.488  1.00  0.00    -0.147 A  
HETATM   22  C   UNL     1      -6.774  14.447  68.016  1.00  0.00    -0.154 A  
HETATM   23  C   UNL     1      -6.363  15.608  67.365  1.00  0.00    -0.144 A  
HETATM   24  C   UNL     1      -7.308  16.630  67.215  1.00  0.00    -0.171 A  
HETATM   25  C   UNL     1      -8.620  16.530  67.680  1.00  0.00    -0.189 A  
HETATM   26  C   UNL     1      -9.277  17.767  67.366  1.00  0.00    -0.248 A  
HETATM   27  C   UNL     1     -10.575  18.275  67.591  1.00  0.00    -0.427 A  
HETATM   28  C   UNL     1     -10.906  19.556  67.139  1.00  0.00    -0.555 A  
HETATM   29  C   UNL     1      -9.964  20.333  66.468  1.00  0.00    -0.528 A  
HETATM   30  C   UNL     1      -8.669  19.857  66.236  1.00  0.00    -0.384 A  
HETATM   31  C   UNL     1      -8.357  18.573  66.702  1.00  0.00    -0.272 A  
HETATM   32  N   UNL     1      -7.184  17.867  66.625  1.00  0.00    -0.202 NA 
HETATM   33  H   UNL     1      -6.330  18.214  66.187  1.00  0.00     0.000 HD 
ENDBRANCH  19  20
ENDBRANCH  18  19
ENDBRANCH  15  18
ENDBRANCH  14  15
ENDBRANCH  12  14
ENDBRANCH  11  12
ENDBRANCH  10  11
ENDBRANCH   9  10
ENDBRANCH   8   9
ENDBRANCH   2   3
TORSDOF 10
ENDMDL
MODEL       48
REMARK 921   NORMALIZED FREE ENERGY PREDICTED BY IDOCK:   -6.17 KCAL/MOL
REMARK 922        TOTAL FREE ENERGY PREDICTED BY IDOCK:  -11.62 KCAL/MOL
REMARK 923 INTER-LIGAND FREE ENERGY PREDICTED BY IDOCK:  -10.10 KCAL/MOL
REMARK 924 INTRA-LIGAND FREE ENERGY PREDICTED BY IDOCK:   -1.53 KCAL/MOL
REMARK 927      BINDING AFFINITY PREDICTED BY RF-SCORE:    0.00 PKD
ROOT
HETATM    1  C   UNL     1      -7.638  19.879  65.965  1.00  0.00    -0.325 C  
HETATM    2  O   UNL     1      -7.368  19.859  67.365  1.00  0.00    -0.239 OA 
ENDROOT
BRANCH   2   3
HETATM    3  C   UNL     1      -7.160  18.624  67.925  1.00  0.00    -0.233 A  
HETATM    4  C   UNL     1      -5.876  18.056  67.986  1.00  0.00    -0.163 A  
HETATM    5  C   UNL     1      -5.665  16.823  68.601  1.00  0.00    -0.124 A  
HETATM    6  C   UNL     1      -6.737  16.125  69.141  1.00  0.00    -0.190 A  
HETATM    7  C   UNL     1      -8.023  16.653  69.041  1.00  0.00    -0.208 A  
HETATM    8  C   UNL     1      -8.255  17.894  68.428  1.00  0.00    -0.300 A  
BRANCH   8   9
HETATM    9  O   UNL     1      -9.587  18.231  68.438  1.00  0.00    -0.306 OA 
BRANCH   9  10
HETATM   10  C   UNL     1     -10.489  17.338  67.795  1.00  0.00    -0.371 C  
BRANCH  10  11
HETATM   11  C   UNL     1     -10.401  17.502  66.268  1.00  0.00    -0.335 C  
BRANCH  11  12
HETATM   12  N   UNL     1      -9.905  16.303  65.568  1.00  0.00    -0.508 NA 
HETATM   13  H   UNL     1      -9.481  15.644  66.221  1.00  0.00     0.000 HD 
BRANCH  12  14
HETATM   14  C   UNL     1     -10.956  15.651  64.757  1.00  0.00    -0.400 C  
BRANCH  14  15
HETATM   15  C   UNL     1     -11.142  14.163  65.123  1.00  0.00    -0.348 C  
HETATM   16  O   UNL     1      -9.865  13.519  65.158  1.00  0.00    -0.539 OA 
HETATM   17  H   UNL     1      -9.980  12.603  65.383  1.00  0.00     0.000 HD 
BRANCH  15  18
HETATM   18  C   UNL     1     -11.855  14.033  66.475  1.00  0.00    -0.417 C  
BRANCH  18  19
HETATM   19  O   UNL     1     -10.928  13.728  67.511  1.00  0.00    -0.265 OA 
BRANCH  19  20
HETATM   20  C   UNL     1     -11.106  12.516  68.136  1.00  0.00    -0.243 A  
HETATM   21  C   UNL     1     -10.681  11.280  67.614  1.00  0.00    -0.270 A  
HETATM   22  C   UNL     1     -10.868  10.094  68.316  1.00  0.00    -0.297 A  
HETATM   23  C   UNL     1     -11.485  10.086  69.566  1.00  0.00    -0.176 A  
HETATM   24  C   UNL     1     -11.914  11.317  70.077  1.00  0.00    -0.368 A  
HETATM   25  C   UNL     1     -11.748  12.526  69.398  1.00  0.00    -0.383 A  
HETATM   26  C   UNL     1     -12.325  13.554  70.216  1.00  0.00    -0.370 A  
HETATM   27  C   UNL     1     -12.485  14.949  70.072  1.00  0.00    -0.320 A  
HETATM   28  C   UNL     1     -13.105  15.684  71.088  1.00  0.00    -0.523 A  
HETATM   29  C   UNL     1     -13.564  15.048  72.239  1.00  0.00    -0.547 A  
HETATM   30  C   UNL     1     -13.423  13.667  72.407  1.00  0.00    -0.685 A  
HETATM   31  C   UNL     1     -12.804  12.949  71.375  1.00  0.00    -0.283 A  
HETATM   32  N   UNL     1     -12.545  11.607  71.266  1.00  0.00    -0.361 NA 
HETATM   33  H   UNL     1     -12.789  10.913  71.973  1.00  0.00     0.000 HD 
ENDBRANCH  19  20
ENDBRANCH  18  19
ENDBRANCH  15  18
ENDBRANCH  14  15
ENDBRANCH  12  14
ENDBRANCH  11  12
ENDBRANCH  10  11
ENDBRANCH   9  10
ENDBRANCH   8   9
ENDBRANCH   2   3
TORSDOF 10
ENDMDL
MODEL       49
REMARK 921   NORMALIZED FREE ENERGY PREDICTED BY IDOCK:   -6.13 KCAL/MOL
REMARK 922        TOTAL FREE ENERGY PREDICTED BY IDOCK:  -11.56 KCAL/MOL
REMARK 923 INTER-LIGAND FREE ENERGY PREDICTED BY IDOCK:  -10.30 KCAL/MOL
REMARK 924 INTRA-LIGAND FREE ENERGY PREDICTED BY IDOCK:   -1.26 KCAL/MOL
REMARK 927      BINDING AFFINITY PREDICTED BY RF-SCORE:    0.00 PKD
ROOT
HETATM    1  C   UNL     1      -7.688   3.312  70.020  1.00  0.00    -0.043 C  
HETATM    2  O   UNL     1      -9.105   3.273  69.859  1.00  0.00    -0.099 OA 
ENDROOT
BRANCH   2   3
HETATM    3  C   UNL     1      -9.649   4.236  69.047  1.00  0.00    -0.170 A  
HETATM    4  C   UNL     1      -9.482   4.194  67.653  1.00  0.00    -0.225 A  
HETATM    5  C   UNL     1     -10.080   5.147  66.830  1.00  0.00    -0.264 A  
HETATM    6  C   UNL     1     -10.831   6.173  67.389  1.00  0.00    -0.431 A  
HETATM    7  C   UNL     1     -10.961   6.255  68.774  1.00  0.00    -0.424 A  
HETATM    8  C   UNL     1     -10.369   5.304  69.618  1.00  0.00    -0.278 A  
BRANCH   8   9
HETATM    9  O   UNL     1     -10.620   5.566  70.944  1.00  0.00    -0.247 OA 
BRANCH   9  10
HETATM   10  C   UNL     1      -9.983   6.702  71.514  1.00  0.00    -0.175 C  
BRANCH  10  11
HETATM   11  C   UNL     1     -10.472   6.918  72.956  1.00  0.00    -0.264 C  
BRANCH  11  12
HETATM   12  N   UNL     1     -11.766   7.620  73.047  1.00  0.00    -0.616 NA 
HETATM   13  H   UNL     1     -11.950   7.931  74.001  1.00  0.00     0.000 HD 
BRANCH  12  14
HETATM   14  C   UNL     1     -11.864   8.744  72.091  1.00  0.00    -0.366 C  
BRANCH  14  15
HETATM   15  C   UNL     1     -13.293   9.321  72.006  1.00  0.00    -0.450 C  
HETATM   16  O   UNL     1     -14.004   9.009  73.208  1.00  0.00    -1.205 OA 
HETATM   17  H   UNL     1     -14.884   9.364  73.156  1.00  0.00     0.000 HD 
BRANCH  15  18
HETATM   18  C   UNL     1     -13.242  10.837  71.782  1.00  0.00    -0.418 C  
BRANCH  18  19
HETATM   19  O   UNL     1     -12.155  11.189  70.933  1.00  0.00    -0.346 OA 
BRANCH  19  20
HETATM   20  C   UNL     1     -12.187  12.463  70.417  1.00  0.00    -0.287 A  
HETATM   21  C   UNL     1     -12.631  13.598  71.120  1.00  0.00    -0.452 A  
HETATM   22  C   UNL     1     -12.608  14.864  70.544  1.00  0.00    -0.414 A  
HETATM   23  C   UNL     1     -12.142  15.055  69.245  1.00  0.00    -0.282 A  
HETATM   24  C   UNL     1     -11.709  13.922  68.545  1.00  0.00    -0.355 A  
HETATM   25  C   UNL     1     -11.723  12.637  69.090  1.00  0.00    -0.375 A  
HETATM   26  C   UNL     1     -11.232  11.744  68.080  1.00  0.00    -0.324 A  
HETATM   27  C   UNL     1     -11.032  10.348  68.017  1.00  0.00    -0.347 A  
HETATM   28  C   UNL     1     -10.516   9.773  66.850  1.00  0.00    -0.281 A  
HETATM   29  C   UNL     1     -10.197  10.570  65.753  1.00  0.00    -0.310 A  
HETATM   30  C   UNL     1     -10.389  11.955  65.786  1.00  0.00    -0.285 A  
HETATM   31  C   UNL     1     -10.912  12.509  66.962  1.00  0.00    -0.267 A  
HETATM   32  N   UNL     1     -11.208  13.813  67.268  1.00  0.00    -0.301 NA 
HETATM   33  H   UNL     1     -11.075  14.599  66.631  1.00  0.00     0.000 HD 
ENDBRANCH  19  20
ENDBRANCH  18  19
ENDBRANCH  15  18
ENDBRANCH  14  15
ENDBRANCH  12  14
ENDBRANCH  11  12
ENDBRANCH  10  11
ENDBRANCH   9  10
ENDBRANCH   8   9
ENDBRANCH   2   3
TORSDOF 10
ENDMDL
MODEL       50
REMARK 921   NORMALIZED FREE ENERGY PREDICTED BY IDOCK:   -6.13 KCAL/MOL
REMARK 922        TOTAL FREE ENERGY PREDICTED BY IDOCK:  -11.56 KCAL/MOL
REMARK 923 INTER-LIGAND FREE ENERGY PREDICTED BY IDOCK:  -10.62 KCAL/MOL
REMARK 924 INTRA-LIGAND FREE ENERGY PREDICTED BY IDOCK:   -0.94 KCAL/MOL
REMARK 927      BINDING AFFINITY PREDICTED BY RF-SCORE:    0.00 PKD
ROOT
HETATM    1  C   UNL     1     -10.015  19.782  68.891  1.00  0.00    -0.397 C  
HETATM    2  O   UNL     1      -9.088  19.762  67.808  1.00  0.00    -0.319 OA 
ENDROOT
BRANCH   2   3
HETATM    3  C   UNL     1      -7.950  19.020  67.998  1.00  0.00    -0.289 A  
HETATM    4  C   UNL     1      -7.092  19.265  69.083  1.00  0.00    -0.370 A  
HETATM    5  C   UNL     1      -5.964  18.474  69.299  1.00  0.00    -0.245 A  
HETATM    6  C   UNL     1      -5.661  17.444  68.419  1.00  0.00    -0.154 A  
HETATM    7  C   UNL     1      -6.476  17.223  67.310  1.00  0.00    -0.186 A  
HETATM    8  C   UNL     1      -7.617  18.006  67.078  1.00  0.00    -0.217 A  
BRANCH   8   9
HETATM    9  O   UNL     1      -8.280  17.623  65.936  1.00  0.00    -0.534 OA 
BRANCH   9  10
HETATM   10  C   UNL     1      -9.209  16.553  66.052  1.00  0.00    -0.260 C  
BRANCH  10  11
HETATM   11  C   UNL     1     -10.616  17.026  65.651  1.00  0.00    -0.197 C  
BRANCH  11  12
HETATM   12  N   UNL     1     -11.143  16.368  64.441  1.00  0.00    -1.145 NA 
HETATM   13  H   UNL     1     -10.668  16.703  63.603  1.00  0.00     0.000 HD 
BRANCH  12  14
HETATM   14  C   UNL     1     -11.086  14.893  64.534  1.00  0.00    -0.235 C  
BRANCH  14  15
HETATM   15  C   UNL     1     -12.115  14.327  65.537  1.00  0.00    -0.394 C  
HETATM   16  O   UNL     1     -13.019  13.457  64.850  1.00  0.00    -0.717 OA 
HETATM   17  H   UNL     1     -13.652  13.108  65.468  1.00  0.00     0.000 HD 
BRANCH  15  18
HETATM   18  C   UNL     1     -11.397  13.581  66.670  1.00  0.00    -0.322 C  
BRANCH  18  19
HETATM   19  O   UNL     1     -11.973  12.296  66.878  1.00  0.00    -0.578 OA 
BRANCH  19  20
HETATM   20  C   UNL     1     -11.149  11.224  66.634  1.00  0.00    -0.235 A  
HETATM   21  C   UNL     1     -10.534  10.956  65.396  1.00  0.00    -0.291 A  
HETATM   22  C   UNL     1      -9.686   9.866  65.228  1.00  0.00    -0.383 A  
HETATM   23  C   UNL     1      -9.412   8.998  66.283  1.00  0.00    -0.306 A  
HETATM   24  C   UNL     1     -10.032   9.263  67.511  1.00  0.00    -0.202 A  
HETATM   25  C   UNL     1     -10.893  10.343  67.713  1.00  0.00    -0.351 A  
HETATM   26  C   UNL     1     -11.344  10.276  69.074  1.00  0.00    -0.237 A  
HETATM   27  C   UNL     1     -12.224  11.055  69.856  1.00  0.00    -0.408 A  
HETATM   28  C   UNL     1     -12.449  10.713  71.194  1.00  0.00    -0.523 A  
HETATM   29  C   UNL     1     -11.811   9.610  71.757  1.00  0.00    -0.391 A  
HETATM   30  C   UNL     1     -10.939   8.819  71.004  1.00  0.00    -0.328 A  
HETATM   31  C   UNL     1     -10.730   9.176  69.665  1.00  0.00    -0.225 A  
HETATM   32  N   UNL     1      -9.949   8.585  68.706  1.00  0.00    -0.181 NA 
HETATM   33  H   UNL     1      -9.381   7.751  68.857  1.00  0.00     0.000 HD 
ENDBRANCH  19  20
ENDBRANCH  18  19
ENDBRANCH  15  18
ENDBRANCH  14  15
ENDBRANCH  12  14
ENDBRANCH  11  12
ENDBRANCH  10  11
ENDBRANCH   9  10
ENDBRANCH   8   9
ENDBRANCH   2   3
TORSDOF 10
ENDMDL
MODEL       51
REMARK 921   NORMALIZED FREE ENERGY PREDICTED BY IDOCK:   -6.13 KCAL/MOL
REMARK 922        TOTAL FREE ENERGY PREDICTED BY IDOCK:  -11.55 KCAL/MOL
REMARK 923 INTER-LIGAND FREE ENERGY PREDICTED BY IDOCK:  -10.22 KCAL/MOL
REMARK 924 INTRA-LIGAND FREE ENERGY PREDICTED BY IDOCK:   -1.34 KCAL/MOL
REMARK 927      BINDING AFFINITY PREDICTED BY RF-SCORE:    0.00 PKD
ROOT
HETATM    1  C   UNL     1      -7.368   8.723  71.281  1.00  0.00    -0.098 C  
HETATM    2  O   UNL     1      -8.517   9.452  70.853  1.00  0.00    -0.246 OA 
ENDROOT
BRANCH   2   3
HETATM    3  C   UNL     1      -9.052   9.084  69.644  1.00  0.00    -0.154 A  
HETATM    4  C   UNL     1      -8.817   9.838  68.483  1.00  0.00    -0.121 A  
HETATM    5  C   UNL     1      -9.322   9.430  67.248  1.00  0.00    -0.159 A  
HETATM    6  C   UNL     1     -10.092   8.278  67.161  1.00  0.00    -0.334 A  
HETATM    7  C   UNL     1     -10.375   7.549  68.314  1.00  0.00    -0.233 A  
HETATM    8  C   UNL     1      -9.874   7.942  69.564  1.00  0.00    -0.176 A  
BRANCH   8   9
HETATM    9  O   UNL     1     -10.267   7.088  70.567  1.00  0.00    -0.194 OA 
BRANCH   9  10
HETATM   10  C   UNL     1     -11.509   6.417  70.401  1.00  0.00    -0.393 C  
BRANCH  10  11
HETATM   11  C   UNL     1     -12.420   6.676  71.613  1.00  0.00    -0.303 C  
BRANCH  11  12
HETATM   12  N   UNL     1     -12.074   7.895  72.368  1.00  0.00    -0.489 NA 
HETATM   13  H   UNL     1     -11.151   8.241  72.107  1.00  0.00     0.000 HD 
BRANCH  12  14
HETATM   14  C   UNL     1     -13.099   8.953  72.226  1.00  0.00    -0.436 C  
BRANCH  14  15
HETATM   15  C   UNL     1     -12.560  10.199  71.490  1.00  0.00    -0.434 C  
HETATM   16  O   UNL     1     -12.831  10.077  70.090  1.00  0.00    -0.551 OA 
HETATM   17  H   UNL     1     -12.499  10.844  69.637  1.00  0.00     0.000 HD 
BRANCH  15  18
HETATM   18  C   UNL     1     -13.200  11.471  72.060  1.00  0.00    -0.337 C  
BRANCH  18  19
HETATM   19  O   UNL     1     -13.139  12.537  71.118  1.00  0.00    -0.207 OA 
BRANCH  19  20
HETATM   20  C   UNL     1     -12.754  13.757  71.620  1.00  0.00    -0.321 A  
HETATM   21  C   UNL     1     -12.953  14.172  72.949  1.00  0.00    -0.498 A  
HETATM   22  C   UNL     1     -12.509  15.412  73.397  1.00  0.00    -0.633 A  
HETATM   23  C   UNL     1     -11.849  16.292  72.541  1.00  0.00    -0.608 A  
HETATM   24  C   UNL     1     -11.661  15.879  71.216  1.00  0.00    -0.448 A  
HETATM   25  C   UNL     1     -12.098  14.645  70.732  1.00  0.00    -0.387 A  
HETATM   26  C   UNL     1     -11.750  14.589  69.341  1.00  0.00    -0.361 A  
HETATM   27  C   UNL     1     -11.937  13.631  68.320  1.00  0.00    -0.385 A  
HETATM   28  C   UNL     1     -11.457  13.889  67.032  1.00  0.00    -0.367 A  
HETATM   29  C   UNL     1     -10.796  15.083  66.751  1.00  0.00    -0.318 A  
HETATM   30  C   UNL     1     -10.601  16.051  67.742  1.00  0.00    -0.309 A  
HETATM   31  C   UNL     1     -11.094  15.774  69.024  1.00  0.00    -0.282 A  
HETATM   32  N   UNL     1     -11.055  16.531  70.167  1.00  0.00    -0.433 NA 
HETATM   33  H   UNL     1     -10.631  17.458  70.231  1.00  0.00     0.000 HD 
ENDBRANCH  19  20
ENDBRANCH  18  19
ENDBRANCH  15  18
ENDBRANCH  14  15
ENDBRANCH  12  14
ENDBRANCH  11  12
ENDBRANCH  10  11
ENDBRANCH   9  10
ENDBRANCH   8   9
ENDBRANCH   2   3
TORSDOF 10
ENDMDL
MODEL       52
REMARK 921   NORMALIZED FREE ENERGY PREDICTED BY IDOCK:   -6.12 KCAL/MOL
REMARK 922        TOTAL FREE ENERGY PREDICTED BY IDOCK:  -11.54 KCAL/MOL
REMARK 923 INTER-LIGAND FREE ENERGY PREDICTED BY IDOCK:  -10.06 KCAL/MOL
REMARK 924 INTRA-LIGAND FREE ENERGY PREDICTED BY IDOCK:   -1.47 KCAL/MOL
REMARK 927      BINDING AFFINITY PREDICTED BY RF-SCORE:    0.00 PKD
ROOT
HETATM    1  C   UNL     1     -12.061  14.538  66.595  1.00  0.00    -0.296 C  
HETATM    2  O   UNL     1     -12.237  13.125  66.526  1.00  0.00    -0.378 OA 
ENDROOT
BRANCH   2   3
HETATM    3  C   UNL     1     -11.655  12.493  65.456  1.00  0.00    -0.386 A  
HETATM    4  C   UNL     1     -12.227  12.553  64.174  1.00  0.00    -0.552 A  
HETATM    5  C   UNL     1     -11.604  11.952  63.081  1.00  0.00    -0.234 A  
HETATM    6  C   UNL     1     -10.414  11.258  63.257  1.00  0.00    -0.370 A  
HETATM    7  C   UNL     1      -9.863  11.148  64.533  1.00  0.00    -0.330 A  
HETATM    8  C   UNL     1     -10.475  11.748  65.644  1.00  0.00    -0.265 A  
BRANCH   8   9
HETATM    9  O   UNL     1      -9.771  11.521  66.803  1.00  0.00    -0.194 OA 
BRANCH   9  10
HETATM   10  C   UNL     1      -8.490  12.128  66.914  1.00  0.00    -0.173 C  
BRANCH  10  11
HETATM   11  C   UNL     1      -8.575  13.392  67.786  1.00  0.00    -0.194 C  
BRANCH  11  12
HETATM   12  N   UNL     1      -8.011  14.595  67.146  1.00  0.00    -0.297 NA 
HETATM   13  H   UNL     1      -7.842  14.440  66.152  1.00  0.00     0.000 HD 
BRANCH  12  14
HETATM   14  C   UNL     1      -8.851  15.793  67.363  1.00  0.00    -0.186 C  
BRANCH  14  15
HETATM   15  C   UNL     1      -8.927  16.196  68.852  1.00  0.00    -0.247 C  
HETATM   16  O   UNL     1      -8.165  17.388  69.061  1.00  0.00    -0.206 OA 
HETATM   17  H   UNL     1      -8.212  17.636  69.978  1.00  0.00     0.000 HD 
BRANCH  15  18
HETATM   18  C   UNL     1     -10.388  16.402  69.273  1.00  0.00    -0.292 C  
BRANCH  18  19
HETATM   19  O   UNL     1     -10.957  15.187  69.750  1.00  0.00    -0.254 OA 
BRANCH  19  20
HETATM   20  C   UNL     1     -11.601  15.264  70.962  1.00  0.00    -0.356 A  
HETATM   21  C   UNL     1     -11.693  16.431  71.744  1.00  0.00    -0.395 A  
HETATM   22  C   UNL     1     -12.388  16.443  72.949  1.00  0.00    -0.463 A  
HETATM   23  C   UNL     1     -13.020  15.297  73.428  1.00  0.00    -0.656 A  
HETATM   24  C   UNL     1     -12.918  14.136  72.651  1.00  0.00    -0.413 A  
HETATM   25  C   UNL     1     -12.224  14.086  71.441  1.00  0.00    -0.349 A  
HETATM   26  C   UNL     1     -12.321  12.740  70.953  1.00  0.00    -0.356 A  
HETATM   27  C   UNL     1     -11.823  12.070  69.814  1.00  0.00    -0.401 A  
HETATM   28  C   UNL     1     -12.113  10.715  69.625  1.00  0.00    -0.312 A  
HETATM   29  C   UNL     1     -12.890  10.024  70.552  1.00  0.00    -0.178 A  
HETATM   30  C   UNL     1     -13.392  10.661  71.691  1.00  0.00    -0.407 A  
HETATM   31  C   UNL     1     -13.086  12.017  71.863  1.00  0.00    -0.370 A  
HETATM   32  N   UNL     1     -13.431  12.878  72.874  1.00  0.00    -0.553 NA 
HETATM   33  H   UNL     1     -13.994  12.620  73.685  1.00  0.00     0.000 HD 
ENDBRANCH  19  20
ENDBRANCH  18  19
ENDBRANCH  15  18
ENDBRANCH  14  15
ENDBRANCH  12  14
ENDBRANCH  11  12
ENDBRANCH  10  11
ENDBRANCH   9  10
ENDBRANCH   8   9
ENDBRANCH   2   3
TORSDOF 10
ENDMDL
MODEL       53
REMARK 921   NORMALIZED FREE ENERGY PREDICTED BY IDOCK:   -6.10 KCAL/MOL
REMARK 922        TOTAL FREE ENERGY PREDICTED BY IDOCK:  -11.52 KCAL/MOL
REMARK 923 INTER-LIGAND FREE ENERGY PREDICTED BY IDOCK:   -9.39 KCAL/MOL
REMARK 924 INTRA-LIGAND FREE ENERGY PREDICTED BY IDOCK:   -2.13 KCAL/MOL
REMARK 927      BINDING AFFINITY PREDICTED BY RF-SCORE:    0.00 PKD
ROOT
HETATM    1  C   UNL     1      -6.642   8.701  69.858  1.00  0.00    -0.041 C  
HETATM    2  O   UNL     1      -7.725   9.626  69.781  1.00  0.00    -0.099 OA 
ENDROOT
BRANCH   2   3
HETATM    3  C   UNL     1      -8.490   9.569  68.643  1.00  0.00    -0.119 A  
HETATM    4  C   UNL     1      -9.011   8.352  68.174  1.00  0.00    -0.139 A  
HETATM    5  C   UNL     1      -9.829   8.309  67.046  1.00  0.00    -0.298 A  
HETATM    6  C   UNL     1     -10.117   9.477  66.354  1.00  0.00    -0.328 A  
HETATM    7  C   UNL     1      -9.565  10.684  66.779  1.00  0.00    -0.200 A  
HETATM    8  C   UNL     1      -8.741  10.748  67.913  1.00  0.00    -0.129 A  
BRANCH   8   9
HETATM    9  O   UNL     1      -8.305  12.027  68.160  1.00  0.00    -0.151 OA 
BRANCH   9  10
HETATM   10  C   UNL     1      -8.353  12.951  67.080  1.00  0.00    -0.157 C  
BRANCH  10  11
HETATM   11  C   UNL     1      -8.351  14.393  67.614  1.00  0.00    -0.179 C  
BRANCH  11  12
HETATM   12  N   UNL     1      -9.506  15.195  67.169  1.00  0.00    -0.212 NA 
HETATM   13  H   UNL     1      -9.205  16.072  66.745  1.00  0.00     0.000 HD 
BRANCH  12  14
HETATM   14  C   UNL     1     -10.397  14.440  66.261  1.00  0.00    -0.295 C  
BRANCH  14  15
HETATM   15  C   UNL     1     -11.854  14.394  66.770  1.00  0.00    -0.410 C  
HETATM   16  O   UNL     1     -12.737  14.184  65.664  1.00  0.00    -0.514 OA 
HETATM   17  H   UNL     1     -13.634  14.156  65.978  1.00  0.00     0.000 HD 
BRANCH  15  18
HETATM   18  C   UNL     1     -12.017  13.284  67.816  1.00  0.00    -0.314 C  
BRANCH  18  19
HETATM   19  O   UNL     1     -11.351  13.624  69.027  1.00  0.00    -0.257 OA 
BRANCH  19  20
HETATM   20  C   UNL     1     -12.166  13.931  70.091  1.00  0.00    -0.358 A  
HETATM   21  C   UNL     1     -12.589  15.231  70.423  1.00  0.00    -0.421 A  
HETATM   22  C   UNL     1     -13.439  15.465  71.499  1.00  0.00    -0.601 A  
HETATM   23  C   UNL     1     -13.906  14.416  72.289  1.00  0.00    -0.589 A  
HETATM   24  C   UNL     1     -13.475  13.124  71.961  1.00  0.00    -0.507 A  
HETATM   25  C   UNL     1     -12.618  12.854  70.893  1.00  0.00    -0.355 A  
HETATM   26  C   UNL     1     -12.387  11.438  70.883  1.00  0.00    -0.483 A  
HETATM   27  C   UNL     1     -11.613  10.575  70.078  1.00  0.00    -0.392 A  
HETATM   28  C   UNL     1     -11.611   9.200  70.338  1.00  0.00    -0.181 A  
HETATM   29  C   UNL     1     -12.368   8.679  71.385  1.00  0.00    -0.344 A  
HETATM   30  C   UNL     1     -13.141   9.511  72.201  1.00  0.00    -0.522 A  
HETATM   31  C   UNL     1     -13.125  10.885  71.926  1.00  0.00    -0.432 A  
HETATM   32  N   UNL     1     -13.767  11.919  72.558  1.00  0.00    -0.362 NA 
HETATM   33  H   UNL     1     -14.382  11.809  73.365  1.00  0.00     0.000 HD 
ENDBRANCH  19  20
ENDBRANCH  18  19
ENDBRANCH  15  18
ENDBRANCH  14  15
ENDBRANCH  12  14
ENDBRANCH  11  12
ENDBRANCH  10  11
ENDBRANCH   9  10
ENDBRANCH   8   9
ENDBRANCH   2   3
TORSDOF 10
ENDMDL
MODEL       54
REMARK 921   NORMALIZED FREE ENERGY PREDICTED BY IDOCK:   -6.10 KCAL/MOL
REMARK 922        TOTAL FREE ENERGY PREDICTED BY IDOCK:  -11.51 KCAL/MOL
REMARK 923 INTER-LIGAND FREE ENERGY PREDICTED BY IDOCK:   -8.98 KCAL/MOL
REMARK 924 INTRA-LIGAND FREE ENERGY PREDICTED BY IDOCK:   -2.53 KCAL/MOL
REMARK 927      BINDING AFFINITY PREDICTED BY RF-SCORE:    0.00 PKD
ROOT
HETATM    1  C   UNL     1      -9.190   9.901  64.332  1.00  0.00    -0.264 C  
HETATM    2  O   UNL     1      -8.309   9.516  65.385  1.00  0.00    -0.128 OA 
ENDROOT
BRANCH   2   3
HETATM    3  C   UNL     1      -8.261  10.353  66.471  1.00  0.00    -0.131 A  
HETATM    4  C   UNL     1      -7.768  11.664  66.360  1.00  0.00     0.058 A  
HETATM    5  C   UNL     1      -7.770  12.526  67.457  1.00  0.00    -0.165 A  
HETATM    6  C   UNL     1      -8.238  12.083  68.686  1.00  0.00    -0.052 A  
HETATM    7  C   UNL     1      -8.683  10.769  68.821  1.00  0.00    -0.163 A  
HETATM    8  C   UNL     1      -8.691   9.888  67.729  1.00  0.00    -0.129 A  
BRANCH   8   9
HETATM    9  O   UNL     1      -9.168   8.646  68.074  1.00  0.00    -0.139 OA 
BRANCH   9  10
HETATM   10  C   UNL     1     -10.532   8.559  68.466  1.00  0.00    -0.167 C  
BRANCH  10  11
HETATM   11  C   UNL     1     -10.644   7.924  69.863  1.00  0.00    -0.242 C  
BRANCH  11  12
HETATM   12  N   UNL     1     -11.147   8.847  70.897  1.00  0.00    -0.257 NA 
HETATM   13  H   UNL     1     -11.422   9.741  70.491  1.00  0.00     0.000 HD 
BRANCH  12  14
HETATM   14  C   UNL     1     -12.250   8.257  71.687  1.00  0.00    -0.313 C  
BRANCH  14  15
HETATM   15  C   UNL     1     -13.477   9.191  71.771  1.00  0.00    -0.416 C  
HETATM   16  O   UNL     1     -14.400   8.677  72.736  1.00  0.00    -0.866 OA 
HETATM   17  H   UNL     1     -15.155   9.252  72.788  1.00  0.00     0.000 HD 
BRANCH  15  18
HETATM   18  C   UNL     1     -13.038  10.614  72.141  1.00  0.00    -0.276 C  
BRANCH  18  19
HETATM   19  O   UNL     1     -12.670  11.350  70.980  1.00  0.00    -0.374 OA 
BRANCH  19  20
HETATM   20  C   UNL     1     -12.725  12.719  71.097  1.00  0.00    -0.263 A  
HETATM   21  C   UNL     1     -13.069  13.405  72.277  1.00  0.00    -0.484 A  
HETATM   22  C   UNL     1     -13.076  14.795  72.332  1.00  0.00    -0.463 A  
HETATM   23  C   UNL     1     -12.742  15.561  71.217  1.00  0.00    -0.526 A  
HETATM   24  C   UNL     1     -12.409  14.875  70.043  1.00  0.00    -0.312 A  
HETATM   25  C   UNL     1     -12.397  13.482  69.950  1.00  0.00    -0.287 A  
HETATM   26  C   UNL     1     -12.033  13.150  68.603  1.00  0.00    -0.319 A  
HETATM   27  C   UNL     1     -11.873  11.937  67.899  1.00  0.00    -0.308 A  
HETATM   28  C   UNL     1     -11.492  11.961  66.553  1.00  0.00    -0.381 A  
HETATM   29  C   UNL     1     -11.270  13.173  65.904  1.00  0.00    -0.311 A  
HETATM   30  C   UNL     1     -11.426  14.390  66.575  1.00  0.00    -0.369 A  
HETATM   31  C   UNL     1     -11.812  14.344  67.922  1.00  0.00    -0.349 A  
HETATM   32  N   UNL     1     -12.045  15.363  68.808  1.00  0.00    -0.587 NA 
HETATM   33  H   UNL     1     -11.961  16.355  68.583  1.00  0.00     0.000 HD 
ENDBRANCH  19  20
ENDBRANCH  18  19
ENDBRANCH  15  18
ENDBRANCH  14  15
ENDBRANCH  12  14
ENDBRANCH  11  12
ENDBRANCH  10  11
ENDBRANCH   9  10
ENDBRANCH   8   9
ENDBRANCH   2   3
TORSDOF 10
ENDMDL
MODEL       55
REMARK 921   NORMALIZED FREE ENERGY PREDICTED BY IDOCK:   -6.10 KCAL/MOL
REMARK 922        TOTAL FREE ENERGY PREDICTED BY IDOCK:  -11.51 KCAL/MOL
REMARK 923 INTER-LIGAND FREE ENERGY PREDICTED BY IDOCK:  -10.19 KCAL/MOL
REMARK 924 INTRA-LIGAND FREE ENERGY PREDICTED BY IDOCK:   -1.32 KCAL/MOL
REMARK 927      BINDING AFFINITY PREDICTED BY RF-SCORE:    0.00 PKD
ROOT
HETATM    1  C   UNL     1      -6.202   7.034  68.192  1.00  0.00    -0.035 C  
HETATM    2  O   UNL     1      -7.324   6.826  69.047  1.00  0.00    -0.088 OA 
ENDROOT
BRANCH   2   3
HETATM    3  C   UNL     1      -8.555   6.833  68.443  1.00  0.00    -0.125 A  
HETATM    4  C   UNL     1      -8.742   7.403  67.173  1.00  0.00    -0.121 A  
HETATM    5  C   UNL     1      -9.985   7.362  66.543  1.00  0.00    -0.194 A  
HETATM    6  C   UNL     1     -11.068   6.775  67.184  1.00  0.00    -0.404 A  
HETATM    7  C   UNL     1     -10.908   6.251  68.466  1.00  0.00    -0.394 A  
HETATM    8  C   UNL     1      -9.664   6.281  69.114  1.00  0.00    -0.135 A  
BRANCH   8   9
HETATM    9  O   UNL     1      -9.723   5.712  70.364  1.00  0.00    -0.166 OA 
BRANCH   9  10
HETATM   10  C   UNL     1     -10.089   6.559  71.447  1.00  0.00    -0.191 C  
BRANCH  10  11
HETATM   11  C   UNL     1     -11.030   5.814  72.409  1.00  0.00    -0.259 C  
BRANCH  11  12
HETATM   12  N   UNL     1     -12.224   6.589  72.792  1.00  0.00    -0.349 NA 
HETATM   13  H   UNL     1     -12.416   6.502  73.790  1.00  0.00     0.000 HD 
BRANCH  12  14
HETATM   14  C   UNL     1     -12.126   8.008  72.389  1.00  0.00    -0.321 C  
BRANCH  14  15
HETATM   15  C   UNL     1     -13.510   8.642  72.128  1.00  0.00    -0.398 C  
HETATM   16  O   UNL     1     -14.153   8.910  73.378  1.00  0.00    -1.256 OA 
HETATM   17  H   UNL     1     -15.005   9.300  73.218  1.00  0.00     0.000 HD 
BRANCH  15  18
HETATM   18  C   UNL     1     -13.359   9.929  71.307  1.00  0.00    -0.342 C  
BRANCH  18  19
HETATM   19  O   UNL     1     -11.986  10.231  71.083  1.00  0.00    -0.342 OA 
BRANCH  19  20
HETATM   20  C   UNL     1     -11.699  10.868  69.899  1.00  0.00    -0.339 A  
HETATM   21  C   UNL     1     -11.195  10.230  68.751  1.00  0.00    -0.260 A  
HETATM   22  C   UNL     1     -10.955  10.934  67.575  1.00  0.00    -0.352 A  
HETATM   23  C   UNL     1     -11.207  12.302  67.492  1.00  0.00    -0.354 A  
HETATM   24  C   UNL     1     -11.700  12.936  68.639  1.00  0.00    -0.324 A  
HETATM   25  C   UNL     1     -11.946  12.262  69.836  1.00  0.00    -0.377 A  
HETATM   26  C   UNL     1     -12.420  13.234  70.780  1.00  0.00    -0.403 A  
HETATM   27  C   UNL     1     -12.809  13.178  72.136  1.00  0.00    -0.265 A  
HETATM   28  C   UNL     1     -13.240  14.342  72.782  1.00  0.00    -0.614 A  
HETATM   29  C   UNL     1     -13.286  15.553  72.096  1.00  0.00    -0.561 A  
HETATM   30  C   UNL     1     -12.902  15.639  70.754  1.00  0.00    -0.457 A  
HETATM   31  C   UNL     1     -12.470  14.462  70.127  1.00  0.00    -0.339 A  
HETATM   32  N   UNL     1     -12.032  14.255  68.844  1.00  0.00    -0.420 NA 
HETATM   33  H   UNL     1     -11.961  14.985  68.134  1.00  0.00     0.000 HD 
ENDBRANCH  19  20
ENDBRANCH  18  19
ENDBRANCH  15  18
ENDBRANCH  14  15
ENDBRANCH  12  14
ENDBRANCH  11  12
ENDBRANCH  10  11
ENDBRANCH   9  10
ENDBRANCH   8   9
ENDBRANCH   2   3
TORSDOF 10
ENDMDL
MODEL       56
REMARK 921   NORMALIZED FREE ENERGY PREDICTED BY IDOCK:   -6.08 KCAL/MOL
REMARK 922        TOTAL FREE ENERGY PREDICTED BY IDOCK:  -11.48 KCAL/MOL
REMARK 923 INTER-LIGAND FREE ENERGY PREDICTED BY IDOCK:   -9.85 KCAL/MOL
REMARK 924 INTRA-LIGAND FREE ENERGY PREDICTED BY IDOCK:   -1.63 KCAL/MOL
REMARK 927      BINDING AFFINITY PREDICTED BY RF-SCORE:    0.00 PKD
ROOT
HETATM    1  C   UNL     1     -10.279   6.030  68.307  1.00  0.00    -0.181 C  
HETATM    2  O   UNL     1     -10.797   7.195  67.669  1.00  0.00    -0.237 OA 
ENDROOT
BRANCH   2   3
HETATM    3  C   UNL     1     -10.209   8.386  68.012  1.00  0.00    -0.212 A  
HETATM    4  C   UNL     1     -10.040   8.755  69.357  1.00  0.00    -0.203 A  
HETATM    5  C   UNL     1      -9.396   9.944  69.698  1.00  0.00    -0.247 A  
HETATM    6  C   UNL     1      -8.936  10.795  68.702  1.00  0.00    -0.162 A  
HETATM    7  C   UNL     1      -9.144  10.464  67.364  1.00  0.00    -0.144 A  
HETATM    8  C   UNL     1      -9.787   9.271  67.001  1.00  0.00    -0.198 A  
BRANCH   8   9
HETATM    9  O   UNL     1      -9.889   9.137  65.636  1.00  0.00    -0.264 OA 
BRANCH   9  10
HETATM   10  C   UNL     1      -8.709   9.354  64.873  1.00  0.00    -0.190 C  
BRANCH  10  11
HETATM   11  C   UNL     1      -9.036  10.169  63.610  1.00  0.00    -0.247 C  
BRANCH  11  12
HETATM   12  N   UNL     1     -10.402  10.722  63.596  1.00  0.00    -0.508 NA 
HETATM   13  H   UNL     1     -11.004  10.235  64.260  1.00  0.00     0.000 HD 
BRANCH  12  14
HETATM   14  C   UNL     1     -10.419  12.183  63.831  1.00  0.00    -0.409 C  
BRANCH  14  15
HETATM   15  C   UNL     1     -11.831  12.788  63.668  1.00  0.00    -0.532 C  
HETATM   16  O   UNL     1     -12.686  11.834  63.031  1.00  0.00    -0.852 OA 
HETATM   17  H   UNL     1     -13.555  12.207  62.931  1.00  0.00     0.000 HD 
BRANCH  15  18
HETATM   18  C   UNL     1     -12.394  13.197  65.035  1.00  0.00    -0.459 C  
BRANCH  18  19
HETATM   19  O   UNL     1     -11.494  14.065  65.717  1.00  0.00    -0.308 OA 
BRANCH  19  20
HETATM   20  C   UNL     1     -11.542  14.017  67.090  1.00  0.00    -0.372 A  
HETATM   21  C   UNL     1     -11.911  12.883  67.836  1.00  0.00    -0.388 A  
HETATM   22  C   UNL     1     -11.908  12.897  69.227  1.00  0.00    -0.363 A  
HETATM   23  C   UNL     1     -11.537  14.039  69.934  1.00  0.00    -0.320 A  
HETATM   24  C   UNL     1     -11.179  15.169  69.188  1.00  0.00    -0.279 A  
HETATM   25  C   UNL     1     -11.176  15.192  67.792  1.00  0.00    -0.327 A  
HETATM   26  C   UNL     1     -10.779  16.511  67.392  1.00  0.00    -0.260 A  
HETATM   27  C   UNL     1     -10.611  17.149  66.143  1.00  0.00    -0.201 A  
HETATM   28  C   UNL     1     -10.194  18.484  66.098  1.00  0.00    -0.424 A  
HETATM   29  C   UNL     1      -9.945  19.185  67.275  1.00  0.00    -0.436 A  
HETATM   30  C   UNL     1     -10.108  18.580  68.525  1.00  0.00    -0.414 A  
HETATM   31  C   UNL     1     -10.530  17.244  68.548  1.00  0.00    -0.375 A  
HETATM   32  N   UNL     1     -10.778  16.415  69.612  1.00  0.00    -0.331 NA 
HETATM   33  H   UNL     1     -10.679  16.688  70.590  1.00  0.00     0.000 HD 
ENDBRANCH  19  20
ENDBRANCH  18  19
ENDBRANCH  15  18
ENDBRANCH  14  15
ENDBRANCH  12  14
ENDBRANCH  11  12
ENDBRANCH  10  11
ENDBRANCH   9  10
ENDBRANCH   8   9
ENDBRANCH   2   3
TORSDOF 10
ENDMDL
MODEL       57
REMARK 921   NORMALIZED FREE ENERGY PREDICTED BY IDOCK:   -6.07 KCAL/MOL
REMARK 922        TOTAL FREE ENERGY PREDICTED BY IDOCK:  -11.46 KCAL/MOL
REMARK 923 INTER-LIGAND FREE ENERGY PREDICTED BY IDOCK:  -10.05 KCAL/MOL
REMARK 924 INTRA-LIGAND FREE ENERGY PREDICTED BY IDOCK:   -1.41 KCAL/MOL
REMARK 927      BINDING AFFINITY PREDICTED BY RF-SCORE:    0.00 PKD
ROOT
HETATM    1  C   UNL     1     -10.813  19.520  66.832  1.00  0.00    -0.411 C  
HETATM    2  O   UNL     1     -10.201  18.725  67.845  1.00  0.00    -0.357 OA 
ENDROOT
BRANCH   2   3
HETATM    3  C   UNL     1      -8.831  18.774  67.908  1.00  0.00    -0.296 A  
HETATM    4  C   UNL     1      -8.172  19.564  68.865  1.00  0.00    -0.309 A  
HETATM    5  C   UNL     1      -6.781  19.569  68.956  1.00  0.00    -0.363 A  
HETATM    6  C   UNL     1      -6.026  18.806  68.075  1.00  0.00    -0.201 A  
HETATM    7  C   UNL     1      -6.666  18.058  67.088  1.00  0.00    -0.203 A  
HETATM    8  C   UNL     1      -8.065  18.038  66.983  1.00  0.00    -0.225 A  
BRANCH   8   9
HETATM    9  O   UNL     1      -8.491  17.239  65.949  1.00  0.00    -0.533 OA 
BRANCH   9  10
HETATM   10  C   UNL     1      -8.700  15.862  66.235  1.00  0.00    -0.337 C  
BRANCH  10  11
HETATM   11  C   UNL     1     -10.160  15.622  66.654  1.00  0.00    -0.273 C  
BRANCH  11  12
HETATM   12  N   UNL     1     -10.335  15.401  68.102  1.00  0.00    -0.236 NA 
HETATM   13  H   UNL     1      -9.683  15.968  68.643  1.00  0.00     0.000 HD 
BRANCH  12  14
HETATM   14  C   UNL     1     -11.730  15.627  68.539  1.00  0.00    -0.327 C  
BRANCH  14  15
HETATM   15  C   UNL     1     -11.952  15.240  70.018  1.00  0.00    -0.343 C  
HETATM   16  O   UNL     1     -13.143  15.870  70.500  1.00  0.00    -0.714 OA 
HETATM   17  H   UNL     1     -13.280  15.631  71.409  1.00  0.00     0.000 HD 
BRANCH  15  18
HETATM   18  C   UNL     1     -12.047  13.715  70.159  1.00  0.00    -0.361 C  
BRANCH  18  19
HETATM   19  O   UNL     1     -12.190  13.094  68.886  1.00  0.00    -0.249 OA 
BRANCH  19  20
HETATM   20  C   UNL     1     -11.442  11.958  68.688  1.00  0.00    -0.294 A  
HETATM   21  C   UNL     1     -10.935  11.146  69.719  1.00  0.00    -0.216 A  
HETATM   22  C   UNL     1     -10.209   9.992  69.444  1.00  0.00    -0.239 A  
HETATM   23  C   UNL     1      -9.958   9.596  68.132  1.00  0.00    -0.185 A  
HETATM   24  C   UNL     1     -10.456  10.411  67.108  1.00  0.00    -0.256 A  
HETATM   25  C   UNL     1     -11.183  11.579  67.348  1.00  0.00    -0.367 A  
HETATM   26  C   UNL     1     -11.502  12.148  66.070  1.00  0.00    -0.427 A  
HETATM   27  C   UNL     1     -12.187  13.312  65.658  1.00  0.00    -0.514 A  
HETATM   28  C   UNL     1     -12.334  13.583  64.293  1.00  0.00    -0.392 A  
HETATM   29  C   UNL     1     -11.810  12.711  63.341  1.00  0.00    -0.594 A  
HETATM   30  C   UNL     1     -11.123  11.554  63.721  1.00  0.00    -0.471 A  
HETATM   31  C   UNL     1     -10.983  11.305  65.093  1.00  0.00    -0.146 A  
HETATM   32  N   UNL     1     -10.360  10.270  65.742  1.00  0.00    -0.210 NA 
HETATM   33  H   UNL     1      -9.886   9.497  65.274  1.00  0.00     0.000 HD 
ENDBRANCH  19  20
ENDBRANCH  18  19
ENDBRANCH  15  18
ENDBRANCH  14  15
ENDBRANCH  12  14
ENDBRANCH  11  12
ENDBRANCH  10  11
ENDBRANCH   9  10
ENDBRANCH   8   9
ENDBRANCH   2   3
TORSDOF 10
ENDMDL
MODEL       58
REMARK 921   NORMALIZED FREE ENERGY PREDICTED BY IDOCK:   -6.06 KCAL/MOL
REMARK 922        TOTAL FREE ENERGY PREDICTED BY IDOCK:  -11.45 KCAL/MOL
REMARK 923 INTER-LIGAND FREE ENERGY PREDICTED BY IDOCK:   -9.74 KCAL/MOL
REMARK 924 INTRA-LIGAND FREE ENERGY PREDICTED BY IDOCK:   -1.72 KCAL/MOL
REMARK 927      BINDING AFFINITY PREDICTED BY RF-SCORE:    0.00 PKD
ROOT
HETATM    1  C   UNL     1      -7.988   7.837  65.436  1.00  0.00    -0.125 C  
HETATM    2  O   UNL     1      -7.681   7.315  66.727  1.00  0.00    -0.104 OA 
ENDROOT
BRANCH   2   3
HETATM    3  C   UNL     1      -7.731   8.206  67.769  1.00  0.00    -0.110 A  
HETATM    4  C   UNL     1      -7.045   9.431  67.715  1.00  0.00    -0.082 A  
HETATM    5  C   UNL     1      -7.142  10.354  68.756  1.00  0.00    -0.074 A  
HETATM    6  C   UNL     1      -7.902  10.056  69.878  1.00  0.00    -0.185 A  
HETATM    7  C   UNL     1      -8.546   8.823  69.967  1.00  0.00    -0.136 A  
HETATM    8  C   UNL     1      -8.463   7.883  68.929  1.00  0.00    -0.128 A  
BRANCH   8   9
HETATM    9  O   UNL     1      -9.169   6.738  69.214  1.00  0.00    -0.142 OA 
BRANCH   9  10
HETATM   10  C   UNL     1     -10.574   6.770  68.995  1.00  0.00    -0.230 C  
BRANCH  10  11
HETATM   11  C   UNL     1     -11.320   6.337  70.268  1.00  0.00    -0.388 C  
BRANCH  11  12
HETATM   12  N   UNL     1     -12.670   6.917  70.393  1.00  0.00    -0.479 NA 
HETATM   13  H   UNL     1     -13.375   6.300  69.990  1.00  0.00     0.000 HD 
BRANCH  12  14
HETATM   14  C   UNL     1     -13.003   7.267  71.791  1.00  0.00    -0.326 C  
BRANCH  14  15
HETATM   15  C   UNL     1     -13.547   8.706  71.924  1.00  0.00    -0.410 C  
HETATM   16  O   UNL     1     -13.995   8.923  73.265  1.00  0.00    -1.203 OA 
HETATM   17  H   UNL     1     -14.330   9.809  73.347  1.00  0.00     0.000 HD 
BRANCH  15  18
HETATM   18  C   UNL     1     -12.463   9.721  71.541  1.00  0.00    -0.403 C  
BRANCH  18  19
HETATM   19  O   UNL     1     -13.017  10.801  70.796  1.00  0.00    -0.336 OA 
BRANCH  19  20
HETATM   20  C   UNL     1     -12.159  11.430  69.927  1.00  0.00    -0.330 A  
HETATM   21  C   UNL     1     -11.525  10.804  68.838  1.00  0.00    -0.362 A  
HETATM   22  C   UNL     1     -10.689  11.511  67.979  1.00  0.00    -0.241 A  
HETATM   23  C   UNL     1     -10.450  12.871  68.166  1.00  0.00    -0.245 A  
HETATM   24  C   UNL     1     -11.076  13.489  69.256  1.00  0.00    -0.179 A  
HETATM   25  C   UNL     1     -11.915  12.809  70.141  1.00  0.00    -0.371 A  
HETATM   26  C   UNL     1     -12.346  13.757  71.128  1.00  0.00    -0.428 A  
HETATM   27  C   UNL     1     -13.170  13.676  72.272  1.00  0.00    -0.565 A  
HETATM   28  C   UNL     1     -13.401  14.822  73.041  1.00  0.00    -0.543 A  
HETATM   29  C   UNL     1     -12.825  16.039  72.685  1.00  0.00    -0.506 A  
HETATM   30  C   UNL     1     -12.002  16.146  71.560  1.00  0.00    -0.490 A  
HETATM   31  C   UNL     1     -11.779  14.986  70.806  1.00  0.00    -0.320 A  
HETATM   32  N   UNL     1     -11.021  14.798  69.679  1.00  0.00    -0.298 NA 
HETATM   33  H   UNL     1     -10.486  15.532  69.215  1.00  0.00     0.000 HD 
ENDBRANCH  19  20
ENDBRANCH  18  19
ENDBRANCH  15  18
ENDBRANCH  14  15
ENDBRANCH  12  14
ENDBRANCH  11  12
ENDBRANCH  10  11
ENDBRANCH   9  10
ENDBRANCH   8   9
ENDBRANCH   2   3
TORSDOF 10
ENDMDL
MODEL       59
REMARK 921   NORMALIZED FREE ENERGY PREDICTED BY IDOCK:   -6.06 KCAL/MOL
REMARK 922        TOTAL FREE ENERGY PREDICTED BY IDOCK:  -11.44 KCAL/MOL
REMARK 923 INTER-LIGAND FREE ENERGY PREDICTED BY IDOCK:   -9.95 KCAL/MOL
REMARK 924 INTRA-LIGAND FREE ENERGY PREDICTED BY IDOCK:   -1.50 KCAL/MOL
REMARK 927      BINDING AFFINITY PREDICTED BY RF-SCORE:    0.00 PKD
ROOT
HETATM    1  C   UNL     1     -13.138  10.676  71.839  1.00  0.00    -0.458 C  
HETATM    2  O   UNL     1     -12.653  11.619  70.886  1.00  0.00    -0.358 OA 
ENDROOT
BRANCH   2   3
HETATM    3  C   UNL     1     -12.784  12.942  71.223  1.00  0.00    -0.278 A  
HETATM    4  C   UNL     1     -13.562  13.342  72.322  1.00  0.00    -0.703 A  
HETATM    5  C   UNL     1     -13.649  14.685  72.689  1.00  0.00    -0.571 A  
HETATM    6  C   UNL     1     -12.982  15.651  71.948  1.00  0.00    -0.541 A  
HETATM    7  C   UNL     1     -12.248  15.272  70.825  1.00  0.00    -0.411 A  
HETATM    8  C   UNL     1     -12.147  13.927  70.442  1.00  0.00    -0.351 A  
BRANCH   8   9
HETATM    9  O   UNL     1     -11.378  13.770  69.313  1.00  0.00    -0.258 OA 
BRANCH   9  10
HETATM   10  C   UNL     1     -11.445  14.798  68.333  1.00  0.00    -0.314 C  
BRANCH  10  11
HETATM   11  C   UNL     1     -11.824  14.205  66.966  1.00  0.00    -0.429 C  
BRANCH  11  12
HETATM   12  N   UNL     1     -10.794  13.318  66.395  1.00  0.00    -0.286 NA 
HETATM   13  H   UNL     1      -9.931  13.359  66.936  1.00  0.00     0.000 HD 
BRANCH  12  14
HETATM   14  C   UNL     1     -11.270  11.925  66.253  1.00  0.00    -0.337 C  
BRANCH  14  15
HETATM   15  C   UNL     1     -10.958  11.067  67.499  1.00  0.00    -0.281 C  
HETATM   16  O   UNL     1     -12.163  10.851  68.240  1.00  0.00    -0.804 OA 
HETATM   17  H   UNL     1     -11.972  10.323  69.007  1.00  0.00     0.000 HD 
BRANCH  15  18
HETATM   18  C   UNL     1     -10.329   9.732  67.082  1.00  0.00    -0.248 C  
BRANCH  18  19
HETATM   19  O   UNL     1     -10.031   8.932  68.221  1.00  0.00    -0.163 OA 
BRANCH  19  20
HETATM   20  C   UNL     1     -10.054   7.572  68.020  1.00  0.00    -0.183 A  
HETATM   21  C   UNL     1      -9.938   6.950  66.763  1.00  0.00    -0.248 A  
HETATM   22  C   UNL     1      -9.939   5.565  66.636  1.00  0.00    -0.213 A  
HETATM   23  C   UNL     1     -10.054   4.740  67.753  1.00  0.00    -0.129 A  
HETATM   24  C   UNL     1     -10.178   5.363  69.001  1.00  0.00    -0.221 A  
HETATM   25  C   UNL     1     -10.187   6.749  69.164  1.00  0.00    -0.195 A  
HETATM   26  C   UNL     1     -10.349   7.009  70.566  1.00  0.00    -0.218 A  
HETATM   27  C   UNL     1     -10.451   8.185  71.342  1.00  0.00    -0.261 A  
HETATM   28  C   UNL     1     -10.602   8.089  72.729  1.00  0.00    -0.420 A  
HETATM   29  C   UNL     1     -10.652   6.843  73.349  1.00  0.00    -0.372 A  
HETATM   30  C   UNL     1     -10.558   5.662  72.605  1.00  0.00    -0.266 A  
HETATM   31  C   UNL     1     -10.412   5.781  71.217  1.00  0.00    -0.235 A  
HETATM   32  N   UNL     1     -10.307   4.809  70.254  1.00  0.00    -0.194 NA 
HETATM   33  H   UNL     1     -10.324   3.806  70.443  1.00  0.00     0.000 HD 
ENDBRANCH  19  20
ENDBRANCH  18  19
ENDBRANCH  15  18
ENDBRANCH  14  15
ENDBRANCH  12  14
ENDBRANCH  11  12
ENDBRANCH  10  11
ENDBRANCH   9  10
ENDBRANCH   8   9
ENDBRANCH   2   3
TORSDOF 10
ENDMDL
MODEL       60
REMARK 921   NORMALIZED FREE ENERGY PREDICTED BY IDOCK:   -6.03 KCAL/MOL
REMARK 922        TOTAL FREE ENERGY PREDICTED BY IDOCK:  -11.41 KCAL/MOL
REMARK 923 INTER-LIGAND FREE ENERGY PREDICTED BY IDOCK:  -10.10 KCAL/MOL
REMARK 924 INTRA-LIGAND FREE ENERGY PREDICTED BY IDOCK:   -1.31 KCAL/MOL
REMARK 927      BINDING AFFINITY PREDICTED BY RF-SCORE:    0.00 PKD
ROOT
HETATM    1  C   UNL     1     -12.607  15.407  73.966  1.00  0.00    -0.598 C  
HETATM    2  O   UNL     1     -13.487  14.747  73.058  1.00  0.00    -0.494 OA 
ENDROOT
BRANCH   2   3
HETATM    3  C   UNL     1     -12.969  14.450  71.822  1.00  0.00    -0.345 A  
HETATM    4  C   UNL     1     -12.535  15.461  70.950  1.00  0.00    -0.474 A  
HETATM    5  C   UNL     1     -11.964  15.149  69.717  1.00  0.00    -0.367 A  
HETATM    6  C   UNL     1     -11.843  13.823  69.325  1.00  0.00    -0.392 A  
HETATM    7  C   UNL     1     -12.316  12.812  70.159  1.00  0.00    -0.235 A  
HETATM    8  C   UNL     1     -12.892  13.106  71.404  1.00  0.00    -0.311 A  
BRANCH   8   9
HETATM    9  O   UNL     1     -13.290  11.970  72.068  1.00  0.00    -0.495 OA 
BRANCH   9  10
HETATM   10  C   UNL     1     -12.787  10.729  71.592  1.00  0.00    -0.457 C  
BRANCH  10  11
HETATM   11  C   UNL     1     -13.701   9.577  72.042  1.00  0.00    -0.359 C  
BRANCH  11  12
HETATM   12  N   UNL     1     -12.970   8.391  72.524  1.00  0.00    -0.597 NA 
HETATM   13  H   UNL     1     -13.370   7.532  72.145  1.00  0.00     0.000 HD 
BRANCH  12  14
HETATM   14  C   UNL     1     -11.520   8.473  72.247  1.00  0.00    -0.375 C  
BRANCH  14  15
HETATM   15  C   UNL     1     -11.050   7.395  71.246  1.00  0.00    -0.246 C  
HETATM   16  O   UNL     1     -12.177   6.903  70.514  1.00  0.00    -0.569 OA 
HETATM   17  H   UNL     1     -11.889   6.240  69.898  1.00  0.00     0.000 HD 
BRANCH  15  18
HETATM   18  C   UNL     1      -9.995   7.975  70.296  1.00  0.00    -0.189 C  
BRANCH  18  19
HETATM   19  O   UNL     1     -10.544   8.198  69.002  1.00  0.00    -0.215 OA 
BRANCH  19  20
HETATM   20  C   UNL     1      -9.801   7.725  67.947  1.00  0.00    -0.160 A  
HETATM   21  C   UNL     1      -9.126   6.490  67.937  1.00  0.00    -0.113 A  
HETATM   22  C   UNL     1      -8.415   6.060  66.821  1.00  0.00    -0.110 A  
HETATM   23  C   UNL     1      -8.346   6.839  65.668  1.00  0.00    -0.147 A  
HETATM   24  C   UNL     1      -9.012   8.071  65.684  1.00  0.00    -0.054 A  
HETATM   25  C   UNL     1      -9.729   8.536  66.788  1.00  0.00    -0.303 A  
HETATM   26  C   UNL     1     -10.247   9.829  66.442  1.00  0.00    -0.288 A  
HETATM   27  C   UNL     1     -11.018  10.793  67.127  1.00  0.00    -0.324 A  
HETATM   28  C   UNL     1     -11.370  11.984  66.483  1.00  0.00    -0.413 A  
HETATM   29  C   UNL     1     -10.966  12.222  65.171  1.00  0.00    -0.344 A  
HETATM   30  C   UNL     1     -10.198  11.287  64.471  1.00  0.00    -0.370 A  
HETATM   31  C   UNL     1      -9.852  10.103  65.136  1.00  0.00    -0.325 A  
HETATM   32  N   UNL     1      -9.112   9.033  64.705  1.00  0.00    -0.434 NA 
HETATM   33  H   UNL     1      -8.689   8.959  63.779  1.00  0.00     0.000 HD 
ENDBRANCH  19  20
ENDBRANCH  18  19
ENDBRANCH  15  18
ENDBRANCH  14  15
ENDBRANCH  12  14
ENDBRANCH  11  12
ENDBRANCH  10  11
ENDBRANCH   9  10
ENDBRANCH   8   9
ENDBRANCH   2   3
TORSDOF 10
ENDMDL
MODEL       61
REMARK 921   NORMALIZED FREE ENERGY PREDICTED BY IDOCK:   -6.03 KCAL/MOL
REMARK 922        TOTAL FREE ENERGY PREDICTED BY IDOCK:  -11.40 KCAL/MOL
REMARK 923 INTER-LIGAND FREE ENERGY PREDICTED BY IDOCK:  -10.13 KCAL/MOL
REMARK 924 INTRA-LIGAND FREE ENERGY PREDICTED BY IDOCK:   -1.27 KCAL/MOL
REMARK 927      BINDING AFFINITY PREDICTED BY RF-SCORE:    0.00 PKD
ROOT
HETATM    1  C   UNL     1     -10.700   5.722  67.197  1.00  0.00    -0.275 C  
HETATM    2  O   UNL     1     -11.223   6.404  68.335  1.00  0.00    -0.320 OA 
ENDROOT
BRANCH   2   3
HETATM    3  C   UNL     1     -10.865   5.901  69.560  1.00  0.00    -0.372 A  
HETATM    4  C   UNL     1     -10.073   4.746  69.671  1.00  0.00    -0.275 A  
HETATM    5  C   UNL     1      -9.671   4.269  70.919  1.00  0.00    -0.266 A  
HETATM    6  C   UNL     1     -10.079   4.922  72.074  1.00  0.00    -0.256 A  
HETATM    7  C   UNL     1     -10.907   6.038  71.979  1.00  0.00    -0.300 A  
HETATM    8  C   UNL     1     -11.319   6.535  70.733  1.00  0.00    -0.342 A  
BRANCH   8   9
HETATM    9  O   UNL     1     -12.128   7.639  70.861  1.00  0.00    -0.284 OA 
BRANCH   9  10
HETATM   10  C   UNL     1     -12.401   8.095  72.180  1.00  0.00    -0.338 C  
BRANCH  10  11
HETATM   11  C   UNL     1     -13.558   9.108  72.163  1.00  0.00    -0.474 C  
BRANCH  11  12
HETATM   12  N   UNL     1     -13.608   9.934  70.943  1.00  0.00    -0.488 NA 
HETATM   13  H   UNL     1     -14.554  10.272  70.765  1.00  0.00     0.000 HD 
BRANCH  12  14
HETATM   14  C   UNL     1     -12.641  11.052  70.981  1.00  0.00    -0.411 C  
BRANCH  14  15
HETATM   15  C   UNL     1     -11.592  10.961  69.852  1.00  0.00    -0.331 C  
HETATM   16  O   UNL     1     -11.908   9.857  68.998  1.00  0.00    -0.445 OA 
HETATM   17  H   UNL     1     -11.263   9.801  68.302  1.00  0.00     0.000 HD 
BRANCH  15  18
HETATM   18  C   UNL     1     -11.552  12.272  69.056  1.00  0.00    -0.316 C  
BRANCH  18  19
HETATM   19  O   UNL     1     -10.315  12.410  68.365  1.00  0.00    -0.221 OA 
BRANCH  19  20
HETATM   20  C   UNL     1     -10.396  12.439  66.993  1.00  0.00    -0.220 A  
HETATM   21  C   UNL     1     -10.449  11.297  66.173  1.00  0.00    -0.305 A  
HETATM   22  C   UNL     1     -10.560  11.400  64.790  1.00  0.00    -0.377 A  
HETATM   23  C   UNL     1     -10.624  12.644  64.165  1.00  0.00    -0.434 A  
HETATM   24  C   UNL     1     -10.562  13.779  64.984  1.00  0.00    -0.389 A  
HETATM   25  C   UNL     1     -10.444  13.711  66.373  1.00  0.00    -0.288 A  
HETATM   26  C   UNL     1     -10.390  15.060  66.859  1.00  0.00    -0.266 A  
HETATM   27  C   UNL     1     -10.256  15.638  68.140  1.00  0.00    -0.228 A  
HETATM   28  C   UNL     1     -10.244  17.030  68.275  1.00  0.00    -0.326 A  
HETATM   29  C   UNL     1     -10.364  17.849  67.154  1.00  0.00    -0.371 A  
HETATM   30  C   UNL     1     -10.494  17.304  65.873  1.00  0.00    -0.267 A  
HETATM   31  C   UNL     1     -10.499  15.907  65.760  1.00  0.00    -0.370 A  
HETATM   32  N   UNL     1     -10.600  15.113  64.647  1.00  0.00    -0.573 NA 
HETATM   33  H   UNL     1     -10.691  15.464  63.693  1.00  0.00     0.000 HD 
ENDBRANCH  19  20
ENDBRANCH  18  19
ENDBRANCH  15  18
ENDBRANCH  14  15
ENDBRANCH  12  14
ENDBRANCH  11  12
ENDBRANCH  10  11
ENDBRANCH   9  10
ENDBRANCH   8   9
ENDBRANCH   2   3
TORSDOF 10
ENDMDL
MODEL       62
REMARK 921   NORMALIZED FREE ENERGY PREDICTED BY IDOCK:   -6.03 KCAL/MOL
REMARK 922        TOTAL FREE ENERGY PREDICTED BY IDOCK:  -11.39 KCAL/MOL
REMARK 923 INTER-LIGAND FREE ENERGY PREDICTED BY IDOCK:   -9.41 KCAL/MOL
REMARK 924 INTRA-LIGAND FREE ENERGY PREDICTED BY IDOCK:   -1.99 KCAL/MOL
REMARK 927      BINDING AFFINITY PREDICTED BY RF-SCORE:    0.00 PKD
ROOT
HETATM    1  C   UNL     1     -13.631  15.387  71.099  1.00  0.00    -0.462 C  
HETATM    2  O   UNL     1     -12.413  14.723  70.772  1.00  0.00    -0.295 OA 
ENDROOT
BRANCH   2   3
HETATM    3  C   UNL     1     -12.460  13.352  70.737  1.00  0.00    -0.341 A  
HETATM    4  C   UNL     1     -13.016  12.614  71.795  1.00  0.00    -0.417 A  
HETATM    5  C   UNL     1     -13.107  11.224  71.731  1.00  0.00    -0.527 A  
HETATM    6  C   UNL     1     -12.619  10.548  70.620  1.00  0.00    -0.457 A  
HETATM    7  C   UNL     1     -12.020  11.265  69.586  1.00  0.00    -0.423 A  
HETATM    8  C   UNL     1     -11.921  12.664  69.632  1.00  0.00    -0.286 A  
BRANCH   8   9
HETATM    9  O   UNL     1     -11.300  13.172  68.516  1.00  0.00    -0.248 OA 
BRANCH   9  10
HETATM   10  C   UNL     1     -12.085  13.978  67.646  1.00  0.00    -0.309 C  
BRANCH  10  11
HETATM   11  C   UNL     1     -12.261  13.277  66.288  1.00  0.00    -0.377 C  
BRANCH  11  12
HETATM   12  N   UNL     1     -11.621  13.986  65.165  1.00  0.00    -0.329 NA 
HETATM   13  H   UNL     1     -10.616  14.076  65.311  1.00  0.00     0.000 HD 
BRANCH  12  14
HETATM   14  C   UNL     1     -11.916  13.353  63.861  1.00  0.00    -0.465 C  
BRANCH  14  15
HETATM   15  C   UNL     1     -11.854  11.811  63.928  1.00  0.00    -0.349 C  
HETATM   16  O   UNL     1     -12.546  11.259  62.804  1.00  0.00    -0.912 OA 
HETATM   17  H   UNL     1     -12.507  10.310  62.845  1.00  0.00     0.000 HD 
BRANCH  15  18
HETATM   18  C   UNL     1     -10.395  11.339  63.956  1.00  0.00    -0.371 C  
BRANCH  18  19
HETATM   19  O   UNL     1     -10.183  10.406  65.011  1.00  0.00    -0.324 OA 
BRANCH  19  20
HETATM   20  C   UNL     1      -9.477  10.877  66.092  1.00  0.00    -0.200 A  
HETATM   21  C   UNL     1      -8.803  12.112  66.128  1.00  0.00     0.026 A  
HETATM   22  C   UNL     1      -8.132  12.539  67.270  1.00  0.00    -0.179 A  
HETATM   23  C   UNL     1      -8.102  11.757  68.422  1.00  0.00    -0.150 A  
HETATM   24  C   UNL     1      -8.766  10.524  68.379  1.00  0.00    -0.137 A  
HETATM   25  C   UNL     1      -9.444  10.062  67.250  1.00  0.00    -0.179 A  
HETATM   26  C   UNL     1      -9.973   8.768  67.574  1.00  0.00    -0.254 A  
HETATM   27  C   UNL     1     -10.719   7.805  66.860  1.00  0.00    -0.244 A  
HETATM   28  C   UNL     1     -11.092   6.612  67.488  1.00  0.00    -0.374 A  
HETATM   29  C   UNL     1     -10.733   6.370  68.811  1.00  0.00    -0.339 A  
HETATM   30  C   UNL     1      -9.991   7.303  69.541  1.00  0.00    -0.170 A  
HETATM   31  C   UNL     1      -9.623   8.489  68.892  1.00  0.00    -0.160 A  
HETATM   32  N   UNL     1      -8.898   9.559  69.351  1.00  0.00    -0.158 NA 
HETATM   33  H   UNL     1      -8.508   9.630  70.292  1.00  0.00     0.000 HD 
ENDBRANCH  19  20
ENDBRANCH  18  19
ENDBRANCH  15  18
ENDBRANCH  14  15
ENDBRANCH  12  14
ENDBRANCH  11  12
ENDBRANCH  10  11
ENDBRANCH   9  10
ENDBRANCH   8   9
ENDBRANCH   2   3
TORSDOF 10
ENDMDL
MODEL       63
REMARK 921   NORMALIZED FREE ENERGY PREDICTED BY IDOCK:   -6.02 KCAL/MOL
REMARK 922        TOTAL FREE ENERGY PREDICTED BY IDOCK:  -11.39 KCAL/MOL
REMARK 923 INTER-LIGAND FREE ENERGY PREDICTED BY IDOCK:  -10.11 KCAL/MOL
REMARK 924 INTRA-LIGAND FREE ENERGY PREDICTED BY IDOCK:   -1.28 KCAL/MOL
REMARK 927      BINDING AFFINITY PREDICTED BY RF-SCORE:    0.00 PKD
ROOT
HETATM    1  C   UNL     1      -7.589   7.337  63.334  1.00  0.00    -0.117 C  
HETATM    2  O   UNL     1      -7.782   8.105  64.520  1.00  0.00    -0.105 OA 
ENDROOT
BRANCH   2   3
HETATM    3  C   UNL     1      -8.659   9.156  64.426  1.00  0.00    -0.181 A  
HETATM    4  C   UNL     1      -8.900   9.797  63.199  1.00  0.00    -0.257 A  
HETATM    5  C   UNL     1      -9.830  10.831  63.100  1.00  0.00    -0.378 A  
HETATM    6  C   UNL     1     -10.513  11.259  64.231  1.00  0.00    -0.419 A  
HETATM    7  C   UNL     1     -10.245  10.667  65.464  1.00  0.00    -0.329 A  
HETATM    8  C   UNL     1      -9.315   9.623  65.582  1.00  0.00    -0.237 A  
BRANCH   8   9
HETATM    9  O   UNL     1      -9.202   9.180  66.878  1.00  0.00    -0.140 OA 
BRANCH   9  10
HETATM   10  C   UNL     1     -10.379   8.681  67.500  1.00  0.00    -0.269 C  
BRANCH  10  11
HETATM   11  C   UNL     1     -10.315   8.908  69.019  1.00  0.00    -0.212 C  
BRANCH  11  12
HETATM   12  N   UNL     1     -11.399   9.761  69.540  1.00  0.00    -0.419 NA 
HETATM   13  H   UNL     1     -12.269   9.606  69.029  1.00  0.00     0.000 HD 
BRANCH  12  14
HETATM   14  C   UNL     1     -11.598   9.591  70.996  1.00  0.00    -0.344 C  
BRANCH  14  15
HETATM   15  C   UNL     1     -13.070   9.794  71.416  1.00  0.00    -0.400 C  
HETATM   16  O   UNL     1     -13.421   8.819  72.403  1.00  0.00    -0.466 OA 
HETATM   17  H   UNL     1     -14.327   8.944  72.662  1.00  0.00     0.000 HD 
BRANCH  15  18
HETATM   18  C   UNL     1     -13.279  11.215  71.954  1.00  0.00    -0.382 C  
BRANCH  18  19
HETATM   19  O   UNL     1     -12.951  12.186  70.966  1.00  0.00    -0.217 OA 
BRANCH  19  20
HETATM   20  C   UNL     1     -12.790  13.473  71.423  1.00  0.00    -0.355 A  
HETATM   21  C   UNL     1     -13.121  13.906  72.720  1.00  0.00    -0.484 A  
HETATM   22  C   UNL     1     -12.903  15.219  73.124  1.00  0.00    -0.606 A  
HETATM   23  C   UNL     1     -12.346  16.156  72.256  1.00  0.00    -0.538 A  
HETATM   24  C   UNL     1     -12.025  15.723  70.963  1.00  0.00    -0.419 A  
HETATM   25  C   UNL     1     -12.236  14.415  70.523  1.00  0.00    -0.411 A  
HETATM   26  C   UNL     1     -11.810  14.356  69.154  1.00  0.00    -0.359 A  
HETATM   27  C   UNL     1     -11.790  13.339  68.175  1.00  0.00    -0.388 A  
HETATM   28  C   UNL     1     -11.289  13.616  66.898  1.00  0.00    -0.345 A  
HETATM   29  C   UNL     1     -10.811  14.887  66.588  1.00  0.00    -0.319 A  
HETATM   30  C   UNL     1     -10.823  15.914  67.536  1.00  0.00    -0.305 A  
HETATM   31  C   UNL     1     -11.333  15.617  68.807  1.00  0.00    -0.349 A  
HETATM   32  N   UNL     1     -11.474  16.419  69.911  1.00  0.00    -0.359 NA 
HETATM   33  H   UNL     1     -11.206  17.403  69.947  1.00  0.00     0.000 HD 
ENDBRANCH  19  20
ENDBRANCH  18  19
ENDBRANCH  15  18
ENDBRANCH  14  15
ENDBRANCH  12  14
ENDBRANCH  11  12
ENDBRANCH  10  11
ENDBRANCH   9  10
ENDBRANCH   8   9
ENDBRANCH   2   3
TORSDOF 10
ENDMDL
MODEL       64
REMARK 921   NORMALIZED FREE ENERGY PREDICTED BY IDOCK:   -6.01 KCAL/MOL
REMARK 922        TOTAL FREE ENERGY PREDICTED BY IDOCK:  -11.36 KCAL/MOL
REMARK 923 INTER-LIGAND FREE ENERGY PREDICTED BY IDOCK:   -9.11 KCAL/MOL
REMARK 924 INTRA-LIGAND FREE ENERGY PREDICTED BY IDOCK:   -2.25 KCAL/MOL
REMARK 927      BINDING AFFINITY PREDICTED BY RF-SCORE:    0.00 PKD
ROOT
HETATM    1  C   UNL     1     -10.990   7.484  72.551  1.00  0.00    -0.313 C  
HETATM    2  O   UNL     1     -11.186   7.794  71.173  1.00  0.00    -0.255 OA 
ENDROOT
BRANCH   2   3
HETATM    3  C   UNL     1     -11.553   9.084  70.888  1.00  0.00    -0.290 A  
HETATM    4  C   UNL     1     -12.461   9.782  71.702  1.00  0.00    -0.500 A  
HETATM    5  C   UNL     1     -12.790  11.110  71.435  1.00  0.00    -0.544 A  
HETATM    6  C   UNL     1     -12.238  11.754  70.335  1.00  0.00    -0.416 A  
HETATM    7  C   UNL     1     -11.376  11.057  69.491  1.00  0.00    -0.356 A  
HETATM    8  C   UNL     1     -11.031   9.721  69.744  1.00  0.00    -0.256 A  
BRANCH   8   9
HETATM    9  O   UNL     1     -10.170   9.223  68.796  1.00  0.00    -0.193 OA 
BRANCH   9  10
HETATM   10  C   UNL     1     -10.650   9.144  67.460  1.00  0.00    -0.249 C  
BRANCH  10  11
HETATM   11  C   UNL     1      -9.538   9.533  66.471  1.00  0.00    -0.201 C  
BRANCH  11  12
HETATM   12  N   UNL     1      -8.199   9.615  67.083  1.00  0.00    -0.120 NA 
HETATM   13  H   UNL     1      -7.573   8.909  66.697  1.00  0.00     0.000 HD 
BRANCH  12  14
HETATM   14  C   UNL     1      -7.613  10.969  66.970  1.00  0.00    -0.127 C  
BRANCH  14  15
HETATM   15  C   UNL     1      -8.003  11.880  68.155  1.00  0.00    -0.151 C  
HETATM   16  O   UNL     1      -7.694  11.217  69.385  1.00  0.00    -0.340 OA 
HETATM   17  H   UNL     1      -7.934  11.778  70.114  1.00  0.00     0.000 HD 
BRANCH  15  18
HETATM   18  C   UNL     1      -7.266  13.221  68.058  1.00  0.00    -0.121 C  
BRANCH  18  19
HETATM   19  O   UNL     1      -8.044  14.179  67.349  1.00  0.00    -0.174 OA 
BRANCH  19  20
HETATM   20  C   UNL     1      -9.224  14.554  67.948  1.00  0.00    -0.196 A  
HETATM   21  C   UNL     1      -9.313  15.248  69.168  1.00  0.00    -0.236 A  
HETATM   22  C   UNL     1     -10.542  15.622  69.702  1.00  0.00    -0.284 A  
HETATM   23  C   UNL     1     -11.734  15.321  69.045  1.00  0.00    -0.368 A  
HETATM   24  C   UNL     1     -11.641  14.622  67.835  1.00  0.00    -0.348 A  
HETATM   25  C   UNL     1     -10.426  14.227  67.274  1.00  0.00    -0.269 A  
HETATM   26  C   UNL     1     -10.729  13.524  66.060  1.00  0.00    -0.280 A  
HETATM   27  C   UNL     1      -9.947  12.879  65.077  1.00  0.00    -0.163 A  
HETATM   28  C   UNL     1     -10.571  12.277  63.979  1.00  0.00    -0.434 A  
HETATM   29  C   UNL     1     -11.958  12.311  63.850  1.00  0.00    -0.582 A  
HETATM   30  C   UNL     1     -12.757  12.939  64.811  1.00  0.00    -0.442 A  
HETATM   31  C   UNL     1     -12.112  13.531  65.905  1.00  0.00    -0.435 A  
HETATM   32  N   UNL     1     -12.635  14.196  66.984  1.00  0.00    -0.469 NA 
HETATM   33  H   UNL     1     -13.632  14.353  67.137  1.00  0.00     0.000 HD 
ENDBRANCH  19  20
ENDBRANCH  18  19
ENDBRANCH  15  18
ENDBRANCH  14  15
ENDBRANCH  12  14
ENDBRANCH  11  12
ENDBRANCH  10  11
ENDBRANCH   9  10
ENDBRANCH   8   9
ENDBRANCH   2   3
TORSDOF 10
ENDMDL
MODEL       65
REMARK 921   NORMALIZED FREE ENERGY PREDICTED BY IDOCK:   -5.99 KCAL/MOL
REMARK 922        TOTAL FREE ENERGY PREDICTED BY IDOCK:  -11.33 KCAL/MOL
REMARK 923 INTER-LIGAND FREE ENERGY PREDICTED BY IDOCK:  -10.08 KCAL/MOL
REMARK 924 INTRA-LIGAND FREE ENERGY PREDICTED BY IDOCK:   -1.25 KCAL/MOL
REMARK 927      BINDING AFFINITY PREDICTED BY RF-SCORE:    0.00 PKD
ROOT
HETATM    1  C   UNL     1      -8.133   9.904  69.023  1.00  0.00    -0.111 C  
HETATM    2  O   UNL     1      -9.339  10.296  69.676  1.00  0.00    -0.205 OA 
ENDROOT
BRANCH   2   3
HETATM    3  C   UNL     1      -9.942   9.343  70.457  1.00  0.00    -0.267 A  
HETATM    4  C   UNL     1      -9.332   8.099  70.693  1.00  0.00    -0.165 A  
HETATM    5  C   UNL     1      -9.927   7.155  71.528  1.00  0.00    -0.190 A  
HETATM    6  C   UNL     1     -11.154   7.427  72.119  1.00  0.00    -0.291 A  
HETATM    7  C   UNL     1     -11.793   8.636  71.853  1.00  0.00    -0.420 A  
HETATM    8  C   UNL     1     -11.209   9.600  71.017  1.00  0.00    -0.375 A  
BRANCH   8   9
HETATM    9  O   UNL     1     -12.000  10.717  70.889  1.00  0.00    -0.332 OA 
BRANCH   9  10
HETATM   10  C   UNL     1     -13.149  10.799  71.723  1.00  0.00    -0.468 C  
BRANCH  10  11
HETATM   11  C   UNL     1     -13.417  12.262  72.115  1.00  0.00    -0.327 C  
BRANCH  11  12
HETATM   12  N   UNL     1     -12.560  13.234  71.410  1.00  0.00    -0.317 NA 
HETATM   13  H   UNL     1     -12.992  13.542  70.539  1.00  0.00     0.000 HD 
BRANCH  12  14
HETATM   14  C   UNL     1     -12.200  14.387  72.264  1.00  0.00    -0.114 C  
BRANCH  14  15
HETATM   15  C   UNL     1     -12.603  15.736  71.631  1.00  0.00    -0.459 C  
HETATM   16  O   UNL     1     -11.722  16.762  72.097  1.00  0.00    -0.591 OA 
HETATM   17  H   UNL     1     -11.970  17.593  71.707  1.00  0.00     0.000 HD 
BRANCH  15  18
HETATM   18  C   UNL     1     -12.563  15.638  70.101  1.00  0.00    -0.206 C  
BRANCH  18  19
HETATM   19  O   UNL     1     -11.239  15.391  69.641  1.00  0.00    -0.243 OA 
BRANCH  19  20
HETATM   20  C   UNL     1     -11.111  15.126  68.298  1.00  0.00    -0.291 A  
HETATM   21  C   UNL     1     -11.408  13.889  67.697  1.00  0.00    -0.335 A  
HETATM   22  C   UNL     1     -11.283  13.701  66.324  1.00  0.00    -0.313 A  
HETATM   23  C   UNL     1     -10.859  14.735  65.492  1.00  0.00    -0.359 A  
HETATM   24  C   UNL     1     -10.556  15.962  66.095  1.00  0.00    -0.305 A  
HETATM   25  C   UNL     1     -10.664  16.184  67.469  1.00  0.00    -0.304 A  
HETATM   26  C   UNL     1     -10.254  17.537  67.713  1.00  0.00    -0.349 A  
HETATM   27  C   UNL     1     -10.126  18.331  68.874  1.00  0.00    -0.358 A  
HETATM   28  C   UNL     1      -9.691  19.656  68.763  1.00  0.00    -0.488 A  
HETATM   29  C   UNL     1      -9.385  20.196  67.516  1.00  0.00    -0.507 A  
HETATM   30  C   UNL     1      -9.498  19.432  66.351  1.00  0.00    -0.432 A  
HETATM   31  C   UNL     1      -9.931  18.106  66.484  1.00  0.00    -0.374 A  
HETATM   32  N   UNL     1     -10.120  17.139  65.530  1.00  0.00    -0.587 NA 
HETATM   33  H   UNL     1      -9.959  17.275  64.532  1.00  0.00     0.000 HD 
ENDBRANCH  19  20
ENDBRANCH  18  19
ENDBRANCH  15  18
ENDBRANCH  14  15
ENDBRANCH  12  14
ENDBRANCH  11  12
ENDBRANCH  10  11
ENDBRANCH   9  10
ENDBRANCH   8   9
ENDBRANCH   2   3
TORSDOF 10
ENDMDL
MODEL       66
REMARK 921   NORMALIZED FREE ENERGY PREDICTED BY IDOCK:   -5.99 KCAL/MOL
REMARK 922        TOTAL FREE ENERGY PREDICTED BY IDOCK:  -11.33 KCAL/MOL
REMARK 923 INTER-LIGAND FREE ENERGY PREDICTED BY IDOCK:  -10.44 KCAL/MOL
REMARK 924 INTRA-LIGAND FREE ENERGY PREDICTED BY IDOCK:   -0.90 KCAL/MOL
REMARK 927      BINDING AFFINITY PREDICTED BY RF-SCORE:    0.00 PKD
ROOT
HETATM    1  C   UNL     1     -10.717   3.912  73.965  1.00  0.00    -0.220 C  
HETATM    2  O   UNL     1     -10.998   5.252  73.569  1.00  0.00    -0.287 OA 
ENDROOT
BRANCH   2   3
HETATM    3  C   UNL     1     -10.849   5.534  72.234  1.00  0.00    -0.241 A  
HETATM    4  C   UNL     1     -10.156   4.662  71.378  1.00  0.00    -0.248 A  
HETATM    5  C   UNL     1     -10.052   4.929  70.013  1.00  0.00    -0.337 A  
HETATM    6  C   UNL     1     -10.616   6.084  69.488  1.00  0.00    -0.363 A  
HETATM    7  C   UNL     1     -11.262   6.982  70.335  1.00  0.00    -0.339 A  
HETATM    8  C   UNL     1     -11.379   6.729  71.711  1.00  0.00    -0.269 A  
BRANCH   8   9
HETATM    9  O   UNL     1     -12.051   7.735  72.363  1.00  0.00    -0.304 OA 
BRANCH   9  10
HETATM   10  C   UNL     1     -13.303   8.138  71.822  1.00  0.00    -0.345 C  
BRANCH  10  11
HETATM   11  C   UNL     1     -13.364   9.670  71.705  1.00  0.00    -0.419 C  
BRANCH  11  12
HETATM   12  N   UNL     1     -13.137  10.174  70.338  1.00  0.00    -0.583 NA 
HETATM   13  H   UNL     1     -13.863  10.836  70.064  1.00  0.00     0.000 HD 
BRANCH  12  14
HETATM   14  C   UNL     1     -11.789  10.759  70.172  1.00  0.00    -0.343 C  
BRANCH  14  15
HETATM   15  C   UNL     1     -11.832  12.155  69.512  1.00  0.00    -0.321 C  
HETATM   16  O   UNL     1     -11.649  13.160  70.514  1.00  0.00    -0.521 OA 
HETATM   17  H   UNL     1     -11.675  14.019  70.107  1.00  0.00     0.000 HD 
BRANCH  15  18
HETATM   18  C   UNL     1     -10.752  12.263  68.428  1.00  0.00    -0.234 C  
BRANCH  18  19
HETATM   19  O   UNL     1     -11.052  11.415  67.324  1.00  0.00    -0.270 OA 
BRANCH  19  20
HETATM   20  C   UNL     1     -11.383  12.053  66.152  1.00  0.00    -0.351 A  
HETATM   21  C   UNL     1     -12.261  13.148  66.062  1.00  0.00    -0.478 A  
HETATM   22  C   UNL     1     -12.529  13.765  64.843  1.00  0.00    -0.420 A  
HETATM   23  C   UNL     1     -11.934  13.319  63.665  1.00  0.00    -0.547 A  
HETATM   24  C   UNL     1     -11.067  12.222  63.758  1.00  0.00    -0.442 A  
HETATM   25  C   UNL     1     -10.781  11.576  64.962  1.00  0.00    -0.350 A  
HETATM   26  C   UNL     1      -9.881  10.500  64.661  1.00  0.00    -0.404 A  
HETATM   27  C   UNL     1      -9.259   9.495  65.434  1.00  0.00    -0.306 A  
HETATM   28  C   UNL     1      -8.407   8.574  64.816  1.00  0.00    -0.163 A  
HETATM   29  C   UNL     1      -8.168   8.643  63.446  1.00  0.00    -0.155 A  
HETATM   30  C   UNL     1      -8.774   9.625  62.656  1.00  0.00    -0.226 A  
HETATM   31  C   UNL     1      -9.628  10.534  63.294  1.00  0.00    -0.331 A  
HETATM   32  N   UNL     1     -10.353  11.577  62.775  1.00  0.00    -0.621 NA 
HETATM   33  H   UNL     1     -10.361  11.839  61.789  1.00  0.00     0.000 HD 
ENDBRANCH  19  20
ENDBRANCH  18  19
ENDBRANCH  15  18
ENDBRANCH  14  15
ENDBRANCH  12  14
ENDBRANCH  11  12
ENDBRANCH  10  11
ENDBRANCH   9  10
ENDBRANCH   8   9
ENDBRANCH   2   3
TORSDOF 10
ENDMDL
MODEL       67
REMARK 921   NORMALIZED FREE ENERGY PREDICTED BY IDOCK:   -5.98 KCAL/MOL
REMARK 922        TOTAL FREE ENERGY PREDICTED BY IDOCK:  -11.33 KCAL/MOL
REMARK 923 INTER-LIGAND FREE ENERGY PREDICTED BY IDOCK:   -9.49 KCAL/MOL
REMARK 924 INTRA-LIGAND FREE ENERGY PREDICTED BY IDOCK:   -1.84 KCAL/MOL
REMARK 927      BINDING AFFINITY PREDICTED BY RF-SCORE:    0.00 PKD
ROOT
HETATM    1  C   UNL     1      -7.147  14.563  67.583  1.00  0.00    -0.183 C  
HETATM    2  O   UNL     1      -8.070  13.557  67.170  1.00  0.00    -0.163 OA 
ENDROOT
BRANCH   2   3
HETATM    3  C   UNL     1      -7.677  12.257  67.365  1.00  0.00    -0.165 A  
HETATM    4  C   UNL     1      -6.371  11.944  67.777  1.00  0.00    -0.077 A  
HETATM    5  C   UNL     1      -5.993  10.624  68.023  1.00  0.00    -0.046 A  
HETATM    6  C   UNL     1      -6.906   9.595  67.834  1.00  0.00    -0.074 A  
HETATM    7  C   UNL     1      -8.189   9.889  67.376  1.00  0.00    -0.118 A  
HETATM    8  C   UNL     1      -8.589  11.210  67.126  1.00  0.00    -0.139 A  
BRANCH   8   9
HETATM    9  O   UNL     1      -9.889  11.280  66.686  1.00  0.00    -0.198 OA 
BRANCH   9  10
HETATM   10  C   UNL     1     -10.105  11.186  65.283  1.00  0.00    -0.276 C  
BRANCH  10  11
HETATM   11  C   UNL     1     -11.369  11.968  64.888  1.00  0.00    -0.310 C  
BRANCH  11  12
HETATM   12  N   UNL     1     -12.202  12.375  66.035  1.00  0.00    -0.624 NA 
HETATM   13  H   UNL     1     -11.816  12.026  66.912  1.00  0.00     0.000 HD 
BRANCH  12  14
HETATM   14  C   UNL     1     -12.410  13.838  66.087  1.00  0.00    -0.452 C  
BRANCH  14  15
HETATM   15  C   UNL     1     -11.135  14.599  66.514  1.00  0.00    -0.329 C  
HETATM   16  O   UNL     1     -10.947  15.729  65.657  1.00  0.00    -0.313 OA 
HETATM   17  H   UNL     1     -10.163  16.197  65.920  1.00  0.00     0.000 HD 
BRANCH  15  18
HETATM   18  C   UNL     1     -11.244  15.038  67.979  1.00  0.00    -0.316 C  
BRANCH  18  19
HETATM   19  O   UNL     1     -11.349  13.910  68.842  1.00  0.00    -0.250 OA 
BRANCH  19  20
HETATM   20  C   UNL     1     -12.182  14.061  69.925  1.00  0.00    -0.340 A  
HETATM   21  C   UNL     1     -12.772  15.277  70.314  1.00  0.00    -0.353 A  
HETATM   22  C   UNL     1     -13.632  15.350  71.406  1.00  0.00    -0.604 A  
HETATM   23  C   UNL     1     -13.940  14.217  72.156  1.00  0.00    -0.626 A  
HETATM   24  C   UNL     1     -13.344  13.010  71.771  1.00  0.00    -0.378 A  
HETATM   25  C   UNL     1     -12.473  12.902  70.685  1.00  0.00    -0.333 A  
HETATM   26  C   UNL     1     -12.053  11.531  70.614  1.00  0.00    -0.450 A  
HETATM   27  C   UNL     1     -11.181  10.814  69.767  1.00  0.00    -0.365 A  
HETATM   28  C   UNL     1     -10.989   9.443  69.970  1.00  0.00    -0.267 A  
HETATM   29  C   UNL     1     -11.654   8.783  71.000  1.00  0.00    -0.337 A  
HETATM   30  C   UNL     1     -12.521   9.469  71.857  1.00  0.00    -0.465 A  
HETATM   31  C   UNL     1     -12.694  10.842  71.639  1.00  0.00    -0.393 A  
HETATM   32  N   UNL     1     -13.462  11.753  72.319  1.00  0.00    -0.547 NA 
HETATM   33  H   UNL     1     -14.045  11.528  73.126  1.00  0.00     0.000 HD 
ENDBRANCH  19  20
ENDBRANCH  18  19
ENDBRANCH  15  18
ENDBRANCH  14  15
ENDBRANCH  12  14
ENDBRANCH  11  12
ENDBRANCH  10  11
ENDBRANCH   9  10
ENDBRANCH   8   9
ENDBRANCH   2   3
TORSDOF 10
ENDMDL
MODEL       68
REMARK 921   NORMALIZED FREE ENERGY PREDICTED BY IDOCK:   -5.97 KCAL/MOL
REMARK 922        TOTAL FREE ENERGY PREDICTED BY IDOCK:  -11.31 KCAL/MOL
REMARK 923 INTER-LIGAND FREE ENERGY PREDICTED BY IDOCK:  -10.12 KCAL/MOL
REMARK 924 INTRA-LIGAND FREE ENERGY PREDICTED BY IDOCK:   -1.19 KCAL/MOL
REMARK 927      BINDING AFFINITY PREDICTED BY RF-SCORE:    0.00 PKD
ROOT
HETATM    1  C   UNL     1      -9.484   2.510  69.259  1.00  0.00    -0.067 C  
HETATM    2  O   UNL     1      -8.855   3.080  70.405  1.00  0.00    -0.068 OA 
ENDROOT
BRANCH   2   3
HETATM    3  C   UNL     1      -9.688   3.657  71.330  1.00  0.00    -0.169 A  
HETATM    4  C   UNL     1     -10.114   2.952  72.468  1.00  0.00    -0.234 A  
HETATM    5  C   UNL     1     -10.920   3.561  73.429  1.00  0.00    -0.308 A  
HETATM    6  C   UNL     1     -11.334   4.875  73.255  1.00  0.00    -0.408 A  
HETATM    7  C   UNL     1     -10.960   5.568  72.105  1.00  0.00    -0.291 A  
HETATM    8  C   UNL     1     -10.148   4.973  71.128  1.00  0.00    -0.223 A  
BRANCH   8   9
HETATM    9  O   UNL     1      -9.896   5.826  70.080  1.00  0.00    -0.169 OA 
BRANCH   9  10
HETATM   10  C   UNL     1      -9.765   7.209  70.384  1.00  0.00    -0.176 C  
BRANCH  10  11
HETATM   11  C   UNL     1     -10.377   8.060  69.258  1.00  0.00    -0.220 C  
BRANCH  11  12
HETATM   12  N   UNL     1     -11.272   9.128  69.739  1.00  0.00    -0.420 NA 
HETATM   13  H   UNL     1     -12.199   9.049  69.320  1.00  0.00     0.000 HD 
BRANCH  12  14
HETATM   14  C   UNL     1     -11.355   9.170  71.215  1.00  0.00    -0.336 C  
BRANCH  14  15
HETATM   15  C   UNL     1     -12.813   9.128  71.724  1.00  0.00    -0.377 C  
HETATM   16  O   UNL     1     -12.854   8.471  72.994  1.00  0.00    -0.701 OA 
HETATM   17  H   UNL     1     -13.751   8.445  73.307  1.00  0.00     0.000 HD 
BRANCH  15  18
HETATM   18  C   UNL     1     -13.381  10.549  71.826  1.00  0.00    -0.344 C  
BRANCH  18  19
HETATM   19  O   UNL     1     -12.712  11.430  70.930  1.00  0.00    -0.346 OA 
BRANCH  19  20
HETATM   20  C   UNL     1     -12.883  12.772  71.172  1.00  0.00    -0.226 A  
HETATM   21  C   UNL     1     -13.414  13.307  72.360  1.00  0.00    -0.670 A  
HETATM   22  C   UNL     1     -13.532  14.681  72.549  1.00  0.00    -0.565 A  
HETATM   23  C   UNL     1     -13.125  15.579  71.564  1.00  0.00    -0.573 A  
HETATM   24  C   UNL     1     -12.606  15.043  70.379  1.00  0.00    -0.350 A  
HETATM   25  C   UNL     1     -12.479  13.671  70.154  1.00  0.00    -0.305 A  
HETATM   26  C   UNL     1     -11.934  13.507  68.837  1.00  0.00    -0.378 A  
HETATM   27  C   UNL     1     -11.602  12.386  68.045  1.00  0.00    -0.403 A  
HETATM   28  C   UNL     1     -11.068  12.576  66.766  1.00  0.00    -0.323 A  
HETATM   29  C   UNL     1     -10.862  13.861  66.271  1.00  0.00    -0.290 A  
HETATM   30  C   UNL     1     -11.186  14.989  67.032  1.00  0.00    -0.328 A  
HETATM   31  C   UNL     1     -11.724  14.776  68.308  1.00  0.00    -0.311 A  
HETATM   32  N   UNL     1     -12.136  15.680  69.254  1.00  0.00    -0.539 NA 
HETATM   33  H   UNL     1     -12.100  16.694  69.138  1.00  0.00     0.000 HD 
ENDBRANCH  19  20
ENDBRANCH  18  19
ENDBRANCH  15  18
ENDBRANCH  14  15
ENDBRANCH  12  14
ENDBRANCH  11  12
ENDBRANCH  10  11
ENDBRANCH   9  10
ENDBRANCH   8   9
ENDBRANCH   2   3
TORSDOF 10
ENDMDL
MODEL       69
REMARK 921   NORMALIZED FREE ENERGY PREDICTED BY IDOCK:   -5.97 KCAL/MOL
REMARK 922        TOTAL FREE ENERGY PREDICTED BY IDOCK:  -11.30 KCAL/MOL
REMARK 923 INTER-LIGAND FREE ENERGY PREDICTED BY IDOCK:   -9.76 KCAL/MOL
REMARK 924 INTRA-LIGAND FREE ENERGY PREDICTED BY IDOCK:   -1.54 KCAL/MOL
REMARK 927      BINDING AFFINITY PREDICTED BY RF-SCORE:    0.00 PKD
ROOT
HETATM    1  C   UNL     1     -10.117  15.822  65.458  1.00  0.00    -0.351 C  
HETATM    2  O   UNL     1      -8.989  16.613  65.826  1.00  0.00    -0.498 OA 
ENDROOT
BRANCH   2   3
HETATM    3  C   UNL     1      -9.249  17.717  66.598  1.00  0.00    -0.269 A  
HETATM    4  C   UNL     1     -10.499  18.357  66.558  1.00  0.00    -0.411 A  
HETATM    5  C   UNL     1     -10.773  19.448  67.382  1.00  0.00    -0.594 A  
HETATM    6  C   UNL     1      -9.794  19.933  68.239  1.00  0.00    -0.514 A  
HETATM    7  C   UNL     1      -8.534  19.339  68.251  1.00  0.00    -0.366 A  
HETATM    8  C   UNL     1      -8.240  18.239  67.431  1.00  0.00    -0.237 A  
BRANCH   8   9
HETATM    9  O   UNL     1      -6.946  17.805  67.597  1.00  0.00    -0.177 OA 
BRANCH   9  10
HETATM   10  C   UNL     1      -6.734  16.720  68.492  1.00  0.00    -0.161 C  
BRANCH  10  11
HETATM   11  C   UNL     1      -6.223  15.490  67.723  1.00  0.00    -0.157 C  
BRANCH  11  12
HETATM   12  N   UNL     1      -7.297  14.624  67.204  1.00  0.00    -0.309 NA 
HETATM   13  H   UNL     1      -6.916  13.849  66.660  1.00  0.00     0.000 HD 
BRANCH  12  14
HETATM   14  C   UNL     1      -8.192  14.134  68.276  1.00  0.00    -0.148 C  
BRANCH  14  15
HETATM   15  C   UNL     1      -8.566  12.647  68.095  1.00  0.00    -0.188 C  
HETATM   16  O   UNL     1      -7.957  11.874  69.134  1.00  0.00    -0.347 OA 
HETATM   17  H   UNL     1      -8.188  10.959  69.023  1.00  0.00     0.000 HD 
BRANCH  15  18
HETATM   18  C   UNL     1     -10.091  12.477  68.112  1.00  0.00    -0.225 C  
BRANCH  18  19
HETATM   19  O   UNL     1     -10.497  11.439  67.226  1.00  0.00    -0.192 OA 
BRANCH  19  20
HETATM   20  C   UNL     1     -11.041  11.849  66.033  1.00  0.00    -0.322 A  
HETATM   21  C   UNL     1     -12.070  12.801  65.911  1.00  0.00    -0.485 A  
HETATM   22  C   UNL     1     -12.554  13.192  64.667  1.00  0.00    -0.384 A  
HETATM   23  C   UNL     1     -12.034  12.654  63.491  1.00  0.00    -0.630 A  
HETATM   24  C   UNL     1     -11.017  11.700  63.617  1.00  0.00    -0.431 A  
HETATM   25  C   UNL     1     -10.512  11.280  64.849  1.00  0.00    -0.375 A  
HETATM   26  C   UNL     1      -9.507  10.292  64.580  1.00  0.00    -0.356 A  
HETATM   27  C   UNL     1      -8.669   9.498  65.392  1.00  0.00    -0.190 A  
HETATM   28  C   UNL     1      -7.767   8.609  64.798  1.00  0.00    -0.108 A  
HETATM   29  C   UNL     1      -7.692   8.503  63.411  1.00  0.00    -0.139 A  
HETATM   30  C   UNL     1      -8.514   9.273  62.582  1.00  0.00    -0.209 A  
HETATM   31  C   UNL     1      -9.413  10.154  63.199  1.00  0.00    -0.255 A  
HETATM   32  N   UNL     1     -10.330  11.010  62.644  1.00  0.00    -0.733 NA 
HETATM   33  H   UNL     1     -10.483  11.120  61.641  1.00  0.00     0.000 HD 
ENDBRANCH  19  20
ENDBRANCH  18  19
ENDBRANCH  15  18
ENDBRANCH  14  15
ENDBRANCH  12  14
ENDBRANCH  11  12
ENDBRANCH  10  11
ENDBRANCH   9  10
ENDBRANCH   8   9
ENDBRANCH   2   3
TORSDOF 10
ENDMDL
MODEL       70
REMARK 921   NORMALIZED FREE ENERGY PREDICTED BY IDOCK:   -5.97 KCAL/MOL
REMARK 922        TOTAL FREE ENERGY PREDICTED BY IDOCK:  -11.30 KCAL/MOL
REMARK 923 INTER-LIGAND FREE ENERGY PREDICTED BY IDOCK:   -8.94 KCAL/MOL
REMARK 924 INTRA-LIGAND FREE ENERGY PREDICTED BY IDOCK:   -2.36 KCAL/MOL
REMARK 927      BINDING AFFINITY PREDICTED BY RF-SCORE:    0.00 PKD
ROOT
HETATM    1  C   UNL     1      -7.314  10.015  68.390  1.00  0.00    -0.077 C  
HETATM    2  O   UNL     1      -8.739  10.054  68.405  1.00  0.00    -0.114 OA 
ENDROOT
BRANCH   2   3
HETATM    3  C   UNL     1      -9.359   9.224  69.304  1.00  0.00    -0.160 A  
HETATM    4  C   UNL     1      -9.120   9.334  70.684  1.00  0.00    -0.309 A  
HETATM    5  C   UNL     1      -9.792   8.520  71.596  1.00  0.00    -0.317 A  
HETATM    6  C   UNL     1     -10.691   7.565  71.141  1.00  0.00    -0.242 A  
HETATM    7  C   UNL     1     -10.898   7.411  69.771  1.00  0.00    -0.246 A  
HETATM    8  C   UNL     1     -10.234   8.222  68.839  1.00  0.00    -0.210 A  
BRANCH   8   9
HETATM    9  O   UNL     1     -10.581   7.909  67.546  1.00  0.00    -0.261 OA 
BRANCH   9  10
HETATM   10  C   UNL     1      -9.569   7.348  66.720  1.00  0.00    -0.192 C  
BRANCH  10  11
HETATM   11  C   UNL     1      -9.168   8.345  65.619  1.00  0.00    -0.052 C  
BRANCH  11  12
HETATM   12  N   UNL     1     -10.003   9.560  65.583  1.00  0.00    -0.368 NA 
HETATM   13  H   UNL     1     -10.231   9.879  66.525  1.00  0.00     0.000 HD 
BRANCH  12  14
HETATM   14  C   UNL     1      -9.386  10.643  64.787  1.00  0.00    -0.233 C  
BRANCH  14  15
HETATM   15  C   UNL     1     -10.423  11.674  64.293  1.00  0.00    -0.331 C  
HETATM   16  O   UNL     1     -11.006  11.213  63.070  1.00  0.00    -0.820 OA 
HETATM   17  H   UNL     1     -11.645  11.848  62.766  1.00  0.00     0.000 HD 
BRANCH  15  18
HETATM   18  C   UNL     1     -11.502  11.896  65.360  1.00  0.00    -0.251 C  
BRANCH  18  19
HETATM   19  O   UNL     1     -10.916  12.096  66.642  1.00  0.00    -0.256 OA 
BRANCH  19  20
HETATM   20  C   UNL     1     -10.968  13.380  67.130  1.00  0.00    -0.280 A  
HETATM   21  C   UNL     1     -10.535  14.519  66.427  1.00  0.00    -0.295 A  
HETATM   22  C   UNL     1     -10.645  15.795  66.972  1.00  0.00    -0.316 A  
HETATM   23  C   UNL     1     -11.193  15.991  68.238  1.00  0.00    -0.350 A  
HETATM   24  C   UNL     1     -11.615  14.854  68.939  1.00  0.00    -0.315 A  
HETATM   25  C   UNL     1     -11.513  13.560  68.425  1.00  0.00    -0.346 A  
HETATM   26  C   UNL     1     -12.021  12.666  69.426  1.00  0.00    -0.318 A  
HETATM   27  C   UNL     1     -12.163  11.264  69.510  1.00  0.00    -0.325 A  
HETATM   28  C   UNL     1     -12.720  10.691  70.658  1.00  0.00    -0.445 A  
HETATM   29  C   UNL     1     -13.134  11.494  71.718  1.00  0.00    -0.503 A  
HETATM   30  C   UNL     1     -13.001  12.885  71.664  1.00  0.00    -0.410 A  
HETATM   31  C   UNL     1     -12.437  13.438  70.506  1.00  0.00    -0.279 A  
HETATM   32  N   UNL     1     -12.181  14.748  70.189  1.00  0.00    -0.321 NA 
HETATM   33  H   UNL     1     -12.384  15.540  70.799  1.00  0.00     0.000 HD 
ENDBRANCH  19  20
ENDBRANCH  18  19
ENDBRANCH  15  18
ENDBRANCH  14  15
ENDBRANCH  12  14
ENDBRANCH  11  12
ENDBRANCH  10  11
ENDBRANCH   9  10
ENDBRANCH   8   9
ENDBRANCH   2   3
TORSDOF 10
ENDMDL
MODEL       71
REMARK 921   NORMALIZED FREE ENERGY PREDICTED BY IDOCK:   -5.96 KCAL/MOL
REMARK 922        TOTAL FREE ENERGY PREDICTED BY IDOCK:  -11.30 KCAL/MOL
REMARK 923 INTER-LIGAND FREE ENERGY PREDICTED BY IDOCK:  -10.16 KCAL/MOL
REMARK 924 INTRA-LIGAND FREE ENERGY PREDICTED BY IDOCK:   -1.13 KCAL/MOL
REMARK 927      BINDING AFFINITY PREDICTED BY RF-SCORE:    0.00 PKD
ROOT
HETATM    1  C   UNL     1     -12.258  15.038  64.567  1.00  0.00    -0.331 C  
HETATM    2  O   UNL     1     -12.789  13.753  64.884  1.00  0.00    -0.690 OA 
ENDROOT
BRANCH   2   3
HETATM    3  C   UNL     1     -11.914  12.699  64.801  1.00  0.00    -0.402 A  
HETATM    4  C   UNL     1     -11.372  12.296  63.569  1.00  0.00    -0.549 A  
HETATM    5  C   UNL     1     -10.444  11.257  63.499  1.00  0.00    -0.457 A  
HETATM    6  C   UNL     1     -10.065  10.587  64.654  1.00  0.00    -0.408 A  
HETATM    7  C   UNL     1     -10.634  10.944  65.875  1.00  0.00    -0.244 A  
HETATM    8  C   UNL     1     -11.567  11.988  65.966  1.00  0.00    -0.305 A  
BRANCH   8   9
HETATM    9  O   UNL     1     -12.001  12.178  67.256  1.00  0.00    -0.573 OA 
BRANCH   9  10
HETATM   10  C   UNL     1     -11.609  11.212  68.224  1.00  0.00    -0.289 C  
BRANCH  10  11
HETATM   11  C   UNL     1     -11.967  11.701  69.637  1.00  0.00    -0.324 C  
BRANCH  11  12
HETATM   12  N   UNL     1     -11.813  10.670  70.680  1.00  0.00    -0.339 NA 
HETATM   13  H   UNL     1     -11.032  10.886  71.300  1.00  0.00     0.000 HD 
BRANCH  12  14
HETATM   14  C   UNL     1     -13.060  10.457  71.448  1.00  0.00    -0.413 C  
BRANCH  14  15
HETATM   15  C   UNL     1     -12.943   9.283  72.444  1.00  0.00    -0.377 C  
HETATM   16  O   UNL     1     -14.171   8.548  72.458  1.00  0.00    -0.615 OA 
HETATM   17  H   UNL     1     -14.099   7.825  73.071  1.00  0.00     0.000 HD 
BRANCH  15  18
HETATM   18  C   UNL     1     -11.769   8.374  72.060  1.00  0.00    -0.352 C  
BRANCH  18  19
HETATM   19  O   UNL     1     -12.234   7.168  71.462  1.00  0.00    -0.319 OA 
BRANCH  19  20
HETATM   20  C   UNL     1     -11.464   6.052  71.690  1.00  0.00    -0.230 A  
HETATM   21  C   UNL     1     -11.333   5.415  72.937  1.00  0.00    -0.365 A  
HETATM   22  C   UNL     1     -10.558   4.269  73.089  1.00  0.00    -0.270 A  
HETATM   23  C   UNL     1      -9.883   3.709  72.007  1.00  0.00    -0.244 A  
HETATM   24  C   UNL     1     -10.008   4.351  70.769  1.00  0.00    -0.177 A  
HETATM   25  C   UNL     1     -10.772   5.505  70.582  1.00  0.00    -0.303 A  
HETATM   26  C   UNL     1     -10.644   5.878  69.202  1.00  0.00    -0.369 A  
HETATM   27  C   UNL     1     -11.149   6.940  68.421  1.00  0.00    -0.142 A  
HETATM   28  C   UNL     1     -10.831   7.013  67.061  1.00  0.00    -0.413 A  
HETATM   29  C   UNL     1     -10.020   6.045  66.474  1.00  0.00    -0.189 A  
HETATM   30  C   UNL     1      -9.501   4.985  67.224  1.00  0.00    -0.149 A  
HETATM   31  C   UNL     1      -9.829   4.933  68.586  1.00  0.00    -0.152 A  
HETATM   32  N   UNL     1      -9.461   4.028  69.548  1.00  0.00    -0.175 NA 
HETATM   33  H   UNL     1      -8.859   3.221  69.381  1.00  0.00     0.000 HD 
ENDBRANCH  19  20
ENDBRANCH  18  19
ENDBRANCH  15  18
ENDBRANCH  14  15
ENDBRANCH  12  14
ENDBRANCH  11  12
ENDBRANCH  10  11
ENDBRANCH   9  10
ENDBRANCH   8   9
ENDBRANCH   2   3
TORSDOF 10
ENDMDL
MODEL       72
REMARK 921   NORMALIZED FREE ENERGY PREDICTED BY IDOCK:   -5.96 KCAL/MOL
REMARK 922        TOTAL FREE ENERGY PREDICTED BY IDOCK:  -11.30 KCAL/MOL
REMARK 923 INTER-LIGAND FREE ENERGY PREDICTED BY IDOCK:   -9.99 KCAL/MOL
REMARK 924 INTRA-LIGAND FREE ENERGY PREDICTED BY IDOCK:   -1.31 KCAL/MOL
REMARK 927      BINDING AFFINITY PREDICTED BY RF-SCORE:    0.00 PKD
ROOT
HETATM    1  C   UNL     1     -11.224  16.085  70.189  1.00  0.00    -0.373 C  
HETATM    2  O   UNL     1     -10.124  16.209  69.290  1.00  0.00    -0.232 OA 
ENDROOT
BRANCH   2   3
HETATM    3  C   UNL     1     -10.215  17.210  68.356  1.00  0.00    -0.340 A  
HETATM    4  C   UNL     1     -10.029  18.557  68.710  1.00  0.00    -0.417 A  
HETATM    5  C   UNL     1     -10.073  19.564  67.746  1.00  0.00    -0.532 A  
HETATM    6  C   UNL     1     -10.330  19.244  66.420  1.00  0.00    -0.558 A  
HETATM    7  C   UNL     1     -10.567  17.918  66.065  1.00  0.00    -0.235 A  
HETATM    8  C   UNL     1     -10.525  16.890  67.019  1.00  0.00    -0.281 A  
BRANCH   8   9
HETATM    9  O   UNL     1     -10.783  15.660  66.462  1.00  0.00    -0.307 OA 
BRANCH   9  10
HETATM   10  C   UNL     1     -10.664  15.548  65.050  1.00  0.00    -0.441 C  
BRANCH  10  11
HETATM   11  C   UNL     1     -10.825  14.081  64.618  1.00  0.00    -0.403 C  
BRANCH  11  12
HETATM   12  N   UNL     1      -9.874  13.161  65.268  1.00  0.00    -0.502 NA 
HETATM   13  H   UNL     1      -9.263  13.660  65.915  1.00  0.00     0.000 HD 
BRANCH  12  14
HETATM   14  C   UNL     1     -10.554  12.032  65.940  1.00  0.00    -0.265 C  
BRANCH  14  15
HETATM   15  C   UNL     1     -10.250  11.978  67.452  1.00  0.00    -0.200 C  
HETATM   16  O   UNL     1     -10.187  13.309  67.973  1.00  0.00    -0.227 OA 
HETATM   17  H   UNL     1     -10.000  13.276  68.904  1.00  0.00     0.000 HD 
BRANCH  15  18
HETATM   18  C   UNL     1     -11.322  11.158  68.181  1.00  0.00    -0.309 C  
BRANCH  18  19
HETATM   19  O   UNL     1     -10.745  10.373  69.219  1.00  0.00    -0.205 OA 
BRANCH  19  20
HETATM   20  C   UNL     1     -11.580  10.055  70.264  1.00  0.00    -0.280 A  
HETATM   21  C   UNL     1     -12.506  10.942  70.843  1.00  0.00    -0.507 A  
HETATM   22  C   UNL     1     -13.343  10.543  71.881  1.00  0.00    -0.461 A  
HETATM   23  C   UNL     1     -13.293   9.244  72.385  1.00  0.00    -0.521 A  
HETATM   24  C   UNL     1     -12.364   8.367  71.812  1.00  0.00    -0.331 A  
HETATM   25  C   UNL     1     -11.506   8.736  70.775  1.00  0.00    -0.309 A  
HETATM   26  C   UNL     1     -10.694   7.593  70.470  1.00  0.00    -0.241 A  
HETATM   27  C   UNL     1      -9.650   7.346  69.552  1.00  0.00    -0.155 A  
HETATM   28  C   UNL     1      -9.055   6.081  69.502  1.00  0.00    -0.141 A  
HETATM   29  C   UNL     1      -9.487   5.065  70.352  1.00  0.00    -0.233 A  
HETATM   30  C   UNL     1     -10.515   5.282  71.274  1.00  0.00    -0.274 A  
HETATM   31  C   UNL     1     -11.094   6.558  71.310  1.00  0.00    -0.273 A  
HETATM   32  N   UNL     1     -12.097   7.050  72.106  1.00  0.00    -0.434 NA 
HETATM   33  H   UNL     1     -12.582   6.509  72.823  1.00  0.00     0.000 HD 
ENDBRANCH  19  20
ENDBRANCH  18  19
ENDBRANCH  15  18
ENDBRANCH  14  15
ENDBRANCH  12  14
ENDBRANCH  11  12
ENDBRANCH  10  11
ENDBRANCH   9  10
ENDBRANCH   8   9
ENDBRANCH   2   3
TORSDOF 10
ENDMDL
MODEL       73
REMARK 921   NORMALIZED FREE ENERGY PREDICTED BY IDOCK:   -5.95 KCAL/MOL
REMARK 922        TOTAL FREE ENERGY PREDICTED BY IDOCK:  -11.28 KCAL/MOL
REMARK 923 INTER-LIGAND FREE ENERGY PREDICTED BY IDOCK:  -10.09 KCAL/MOL
REMARK 924 INTRA-LIGAND FREE ENERGY PREDICTED BY IDOCK:   -1.19 KCAL/MOL
REMARK 927      BINDING AFFINITY PREDICTED BY RF-SCORE:    0.00 PKD
ROOT
HETATM    1  C   UNL     1     -10.973  16.150  65.153  1.00  0.00    -0.316 C  
HETATM    2  O   UNL     1     -10.772  16.659  66.470  1.00  0.00    -0.250 OA 
ENDROOT
BRANCH   2   3
HETATM    3  C   UNL     1      -9.944  17.747  66.579  1.00  0.00    -0.346 A  
HETATM    4  C   UNL     1     -10.455  19.055  66.596  1.00  0.00    -0.517 A  
HETATM    5  C   UNL     1      -9.612  20.154  66.758  1.00  0.00    -0.559 A  
HETATM    6  C   UNL     1      -8.242  19.964  66.878  1.00  0.00    -0.358 A  
HETATM    7  C   UNL     1      -7.717  18.675  66.811  1.00  0.00    -0.255 A  
HETATM    8  C   UNL     1      -8.550  17.557  66.651  1.00  0.00    -0.258 A  
BRANCH   8   9
HETATM    9  O   UNL     1      -7.834  16.384  66.612  1.00  0.00    -0.229 OA 
BRANCH   9  10
HETATM   10  C   UNL     1      -7.884  15.553  67.765  1.00  0.00    -0.143 C  
BRANCH  10  11
HETATM   11  C   UNL     1      -7.406  14.133  67.419  1.00  0.00    -0.120 C  
BRANCH  11  12
HETATM   12  N   UNL     1      -8.459  13.274  66.846  1.00  0.00    -0.405 NA 
HETATM   13  H   UNL     1      -8.228  12.286  66.954  1.00  0.00     0.000 HD 
BRANCH  12  14
HETATM   14  C   UNL     1      -9.795  13.574  67.406  1.00  0.00    -0.227 C  
BRANCH  14  15
HETATM   15  C   UNL     1     -10.922  12.808  66.680  1.00  0.00    -0.270 C  
HETATM   16  O   UNL     1     -10.400  12.210  65.489  1.00  0.00    -0.248 OA 
HETATM   17  H   UNL     1     -11.093  11.739  65.042  1.00  0.00     0.000 HD 
BRANCH  15  18
HETATM   18  C   UNL     1     -11.522  11.742  67.606  1.00  0.00    -0.300 C  
BRANCH  18  19
HETATM   19  O   UNL     1     -10.788  11.653  68.822  1.00  0.00    -0.202 OA 
BRANCH  19  20
HETATM   20  C   UNL     1     -11.377  10.920  69.825  1.00  0.00    -0.301 A  
HETATM   21  C   UNL     1     -11.285   9.522  69.949  1.00  0.00    -0.209 A  
HETATM   22  C   UNL     1     -11.884   8.847  71.008  1.00  0.00    -0.324 A  
HETATM   23  C   UNL     1     -12.597   9.534  71.988  1.00  0.00    -0.456 A  
HETATM   24  C   UNL     1     -12.694  10.925  71.856  1.00  0.00    -0.234 A  
HETATM   25  C   UNL     1     -12.111  11.633  70.803  1.00  0.00    -0.383 A  
HETATM   26  C   UNL     1     -12.439  13.018  70.993  1.00  0.00    -0.385 A  
HETATM   27  C   UNL     1     -12.164  14.199  70.270  1.00  0.00    -0.416 A  
HETATM   28  C   UNL     1     -12.638  15.427  70.744  1.00  0.00    -0.497 A  
HETATM   29  C   UNL     1     -13.378  15.490  71.922  1.00  0.00    -0.569 A  
HETATM   30  C   UNL     1     -13.669  14.336  72.656  1.00  0.00    -0.555 A  
HETATM   31  C   UNL     1     -13.188  13.116  72.161  1.00  0.00    -0.462 A  
HETATM   32  N   UNL     1     -13.327  11.846  72.659  1.00  0.00    -0.297 NA 
HETATM   33  H   UNL     1     -13.835  11.613  73.513  1.00  0.00     0.000 HD 
ENDBRANCH  19  20
ENDBRANCH  18  19
ENDBRANCH  15  18
ENDBRANCH  14  15
ENDBRANCH  12  14
ENDBRANCH  11  12
ENDBRANCH  10  11
ENDBRANCH   9  10
ENDBRANCH   8   9
ENDBRANCH   2   3
TORSDOF 10
ENDMDL
MODEL       74
REMARK 921   NORMALIZED FREE ENERGY PREDICTED BY IDOCK:   -5.94 KCAL/MOL
REMARK 922        TOTAL FREE ENERGY PREDICTED BY IDOCK:  -11.27 KCAL/MOL
REMARK 923 INTER-LIGAND FREE ENERGY PREDICTED BY IDOCK:   -9.87 KCAL/MOL
REMARK 924 INTRA-LIGAND FREE ENERGY PREDICTED BY IDOCK:   -1.40 KCAL/MOL
REMARK 927      BINDING AFFINITY PREDICTED BY RF-SCORE:    0.00 PKD
ROOT
HETATM    1  C   UNL     1     -10.285  19.611  68.050  1.00  0.00    -0.457 C  
HETATM    2  O   UNL     1      -9.240  18.718  68.426  1.00  0.00    -0.316 OA 
ENDROOT
BRANCH   2   3
HETATM    3  C   UNL     1      -8.053  18.856  67.751  1.00  0.00    -0.259 A  
HETATM    4  C   UNL     1      -6.984  19.586  68.297  1.00  0.00    -0.328 A  
HETATM    5  C   UNL     1      -5.764  19.679  67.629  1.00  0.00    -0.198 A  
HETATM    6  C   UNL     1      -5.602  19.068  66.393  1.00  0.00    -0.174 A  
HETATM    7  C   UNL     1      -6.671  18.384  65.817  1.00  0.00    -0.315 A  
HETATM    8  C   UNL     1      -7.905  18.277  66.475  1.00  0.00    -0.252 A  
BRANCH   8   9
HETATM    9  O   UNL     1      -8.820  17.563  65.739  1.00  0.00    -0.514 OA 
BRANCH   9  10
HETATM   10  C   UNL     1      -9.027  16.204  66.101  1.00  0.00    -0.337 C  
BRANCH  10  11
HETATM   11  C   UNL     1     -10.444  16.016  66.671  1.00  0.00    -0.304 C  
BRANCH  11  12
HETATM   12  N   UNL     1     -10.479  15.843  68.135  1.00  0.00    -0.262 NA 
HETATM   13  H   UNL     1      -9.725  16.362  68.585  1.00  0.00     0.000 HD 
BRANCH  12  14
HETATM   14  C   UNL     1     -11.793  16.203  68.711  1.00  0.00    -0.126 C  
BRANCH  14  15
HETATM   15  C   UNL     1     -12.041  15.526  70.076  1.00  0.00    -0.368 C  
HETATM   16  O   UNL     1     -13.432  15.611  70.402  1.00  0.00    -0.804 OA 
HETATM   17  H   UNL     1     -13.585  15.194  71.243  1.00  0.00     0.000 HD 
BRANCH  15  18
HETATM   18  C   UNL     1     -11.579  14.064  70.036  1.00  0.00    -0.232 C  
BRANCH  18  19
HETATM   19  O   UNL     1     -12.360  13.309  69.116  1.00  0.00    -0.197 OA 
BRANCH  19  20
HETATM   20  C   UNL     1     -11.681  12.349  68.402  1.00  0.00    -0.336 A  
HETATM   21  C   UNL     1     -11.072  12.566  67.153  1.00  0.00    -0.321 A  
HETATM   22  C   UNL     1     -10.375  11.554  66.500  1.00  0.00    -0.269 A  
HETATM   23  C   UNL     1     -10.254  10.285  67.062  1.00  0.00    -0.282 A  
HETATM   24  C   UNL     1     -10.869  10.071  68.302  1.00  0.00    -0.241 A  
HETATM   25  C   UNL     1     -11.581  11.061  68.982  1.00  0.00    -0.392 A  
HETATM   26  C   UNL     1     -12.078  10.469  70.191  1.00  0.00    -0.380 A  
HETATM   27  C   UNL     1     -12.867  10.941  71.263  1.00  0.00    -0.536 A  
HETATM   28  C   UNL     1     -13.177  10.085  72.325  1.00  0.00    -0.401 A  
HETATM   29  C   UNL     1     -12.712   8.772  72.331  1.00  0.00    -0.433 A  
HETATM   30  C   UNL     1     -11.933   8.277  71.281  1.00  0.00    -0.317 A  
HETATM   31  C   UNL     1     -11.637   9.150  70.225  1.00  0.00    -0.086 A  
HETATM   32  N   UNL     1     -10.915   8.936  69.079  1.00  0.00    -0.432 NA 
HETATM   33  H   UNL     1     -10.470   8.051  68.835  1.00  0.00     0.000 HD 
ENDBRANCH  19  20
ENDBRANCH  18  19
ENDBRANCH  15  18
ENDBRANCH  14  15
ENDBRANCH  12  14
ENDBRANCH  11  12
ENDBRANCH  10  11
ENDBRANCH   9  10
ENDBRANCH   8   9
ENDBRANCH   2   3
TORSDOF 10
ENDMDL
MODEL       75
REMARK 921   NORMALIZED FREE ENERGY PREDICTED BY IDOCK:   -5.93 KCAL/MOL
REMARK 922        TOTAL FREE ENERGY PREDICTED BY IDOCK:  -11.24 KCAL/MOL
REMARK 923 INTER-LIGAND FREE ENERGY PREDICTED BY IDOCK:   -9.84 KCAL/MOL
REMARK 924 INTRA-LIGAND FREE ENERGY PREDICTED BY IDOCK:   -1.40 KCAL/MOL
REMARK 927      BINDING AFFINITY PREDICTED BY RF-SCORE:    0.00 PKD
ROOT
HETATM    1  C   UNL     1     -10.911   3.748  73.384  1.00  0.00    -0.222 C  
HETATM    2  O   UNL     1     -10.444   5.034  72.983  1.00  0.00    -0.177 OA 
ENDROOT
BRANCH   2   3
HETATM    3  C   UNL     1     -10.490   5.304  71.638  1.00  0.00    -0.214 A  
HETATM    4  C   UNL     1      -9.698   4.590  70.724  1.00  0.00    -0.267 A  
HETATM    5  C   UNL     1      -9.788   4.834  69.354  1.00  0.00    -0.282 A  
HETATM    6  C   UNL     1     -10.649   5.814  68.879  1.00  0.00    -0.337 A  
HETATM    7  C   UNL     1     -11.402   6.564  69.780  1.00  0.00    -0.456 A  
HETATM    8  C   UNL     1     -11.328   6.331  71.162  1.00  0.00    -0.303 A  
BRANCH   8   9
HETATM    9  O   UNL     1     -12.149   7.175  71.871  1.00  0.00    -0.300 OA 
BRANCH   9  10
HETATM   10  C   UNL     1     -13.533   7.160  71.546  1.00  0.00    -0.332 C  
BRANCH  10  11
HETATM   11  C   UNL     1     -14.152   8.547  71.792  1.00  0.00    -0.444 C  
BRANCH  11  12
HETATM   12  N   UNL     1     -13.792   9.549  70.772  1.00  0.00    -0.482 NA 
HETATM   13  H   UNL     1     -14.624   9.933  70.323  1.00  0.00     0.000 HD 
BRANCH  12  14
HETATM   14  C   UNL     1     -12.935  10.624  71.319  1.00  0.00    -0.414 C  
BRANCH  14  15
HETATM   15  C   UNL     1     -12.197  11.408  70.212  1.00  0.00    -0.349 C  
HETATM   16  O   UNL     1     -11.899  12.726  70.682  1.00  0.00    -0.518 OA 
HETATM   17  H   UNL     1     -11.444  13.208  70.000  1.00  0.00     0.000 HD 
BRANCH  15  18
HETATM   18  C   UNL     1     -10.915  10.671  69.804  1.00  0.00    -0.280 C  
BRANCH  18  19
HETATM   19  O   UNL     1     -10.322  11.278  68.661  1.00  0.00    -0.188 OA 
BRANCH  19  20
HETATM   20  C   UNL     1      -9.835  10.413  67.710  1.00  0.00    -0.168 A  
HETATM   21  C   UNL     1      -9.049   9.280  67.990  1.00  0.00    -0.132 A  
HETATM   22  C   UNL     1      -8.615   8.430  66.977  1.00  0.00    -0.124 A  
HETATM   23  C   UNL     1      -8.945   8.670  65.645  1.00  0.00    -0.231 A  
HETATM   24  C   UNL     1      -9.720   9.803  65.370  1.00  0.00    -0.313 A  
HETATM   25  C   UNL     1     -10.167  10.680  66.359  1.00  0.00    -0.291 A  
HETATM   26  C   UNL     1     -10.905  11.721  65.700  1.00  0.00    -0.342 A  
HETATM   27  C   UNL     1     -11.572  12.883  66.144  1.00  0.00    -0.423 A  
HETATM   28  C   UNL     1     -12.218  13.708  65.217  1.00  0.00    -0.466 A  
HETATM   29  C   UNL     1     -12.207  13.389  63.861  1.00  0.00    -0.478 A  
HETATM   30  C   UNL     1     -11.549  12.247  63.393  1.00  0.00    -0.530 A  
HETATM   31  C   UNL     1     -10.905  11.437  64.338  1.00  0.00    -0.330 A  
HETATM   32  N   UNL     1     -10.187  10.282  64.166  1.00  0.00    -0.449 NA 
HETATM   33  H   UNL     1     -10.019   9.835  63.264  1.00  0.00     0.000 HD 
ENDBRANCH  19  20
ENDBRANCH  18  19
ENDBRANCH  15  18
ENDBRANCH  14  15
ENDBRANCH  12  14
ENDBRANCH  11  12
ENDBRANCH  10  11
ENDBRANCH   9  10
ENDBRANCH   8   9
ENDBRANCH   2   3
TORSDOF 10
ENDMDL
MODEL       76
REMARK 921   NORMALIZED FREE ENERGY PREDICTED BY IDOCK:   -5.93 KCAL/MOL
REMARK 922        TOTAL FREE ENERGY PREDICTED BY IDOCK:  -11.24 KCAL/MOL
REMARK 923 INTER-LIGAND FREE ENERGY PREDICTED BY IDOCK:   -9.91 KCAL/MOL
REMARK 924 INTRA-LIGAND FREE ENERGY PREDICTED BY IDOCK:   -1.34 KCAL/MOL
REMARK 927      BINDING AFFINITY PREDICTED BY RF-SCORE:    0.00 PKD
ROOT
HETATM    1  C   UNL     1      -7.201  16.359  67.983  1.00  0.00    -0.136 C  
HETATM    2  O   UNL     1      -8.621  16.290  68.086  1.00  0.00    -0.177 OA 
ENDROOT
BRANCH   2   3
HETATM    3  C   UNL     1      -9.313  17.403  67.679  1.00  0.00    -0.245 A  
HETATM    4  C   UNL     1      -9.517  18.491  68.543  1.00  0.00    -0.375 A  
HETATM    5  C   UNL     1     -10.177  19.640  68.107  1.00  0.00    -0.580 A  
HETATM    6  C   UNL     1     -10.668  19.707  66.810  1.00  0.00    -0.562 A  
HETATM    7  C   UNL     1     -10.517  18.614  65.959  1.00  0.00    -0.456 A  
HETATM    8  C   UNL     1      -9.854  17.451  66.379  1.00  0.00    -0.302 A  
BRANCH   8   9
HETATM    9  O   UNL     1      -9.813  16.497  65.390  1.00  0.00    -0.530 OA 
BRANCH   9  10
HETATM   10  C   UNL     1     -10.855  15.529  65.377  1.00  0.00    -0.390 C  
BRANCH  10  11
HETATM   11  C   UNL     1     -10.262  14.111  65.320  1.00  0.00    -0.375 C  
BRANCH  11  12
HETATM   12  N   UNL     1      -9.187  13.875  66.301  1.00  0.00    -0.489 NA 
HETATM   13  H   UNL     1      -9.273  14.503  67.101  1.00  0.00     0.000 HD 
BRANCH  12  14
HETATM   14  C   UNL     1      -9.125  12.462  66.736  1.00  0.00    -0.212 C  
BRANCH  14  15
HETATM   15  C   UNL     1      -9.302  12.309  68.262  1.00  0.00    -0.199 C  
HETATM   16  O   UNL     1      -9.576  13.589  68.840  1.00  0.00    -0.408 OA 
HETATM   17  H   UNL     1      -9.685  13.494  69.779  1.00  0.00     0.000 HD 
BRANCH  15  18
HETATM   18  C   UNL     1     -10.432  11.319  68.570  1.00  0.00    -0.197 C  
BRANCH  18  19
HETATM   19  O   UNL     1     -10.091  10.483  69.670  1.00  0.00    -0.214 OA 
BRANCH  19  20
HETATM   20  C   UNL     1     -11.138  10.086  70.467  1.00  0.00    -0.331 A  
HETATM   21  C   UNL     1     -12.475  10.488  70.287  1.00  0.00    -0.345 A  
HETATM   22  C   UNL     1     -13.491  10.022  71.115  1.00  0.00    -0.299 A  
HETATM   23  C   UNL     1     -13.221   9.137  72.157  1.00  0.00    -0.524 A  
HETATM   24  C   UNL     1     -11.888   8.746  72.339  1.00  0.00    -0.286 A  
HETATM   25  C   UNL     1     -10.844   9.198  71.531  1.00  0.00    -0.436 A  
HETATM   26  C   UNL     1      -9.636   8.605  72.030  1.00  0.00    -0.385 A  
HETATM   27  C   UNL     1      -8.276   8.688  71.659  1.00  0.00    -0.199 A  
HETATM   28  C   UNL     1      -7.318   7.956  72.370  1.00  0.00    -0.104 A  
HETATM   29  C   UNL     1      -7.699   7.148  73.439  1.00  0.00    -0.099 A  
HETATM   30  C   UNL     1      -9.038   7.051  73.830  1.00  0.00    -0.229 A  
HETATM   31  C   UNL     1      -9.980   7.795  73.108  1.00  0.00    -0.311 A  
HETATM   32  N   UNL     1     -11.337   7.899  73.273  1.00  0.00    -0.512 NA 
HETATM   33  H   UNL     1     -11.869   7.411  73.994  1.00  0.00     0.000 HD 
ENDBRANCH  19  20
ENDBRANCH  18  19
ENDBRANCH  15  18
ENDBRANCH  14  15
ENDBRANCH  12  14
ENDBRANCH  11  12
ENDBRANCH  10  11
ENDBRANCH   9  10
ENDBRANCH   8   9
ENDBRANCH   2   3
TORSDOF 10
ENDMDL
MODEL       77
REMARK 921   NORMALIZED FREE ENERGY PREDICTED BY IDOCK:   -5.90 KCAL/MOL
REMARK 922        TOTAL FREE ENERGY PREDICTED BY IDOCK:  -11.19 KCAL/MOL
REMARK 923 INTER-LIGAND FREE ENERGY PREDICTED BY IDOCK:  -10.04 KCAL/MOL
REMARK 924 INTRA-LIGAND FREE ENERGY PREDICTED BY IDOCK:   -1.15 KCAL/MOL
REMARK 927      BINDING AFFINITY PREDICTED BY RF-SCORE:    0.00 PKD
ROOT
HETATM    1  C   UNL     1     -10.758   3.773  74.080  1.00  0.00    -0.216 C  
HETATM    2  O   UNL     1     -10.881   5.089  73.546  1.00  0.00    -0.257 OA 
ENDROOT
BRANCH   2   3
HETATM    3  C   UNL     1     -10.743   5.207  72.186  1.00  0.00    -0.187 A  
HETATM    4  C   UNL     1      -9.946   4.311  71.453  1.00  0.00    -0.238 A  
HETATM    5  C   UNL     1      -9.850   4.405  70.065  1.00  0.00    -0.294 A  
HETATM    6  C   UNL     1     -10.527   5.413  69.391  1.00  0.00    -0.331 A  
HETATM    7  C   UNL     1     -11.280   6.339  70.111  1.00  0.00    -0.470 A  
HETATM    8  C   UNL     1     -11.390   6.258  71.507  1.00  0.00    -0.296 A  
BRANCH   8   9
HETATM    9  O   UNL     1     -12.177   7.262  72.020  1.00  0.00    -0.299 OA 
BRANCH   9  10
HETATM   10  C   UNL     1     -13.533   7.307  71.592  1.00  0.00    -0.354 C  
BRANCH  10  11
HETATM   11  C   UNL     1     -14.118   8.710  71.830  1.00  0.00    -0.429 C  
BRANCH  11  12
HETATM   12  N   UNL     1     -13.162   9.661  72.425  1.00  0.00    -0.550 NA 
HETATM   13  H   UNL     1     -12.243   9.234  72.545  1.00  0.00     0.000 HD 
BRANCH  12  14
HETATM   14  C   UNL     1     -13.069  10.920  71.655  1.00  0.00    -0.433 C  
BRANCH  14  15
HETATM   15  C   UNL     1     -11.877  10.922  70.673  1.00  0.00    -0.352 C  
HETATM   16  O   UNL     1     -11.824   9.666  69.989  1.00  0.00    -0.446 OA 
HETATM   17  H   UNL     1     -11.090   9.668  69.384  1.00  0.00     0.000 HD 
BRANCH  15  18
HETATM   18  C   UNL     1     -12.012  12.080  69.676  1.00  0.00    -0.293 C  
BRANCH  18  19
HETATM   19  O   UNL     1     -12.181  11.592  68.349  1.00  0.00    -0.540 OA 
BRANCH  19  20
HETATM   20  C   UNL     1     -11.683  12.393  67.349  1.00  0.00    -0.347 A  
HETATM   21  C   UNL     1     -12.021  13.748  67.170  1.00  0.00    -0.442 A  
HETATM   22  C   UNL     1     -11.455  14.509  66.152  1.00  0.00    -0.357 A  
HETATM   23  C   UNL     1     -10.530  13.955  65.269  1.00  0.00    -0.386 A  
HETATM   24  C   UNL     1     -10.203  12.604  65.445  1.00  0.00    -0.284 A  
HETATM   25  C   UNL     1     -10.756  11.810  66.451  1.00  0.00    -0.306 A  
HETATM   26  C   UNL     1     -10.203  10.494  66.303  1.00  0.00    -0.296 A  
HETATM   27  C   UNL     1     -10.381   9.272  66.988  1.00  0.00    -0.325 A  
HETATM   28  C   UNL     1      -9.665   8.141  66.583  1.00  0.00    -0.318 A  
HETATM   29  C   UNL     1      -8.779   8.213  65.511  1.00  0.00    -0.152 A  
HETATM   30  C   UNL     1      -8.587   9.409  64.812  1.00  0.00    -0.202 A  
HETATM   31  C   UNL     1      -9.318  10.529  65.231  1.00  0.00    -0.213 A  
HETATM   32  N   UNL     1      -9.337  11.807  64.733  1.00  0.00    -0.423 NA 
HETATM   33  H   UNL     1      -8.782  12.124  63.938  1.00  0.00     0.000 HD 
ENDBRANCH  19  20
ENDBRANCH  18  19
ENDBRANCH  15  18
ENDBRANCH  14  15
ENDBRANCH  12  14
ENDBRANCH  11  12
ENDBRANCH  10  11
ENDBRANCH   9  10
ENDBRANCH   8   9
ENDBRANCH   2   3
TORSDOF 10
ENDMDL
MODEL       78
REMARK 921   NORMALIZED FREE ENERGY PREDICTED BY IDOCK:   -5.90 KCAL/MOL
REMARK 922        TOTAL FREE ENERGY PREDICTED BY IDOCK:  -11.19 KCAL/MOL
REMARK 923 INTER-LIGAND FREE ENERGY PREDICTED BY IDOCK:   -9.29 KCAL/MOL
REMARK 924 INTRA-LIGAND FREE ENERGY PREDICTED BY IDOCK:   -1.90 KCAL/MOL
REMARK 927      BINDING AFFINITY PREDICTED BY RF-SCORE:    0.00 PKD
ROOT
HETATM    1  C   UNL     1     -10.505  19.182  65.951  1.00  0.00    -0.424 C  
HETATM    2  O   UNL     1      -9.552  18.122  65.974  1.00  0.00    -0.496 OA 
ENDROOT
BRANCH   2   3
HETATM    3  C   UNL     1      -8.581  18.202  66.940  1.00  0.00    -0.258 A  
HETATM    4  C   UNL     1      -8.122  19.443  67.412  1.00  0.00    -0.313 A  
HETATM    5  C   UNL     1      -7.171  19.516  68.430  1.00  0.00    -0.354 A  
HETATM    6  C   UNL     1      -6.643  18.351  68.971  1.00  0.00    -0.270 A  
HETATM    7  C   UNL     1      -7.052  17.115  68.475  1.00  0.00    -0.213 A  
HETATM    8  C   UNL     1      -8.010  17.021  67.454  1.00  0.00    -0.178 A  
BRANCH   8   9
HETATM    9  O   UNL     1      -8.273  15.715  67.114  1.00  0.00    -0.175 OA 
BRANCH   9  10
HETATM   10  C   UNL     1      -7.403  14.719  67.637  1.00  0.00    -0.186 C  
BRANCH  10  11
HETATM   11  C   UNL     1      -8.013  13.322  67.436  1.00  0.00    -0.170 C  
BRANCH  11  12
HETATM   12  N   UNL     1      -8.410  12.659  68.692  1.00  0.00    -0.345 NA 
HETATM   13  H   UNL     1      -9.195  13.139  69.131  1.00  0.00     0.000 HD 
BRANCH  12  14
HETATM   14  C   UNL     1      -8.704  11.222  68.499  1.00  0.00    -0.156 C  
BRANCH  14  15
HETATM   15  C   UNL     1      -9.550  10.959  67.234  1.00  0.00    -0.164 C  
HETATM   16  O   UNL     1      -8.825  10.100  66.348  1.00  0.00    -0.141 OA 
HETATM   17  H   UNL     1      -9.346   9.939  65.570  1.00  0.00     0.000 HD 
BRANCH  15  18
HETATM   18  C   UNL     1     -10.898  10.335  67.617  1.00  0.00    -0.307 C  
BRANCH  18  19
HETATM   19  O   UNL     1     -11.967  11.240  67.365  1.00  0.00    -0.581 OA 
BRANCH  19  20
HETATM   20  C   UNL     1     -11.689  12.267  66.494  1.00  0.00    -0.352 A  
HETATM   21  C   UNL     1     -11.533  12.113  65.104  1.00  0.00    -0.376 A  
HETATM   22  C   UNL     1     -11.281  13.203  64.276  1.00  0.00    -0.422 A  
HETATM   23  C   UNL     1     -11.175  14.492  64.797  1.00  0.00    -0.395 A  
HETATM   24  C   UNL     1     -11.322  14.639  66.182  1.00  0.00    -0.350 A  
HETATM   25  C   UNL     1     -11.569  13.568  67.041  1.00  0.00    -0.394 A  
HETATM   26  C   UNL     1     -11.637  14.100  68.372  1.00  0.00    -0.353 A  
HETATM   27  C   UNL     1     -11.837  13.530  69.648  1.00  0.00    -0.398 A  
HETATM   28  C   UNL     1     -11.855  14.352  70.780  1.00  0.00    -0.349 A  
HETATM   29  C   UNL     1     -11.676  15.728  70.655  1.00  0.00    -0.412 A  
HETATM   30  C   UNL     1     -11.472  16.318  69.404  1.00  0.00    -0.238 A  
HETATM   31  C   UNL     1     -11.453  15.476  68.284  1.00  0.00    -0.353 A  
HETATM   32  N   UNL     1     -11.266  15.774  66.959  1.00  0.00    -0.163 NA 
HETATM   33  H   UNL     1     -11.105  16.714  66.596  1.00  0.00     0.000 HD 
ENDBRANCH  19  20
ENDBRANCH  18  19
ENDBRANCH  15  18
ENDBRANCH  14  15
ENDBRANCH  12  14
ENDBRANCH  11  12
ENDBRANCH  10  11
ENDBRANCH   9  10
ENDBRANCH   8   9
ENDBRANCH   2   3
TORSDOF 10
ENDMDL
MODEL       79
REMARK 921   NORMALIZED FREE ENERGY PREDICTED BY IDOCK:   -5.89 KCAL/MOL
REMARK 922        TOTAL FREE ENERGY PREDICTED BY IDOCK:  -11.18 KCAL/MOL
REMARK 923 INTER-LIGAND FREE ENERGY PREDICTED BY IDOCK:   -9.76 KCAL/MOL
REMARK 924 INTRA-LIGAND FREE ENERGY PREDICTED BY IDOCK:   -1.42 KCAL/MOL
REMARK 927      BINDING AFFINITY PREDICTED BY RF-SCORE:    0.00 PKD
ROOT
HETATM    1  C   UNL     1     -11.512  14.720  68.219  1.00  0.00    -0.317 C  
HETATM    2  O   UNL     1     -11.379  13.797  69.298  1.00  0.00    -0.258 OA 
ENDROOT
BRANCH   2   3
HETATM    3  C   UNL     1     -12.170  14.029  70.394  1.00  0.00    -0.363 A  
HETATM    4  C   UNL     1     -12.458  15.335  70.824  1.00  0.00    -0.457 A  
HETATM    5  C   UNL     1     -13.304  15.564  71.908  1.00  0.00    -0.569 A  
HETATM    6  C   UNL     1     -13.853  14.491  72.598  1.00  0.00    -0.483 A  
HETATM    7  C   UNL     1     -13.534  13.190  72.213  1.00  0.00    -0.665 A  
HETATM    8  C   UNL     1     -12.687  12.940  71.123  1.00  0.00    -0.276 A  
BRANCH   8   9
HETATM    9  O   UNL     1     -12.505  11.594  70.912  1.00  0.00    -0.376 OA 
BRANCH   9  10
HETATM   10  C   UNL     1     -12.912  10.712  71.951  1.00  0.00    -0.437 C  
BRANCH  10  11
HETATM   11  C   UNL     1     -13.729   9.547  71.368  1.00  0.00    -0.226 C  
BRANCH  11  12
HETATM   12  N   UNL     1     -12.966   8.293  71.233  1.00  0.00    -0.486 NA 
HETATM   13  H   UNL     1     -12.778   8.079  70.253  1.00  0.00     0.000 HD 
BRANCH  12  14
HETATM   14  C   UNL     1     -11.716   8.308  72.024  1.00  0.00    -0.346 C  
BRANCH  14  15
HETATM   15  C   UNL     1     -11.241   6.888  72.401  1.00  0.00    -0.266 C  
HETATM   16  O   UNL     1     -12.376   6.079  72.726  1.00  0.00    -0.524 OA 
HETATM   17  H   UNL     1     -12.084   5.205  72.958  1.00  0.00     0.000 HD 
BRANCH  15  18
HETATM   18  C   UNL     1     -10.444   6.269  71.247  1.00  0.00    -0.218 C  
BRANCH  18  19
HETATM   19  O   UNL     1     -10.778   6.888  70.009  1.00  0.00    -0.223 OA 
BRANCH  19  20
HETATM   20  C   UNL     1     -10.193   6.343  68.890  1.00  0.00    -0.184 A  
HETATM   21  C   UNL     1      -9.795   4.999  68.773  1.00  0.00    -0.236 A  
HETATM   22  C   UNL     1      -9.235   4.507  67.598  1.00  0.00    -0.160 A  
HETATM   23  C   UNL     1      -9.049   5.331  66.490  1.00  0.00    -0.129 A  
HETATM   24  C   UNL     1      -9.438   6.671  66.614  1.00  0.00    -0.164 A  
HETATM   25  C   UNL     1      -9.997   7.199  67.779  1.00  0.00    -0.192 A  
HETATM   26  C   UNL     1     -10.244   8.592  67.536  1.00  0.00    -0.307 A  
HETATM   27  C   UNL     1     -10.766   9.646  68.316  1.00  0.00    -0.262 A  
HETATM   28  C   UNL     1     -10.884  10.926  67.762  1.00  0.00    -0.309 A  
HETATM   29  C   UNL     1     -10.491  11.163  66.447  1.00  0.00    -0.311 A  
HETATM   30  C   UNL     1      -9.966  10.138  65.653  1.00  0.00    -0.348 A  
HETATM   31  C   UNL     1      -9.852   8.866  66.230  1.00  0.00    -0.285 A  
HETATM   32  N   UNL     1      -9.371   7.697  65.698  1.00  0.00    -0.385 NA 
HETATM   33  H   UNL     1      -9.011   7.600  64.749  1.00  0.00     0.000 HD 
ENDBRANCH  19  20
ENDBRANCH  18  19
ENDBRANCH  15  18
ENDBRANCH  14  15
ENDBRANCH  12  14
ENDBRANCH  11  12
ENDBRANCH  10  11
ENDBRANCH   9  10
ENDBRANCH   8   9
ENDBRANCH   2   3
TORSDOF 10
ENDMDL
MODEL       80
REMARK 921   NORMALIZED FREE ENERGY PREDICTED BY IDOCK:   -5.88 KCAL/MOL
REMARK 922        TOTAL FREE ENERGY PREDICTED BY IDOCK:  -11.17 KCAL/MOL
REMARK 923 INTER-LIGAND FREE ENERGY PREDICTED BY IDOCK:   -9.22 KCAL/MOL
REMARK 924 INTRA-LIGAND FREE ENERGY PREDICTED BY IDOCK:   -1.95 KCAL/MOL
REMARK 927      BINDING AFFINITY PREDICTED BY RF-SCORE:    0.00 PKD
ROOT
HETATM    1  C   UNL     1     -13.210  10.643  71.789  1.00  0.00    -0.421 C  
HETATM    2  O   UNL     1     -12.289  10.350  70.741  1.00  0.00    -0.311 OA 
ENDROOT
BRANCH   2   3
HETATM    3  C   UNL     1     -11.208   9.578  71.082  1.00  0.00    -0.376 A  
HETATM    4  C   UNL     1     -11.258   8.693  72.172  1.00  0.00    -0.438 A  
HETATM    5  C   UNL     1     -10.173   7.875  72.483  1.00  0.00    -0.342 A  
HETATM    6  C   UNL     1      -9.011   7.947  71.726  1.00  0.00    -0.172 A  
HETATM    7  C   UNL     1      -8.930   8.857  70.674  1.00  0.00    -0.237 A  
HETATM    8  C   UNL     1     -10.012   9.687  70.345  1.00  0.00    -0.271 A  
BRANCH   8   9
HETATM    9  O   UNL     1      -9.727  10.506  69.278  1.00  0.00    -0.214 OA 
BRANCH   9  10
HETATM   10  C   UNL     1      -9.853   9.946  67.977  1.00  0.00    -0.147 C  
BRANCH  10  11
HETATM   11  C   UNL     1     -10.792  10.808  67.116  1.00  0.00    -0.277 C  
BRANCH  11  12
HETATM   12  N   UNL     1     -11.904  11.414  67.872  1.00  0.00    -0.632 NA 
HETATM   13  H   UNL     1     -11.837  11.195  68.866  1.00  0.00     0.000 HD 
BRANCH  12  14
HETATM   14  C   UNL     1     -12.002  12.874  67.652  1.00  0.00    -0.289 C  
BRANCH  14  15
HETATM   15  C   UNL     1     -11.974  13.670  68.975  1.00  0.00    -0.353 C  
HETATM   16  O   UNL     1     -11.200  12.956  69.943  1.00  0.00    -0.489 OA 
HETATM   17  H   UNL     1     -11.183  13.446  70.757  1.00  0.00     0.000 HD 
BRANCH  15  18
HETATM   18  C   UNL     1     -11.394  15.071  68.739  1.00  0.00    -0.291 C  
BRANCH  18  19
HETATM   19  O   UNL     1     -10.664  15.120  67.518  1.00  0.00    -0.271 OA 
BRANCH  19  20
HETATM   20  C   UNL     1      -9.298  15.210  67.642  1.00  0.00    -0.189 A  
HETATM   21  C   UNL     1      -8.436  14.107  67.790  1.00  0.00    -0.178 A  
HETATM   22  C   UNL     1      -7.057  14.270  67.880  1.00  0.00    -0.169 A  
HETATM   23  C   UNL     1      -6.478  15.537  67.825  1.00  0.00    -0.186 A  
HETATM   24  C   UNL     1      -7.339  16.632  67.686  1.00  0.00    -0.143 A  
HETATM   25  C   UNL     1      -8.727  16.505  67.599  1.00  0.00    -0.195 A  
HETATM   26  C   UNL     1      -9.266  17.830  67.488  1.00  0.00    -0.244 A  
HETATM   27  C   UNL     1     -10.574  18.352  67.389  1.00  0.00    -0.445 A  
HETATM   28  C   UNL     1     -10.763  19.735  67.285  1.00  0.00    -0.532 A  
HETATM   29  C   UNL     1      -9.669  20.597  67.278  1.00  0.00    -0.562 A  
HETATM   30  C   UNL     1      -8.363  20.108  67.379  1.00  0.00    -0.390 A  
HETATM   31  C   UNL     1      -8.197  18.721  67.487  1.00  0.00    -0.260 A  
HETATM   32  N   UNL     1      -7.052  17.976  67.608  1.00  0.00    -0.196 NA 
HETATM   33  H   UNL     1      -6.110  18.367  67.636  1.00  0.00     0.000 HD 
ENDBRANCH  19  20
ENDBRANCH  18  19
ENDBRANCH  15  18
ENDBRANCH  14  15
ENDBRANCH  12  14
ENDBRANCH  11  12
ENDBRANCH  10  11
ENDBRANCH   9  10
ENDBRANCH   8   9
ENDBRANCH   2   3
TORSDOF 10
ENDMDL
MODEL       81
REMARK 921   NORMALIZED FREE ENERGY PREDICTED BY IDOCK:   -5.88 KCAL/MOL
REMARK 922        TOTAL FREE ENERGY PREDICTED BY IDOCK:  -11.17 KCAL/MOL
REMARK 923 INTER-LIGAND FREE ENERGY PREDICTED BY IDOCK:   -9.75 KCAL/MOL
REMARK 924 INTRA-LIGAND FREE ENERGY PREDICTED BY IDOCK:   -1.42 KCAL/MOL
REMARK 927      BINDING AFFINITY PREDICTED BY RF-SCORE:    0.00 PKD
ROOT
HETATM    1  C   UNL     1     -10.646  19.591  67.005  1.00  0.00    -0.492 C  
HETATM    2  O   UNL     1     -10.046  18.617  67.857  1.00  0.00    -0.334 OA 
ENDROOT
BRANCH   2   3
HETATM    3  C   UNL     1      -8.708  18.383  67.661  1.00  0.00    -0.260 A  
HETATM    4  C   UNL     1      -7.734  19.005  68.460  1.00  0.00    -0.368 A  
HETATM    5  C   UNL     1      -6.379  18.724  68.288  1.00  0.00    -0.224 A  
HETATM    6  C   UNL     1      -5.975  17.838  67.298  1.00  0.00    -0.157 A  
HETATM    7  C   UNL     1      -6.928  17.254  66.466  1.00  0.00    -0.298 A  
HETATM    8  C   UNL     1      -8.295  17.522  66.625  1.00  0.00    -0.261 A  
BRANCH   8   9
HETATM    9  O   UNL     1      -9.063  16.845  65.707  1.00  0.00    -0.523 OA 
BRANCH   9  10
HETATM   10  C   UNL     1      -9.377  15.489  65.997  1.00  0.00    -0.344 C  
BRANCH  10  11
HETATM   11  C   UNL     1     -10.778  15.391  66.625  1.00  0.00    -0.309 C  
BRANCH  11  12
HETATM   12  N   UNL     1     -10.770  15.380  68.099  1.00  0.00    -0.263 NA 
HETATM   13  H   UNL     1     -10.384  16.247  68.472  1.00  0.00     0.000 HD 
BRANCH  12  14
HETATM   14  C   UNL     1     -12.108  15.103  68.666  1.00  0.00    -0.151 C  
BRANCH  14  15
HETATM   15  C   UNL     1     -12.113  15.145  70.209  1.00  0.00    -0.341 C  
HETATM   16  O   UNL     1     -13.208  15.949  70.659  1.00  0.00    -0.723 OA 
HETATM   17  H   UNL     1     -13.211  15.974  71.609  1.00  0.00     0.000 HD 
BRANCH  15  18
HETATM   18  C   UNL     1     -12.210  13.724  70.779  1.00  0.00    -0.363 C  
BRANCH  18  19
HETATM   19  O   UNL     1     -12.054  12.752  69.750  1.00  0.00    -0.296 OA 
BRANCH  19  20
HETATM   20  C   UNL     1     -11.964  11.446  70.170  1.00  0.00    -0.377 A  
HETATM   21  C   UNL     1     -12.390  10.981  71.428  1.00  0.00    -0.368 A  
HETATM   22  C   UNL     1     -12.296   9.638  71.775  1.00  0.00    -0.474 A  
HETATM   23  C   UNL     1     -11.774   8.699  70.886  1.00  0.00    -0.287 A  
HETATM   24  C   UNL     1     -11.342   9.168  69.639  1.00  0.00     0.088 A  
HETATM   25  C   UNL     1     -11.417  10.509  69.260  1.00  0.00    -0.323 A  
HETATM   26  C   UNL     1     -10.867  10.606  67.938  1.00  0.00    -0.328 A  
HETATM   27  C   UNL     1     -10.650  11.675  67.041  1.00  0.00    -0.272 A  
HETATM   28  C   UNL     1     -10.082  11.423  65.787  1.00  0.00    -0.289 A  
HETATM   29  C   UNL     1      -9.731  10.126  65.420  1.00  0.00    -0.355 A  
HETATM   30  C   UNL     1      -9.930   9.050  66.290  1.00  0.00    -0.352 A  
HETATM   31  C   UNL     1     -10.496   9.325  67.542  1.00  0.00    -0.274 A  
HETATM   32  N   UNL     1     -10.791   8.480  68.582  1.00  0.00    -0.434 NA 
HETATM   33  H   UNL     1     -10.624   7.474  68.572  1.00  0.00     0.000 HD 
ENDBRANCH  19  20
ENDBRANCH  18  19
ENDBRANCH  15  18
ENDBRANCH  14  15
ENDBRANCH  12  14
ENDBRANCH  11  12
ENDBRANCH  10  11
ENDBRANCH   9  10
ENDBRANCH   8   9
ENDBRANCH   2   3
TORSDOF 10
ENDMDL
MODEL       82
REMARK 921   NORMALIZED FREE ENERGY PREDICTED BY IDOCK:   -5.88 KCAL/MOL
REMARK 922        TOTAL FREE ENERGY PREDICTED BY IDOCK:  -11.16 KCAL/MOL
REMARK 923 INTER-LIGAND FREE ENERGY PREDICTED BY IDOCK:  -10.09 KCAL/MOL
REMARK 924 INTRA-LIGAND FREE ENERGY PREDICTED BY IDOCK:   -1.07 KCAL/MOL
REMARK 927      BINDING AFFINITY PREDICTED BY RF-SCORE:    0.00 PKD
ROOT
HETATM    1  C   UNL     1     -10.827  15.855  65.318  1.00  0.00    -0.387 C  
HETATM    2  O   UNL     1      -9.630  16.570  65.615  1.00  0.00    -0.511 OA 
ENDROOT
BRANCH   2   3
HETATM    3  C   UNL     1      -9.763  17.656  66.444  1.00  0.00    -0.294 A  
HETATM    4  C   UNL     1     -10.434  18.817  66.024  1.00  0.00    -0.483 A  
HETATM    5  C   UNL     1     -10.609  19.896  66.888  1.00  0.00    -0.534 A  
HETATM    6  C   UNL     1     -10.094  19.844  68.176  1.00  0.00    -0.569 A  
HETATM    7  C   UNL     1      -9.382  18.719  68.588  1.00  0.00    -0.392 A  
HETATM    8  C   UNL     1      -9.198  17.621  67.734  1.00  0.00    -0.251 A  
BRANCH   8   9
HETATM    9  O   UNL     1      -8.473  16.619  68.333  1.00  0.00    -0.199 OA 
BRANCH   9  10
HETATM   10  C   UNL     1      -9.204  15.593  68.992  1.00  0.00    -0.243 C  
BRANCH  10  11
HETATM   11  C   UNL     1      -8.443  14.259  68.906  1.00  0.00    -0.031 C  
BRANCH  11  12
HETATM   12  N   UNL     1      -9.320  13.079  68.788  1.00  0.00    -0.407 NA 
HETATM   13  H   UNL     1      -9.963  13.018  69.578  1.00  0.00     0.000 HD 
BRANCH  12  14
HETATM   14  C   UNL     1     -10.050  13.048  67.502  1.00  0.00    -0.218 C  
BRANCH  14  15
HETATM   15  C   UNL     1     -11.470  12.459  67.646  1.00  0.00    -0.337 C  
HETATM   16  O   UNL     1     -12.200  12.678  66.434  1.00  0.00    -0.550 OA 
HETATM   17  H   UNL     1     -13.074  12.315  66.523  1.00  0.00     0.000 HD 
BRANCH  15  18
HETATM   18  C   UNL     1     -11.394  10.963  67.974  1.00  0.00    -0.312 C  
BRANCH  18  19
HETATM   19  O   UNL     1     -10.793  10.751  69.246  1.00  0.00    -0.212 OA 
BRANCH  19  20
HETATM   20  C   UNL     1     -11.662  10.568  70.296  1.00  0.00    -0.332 A  
HETATM   21  C   UNL     1     -12.480  11.576  70.838  1.00  0.00    -0.464 A  
HETATM   22  C   UNL     1     -13.360  11.313  71.883  1.00  0.00    -0.413 A  
HETATM   23  C   UNL     1     -13.463  10.036  72.432  1.00  0.00    -0.232 A  
HETATM   24  C   UNL     1     -12.640   9.038  71.896  1.00  0.00    -0.382 A  
HETATM   25  C   UNL     1     -11.743   9.269  70.852  1.00  0.00    -0.360 A  
HETATM   26  C   UNL     1     -11.069   8.029  70.592  1.00  0.00    -0.266 A  
HETATM   27  C   UNL     1     -10.058   7.631  69.690  1.00  0.00    -0.194 A  
HETATM   28  C   UNL     1      -9.614   6.304  69.688  1.00  0.00    -0.163 A  
HETATM   29  C   UNL     1     -10.163   5.375  70.569  1.00  0.00    -0.326 A  
HETATM   30  C   UNL     1     -11.161   5.743  71.477  1.00  0.00    -0.243 A  
HETATM   31  C   UNL     1     -11.588   7.077  71.465  1.00  0.00    -0.287 A  
HETATM   32  N   UNL     1     -12.529   7.709  72.237  1.00  0.00    -0.500 NA 
HETATM   33  H   UNL     1     -13.075   7.254  72.969  1.00  0.00     0.000 HD 
ENDBRANCH  19  20
ENDBRANCH  18  19
ENDBRANCH  15  18
ENDBRANCH  14  15
ENDBRANCH  12  14
ENDBRANCH  11  12
ENDBRANCH  10  11
ENDBRANCH   9  10
ENDBRANCH   8   9
ENDBRANCH   2   3
TORSDOF 10
ENDMDL
MODEL       83
REMARK 921   NORMALIZED FREE ENERGY PREDICTED BY IDOCK:   -5.87 KCAL/MOL
REMARK 922        TOTAL FREE ENERGY PREDICTED BY IDOCK:  -11.14 KCAL/MOL
REMARK 923 INTER-LIGAND FREE ENERGY PREDICTED BY IDOCK:   -9.35 KCAL/MOL
REMARK 924 INTRA-LIGAND FREE ENERGY PREDICTED BY IDOCK:   -1.80 KCAL/MOL
REMARK 927      BINDING AFFINITY PREDICTED BY RF-SCORE:    0.00 PKD
ROOT
HETATM    1  C   UNL     1     -11.846  13.950  68.243  1.00  0.00    -0.376 C  
HETATM    2  O   UNL     1     -11.785  12.742  67.488  1.00  0.00    -0.337 OA 
ENDROOT
BRANCH   2   3
HETATM    3  C   UNL     1     -11.814  12.878  66.123  1.00  0.00    -0.429 A  
HETATM    4  C   UNL     1     -12.537  13.915  65.509  1.00  0.00    -0.560 A  
HETATM    5  C   UNL     1     -12.521  14.077  64.124  1.00  0.00    -0.279 A  
HETATM    6  C   UNL     1     -11.806  13.191  63.330  1.00  0.00    -0.490 A  
HETATM    7  C   UNL     1     -11.127  12.128  63.923  1.00  0.00    -0.470 A  
HETATM    8  C   UNL     1     -11.129  11.950  65.315  1.00  0.00    -0.299 A  
BRANCH   8   9
HETATM    9  O   UNL     1     -10.400  10.848  65.693  1.00  0.00    -0.250 OA 
BRANCH   9  10
HETATM   10  C   UNL     1      -9.649  10.187  64.682  1.00  0.00    -0.315 C  
BRANCH  10  11
HETATM   11  C   UNL     1      -8.732   9.124  65.311  1.00  0.00    -0.188 C  
BRANCH  11  12
HETATM   12  N   UNL     1      -8.846   9.032  66.778  1.00  0.00    -0.125 NA 
HETATM   13  H   UNL     1      -9.046   8.076  67.073  1.00  0.00     0.000 HD 
BRANCH  12  14
HETATM   14  C   UNL     1      -7.650   9.564  67.468  1.00  0.00    -0.095 C  
BRANCH  14  15
HETATM   15  C   UNL     1      -7.998  10.703  68.451  1.00  0.00    -0.120 C  
HETATM   16  O   UNL     1      -8.781  11.691  67.775  1.00  0.00    -0.142 OA 
HETATM   17  H   UNL     1      -8.995  12.393  68.379  1.00  0.00     0.000 HD 
BRANCH  15  18
HETATM   18  C   UNL     1      -8.752  10.147  69.665  1.00  0.00    -0.158 C  
BRANCH  18  19
HETATM   19  O   UNL     1     -10.007   9.597  69.276  1.00  0.00    -0.173 OA 
BRANCH  19  20
HETATM   20  C   UNL     1     -11.050   9.814  70.145  1.00  0.00    -0.285 A  
HETATM   21  C   UNL     1     -11.781  11.013  70.230  1.00  0.00    -0.445 A  
HETATM   22  C   UNL     1     -12.847  11.153  71.114  1.00  0.00    -0.473 A  
HETATM   23  C   UNL     1     -13.230  10.105  71.949  1.00  0.00    -0.557 A  
HETATM   24  C   UNL     1     -12.494   8.916  71.868  1.00  0.00    -0.378 A  
HETATM   25  C   UNL     1     -11.417   8.744  70.997  1.00  0.00    -0.337 A  
HETATM   26  C   UNL     1     -10.907   7.420  71.211  1.00  0.00    -0.258 A  
HETATM   27  C   UNL     1      -9.838   6.678  70.663  1.00  0.00    -0.198 A  
HETATM   28  C   UNL     1      -9.607   5.369  71.098  1.00  0.00    -0.214 A  
HETATM   29  C   UNL     1     -10.425   4.794  72.068  1.00  0.00    -0.225 A  
HETATM   30  C   UNL     1     -11.488   5.506  72.632  1.00  0.00    -0.331 A  
HETATM   31  C   UNL     1     -11.699   6.818  72.185  1.00  0.00    -0.297 A  
HETATM   32  N   UNL     1     -12.643   7.737  72.562  1.00  0.00    -0.544 NA 
HETATM   33  H   UNL     1     -13.362   7.570  73.267  1.00  0.00     0.000 HD 
ENDBRANCH  19  20
ENDBRANCH  18  19
ENDBRANCH  15  18
ENDBRANCH  14  15
ENDBRANCH  12  14
ENDBRANCH  11  12
ENDBRANCH  10  11
ENDBRANCH   9  10
ENDBRANCH   8   9
ENDBRANCH   2   3
TORSDOF 10
ENDMDL
MODEL       84
REMARK 921   NORMALIZED FREE ENERGY PREDICTED BY IDOCK:   -5.84 KCAL/MOL
REMARK 922        TOTAL FREE ENERGY PREDICTED BY IDOCK:  -11.11 KCAL/MOL
REMARK 923 INTER-LIGAND FREE ENERGY PREDICTED BY IDOCK:   -9.13 KCAL/MOL
REMARK 924 INTRA-LIGAND FREE ENERGY PREDICTED BY IDOCK:   -1.97 KCAL/MOL
REMARK 927      BINDING AFFINITY PREDICTED BY RF-SCORE:    0.00 PKD
ROOT
HETATM    1  C   UNL     1     -13.222  15.836  73.435  1.00  0.00    -0.544 C  
HETATM    2  O   UNL     1     -13.949  15.249  72.358  1.00  0.00    -0.486 OA 
ENDROOT
BRANCH   2   3
HETATM    3  C   UNL     1     -13.414  14.107  71.817  1.00  0.00    -0.390 A  
HETATM    4  C   UNL     1     -13.620  12.852  72.412  1.00  0.00    -0.577 A  
HETATM    5  C   UNL     1     -13.116  11.690  71.829  1.00  0.00    -0.487 A  
HETATM    6  C   UNL     1     -12.374  11.768  70.658  1.00  0.00    -0.421 A  
HETATM    7  C   UNL     1     -12.119  13.012  70.085  1.00  0.00    -0.377 A  
HETATM    8  C   UNL     1     -12.620  14.192  70.656  1.00  0.00    -0.351 A  
BRANCH   8   9
HETATM    9  O   UNL     1     -12.257  15.306  69.936  1.00  0.00    -0.329 OA 
BRANCH   9  10
HETATM   10  C   UNL     1     -11.049  15.232  69.190  1.00  0.00    -0.263 C  
BRANCH  10  11
HETATM   11  C   UNL     1     -11.225  15.920  67.825  1.00  0.00    -0.258 C  
BRANCH  11  12
HETATM   12  N   UNL     1     -11.096  15.005  66.676  1.00  0.00    -0.330 NA 
HETATM   13  H   UNL     1     -10.466  14.232  66.889  1.00  0.00     0.000 HD 
BRANCH  12  14
HETATM   14  C   UNL     1     -12.407  14.510  66.202  1.00  0.00    -0.209 C  
BRANCH  14  15
HETATM   15  C   UNL     1     -12.405  12.986  65.953  1.00  0.00    -0.368 C  
HETATM   16  O   UNL     1     -13.077  12.706  64.721  1.00  0.00    -0.852 OA 
HETATM   17  H   UNL     1     -13.075  11.768  64.568  1.00  0.00     0.000 HD 
BRANCH  15  18
HETATM   18  C   UNL     1     -10.967  12.455  65.923  1.00  0.00    -0.288 C  
BRANCH  18  19
HETATM   19  O   UNL     1     -10.640  11.802  67.145  1.00  0.00    -0.217 OA 
BRANCH  19  20
HETATM   20  C   UNL     1      -9.385  12.060  67.645  1.00  0.00    -0.185 A  
HETATM   21  C   UNL     1      -8.588  13.156  67.269  1.00  0.00    -0.210 A  
HETATM   22  C   UNL     1      -7.337  13.372  67.838  1.00  0.00    -0.140 A  
HETATM   23  C   UNL     1      -6.827  12.508  68.806  1.00  0.00    -0.096 A  
HETATM   24  C   UNL     1      -7.621  11.413  69.170  1.00  0.00    -0.038 A  
HETATM   25  C   UNL     1      -8.877  11.163  68.615  1.00  0.00    -0.155 A  
HETATM   26  C   UNL     1      -9.371   9.955  69.214  1.00  0.00    -0.215 A  
HETATM   27  C   UNL     1     -10.548   9.192  69.056  1.00  0.00    -0.219 A  
HETATM   28  C   UNL     1     -10.730   8.034  69.820  1.00  0.00    -0.231 A  
HETATM   29  C   UNL     1      -9.759   7.631  70.732  1.00  0.00    -0.173 A  
HETATM   30  C   UNL     1      -8.581   8.365  70.905  1.00  0.00    -0.167 A  
HETATM   31  C   UNL     1      -8.417   9.519  70.128  1.00  0.00    -0.205 A  
HETATM   32  N   UNL     1      -7.376  10.411  70.081  1.00  0.00    -0.356 NA 
HETATM   33  H   UNL     1      -6.531  10.341  70.648  1.00  0.00     0.000 HD 
ENDBRANCH  19  20
ENDBRANCH  18  19
ENDBRANCH  15  18
ENDBRANCH  14  15
ENDBRANCH  12  14
ENDBRANCH  11  12
ENDBRANCH  10  11
ENDBRANCH   9  10
ENDBRANCH   8   9
ENDBRANCH   2   3
TORSDOF 10
ENDMDL
MODEL       85
REMARK 921   NORMALIZED FREE ENERGY PREDICTED BY IDOCK:   -5.84 KCAL/MOL
REMARK 922        TOTAL FREE ENERGY PREDICTED BY IDOCK:  -11.10 KCAL/MOL
REMARK 923 INTER-LIGAND FREE ENERGY PREDICTED BY IDOCK:   -9.92 KCAL/MOL
REMARK 924 INTRA-LIGAND FREE ENERGY PREDICTED BY IDOCK:   -1.18 KCAL/MOL
REMARK 927      BINDING AFFINITY PREDICTED BY RF-SCORE:    0.00 PKD
ROOT
HETATM    1  C   UNL     1      -9.224   9.404  69.565  1.00  0.00    -0.176 C  
HETATM    2  O   UNL     1     -10.606   9.281  69.235  1.00  0.00    -0.221 OA 
ENDROOT
BRANCH   2   3
HETATM    3  C   UNL     1     -11.493   9.824  70.129  1.00  0.00    -0.216 A  
HETATM    4  C   UNL     1     -12.120   9.034  71.107  1.00  0.00    -0.345 A  
HETATM    5  C   UNL     1     -12.982   9.602  72.045  1.00  0.00    -0.518 A  
HETATM    6  C   UNL     1     -13.252  10.963  72.002  1.00  0.00    -0.456 A  
HETATM    7  C   UNL     1     -12.677  11.749  71.005  1.00  0.00    -0.372 A  
HETATM    8  C   UNL     1     -11.806  11.196  70.055  1.00  0.00    -0.361 A  
BRANCH   8   9
HETATM    9  O   UNL     1     -11.349  12.140  69.165  1.00  0.00    -0.246 OA 
BRANCH   9  10
HETATM   10  C   UNL     1     -11.599  13.504  69.479  1.00  0.00    -0.294 C  
BRANCH  10  11
HETATM   11  C   UNL     1     -12.244  14.216  68.279  1.00  0.00    -0.161 C  
BRANCH  11  12
HETATM   12  N   UNL     1     -11.599  13.913  66.989  1.00  0.00    -0.349 NA 
HETATM   13  H   UNL     1     -11.661  12.918  66.770  1.00  0.00     0.000 HD 
BRANCH  12  14
HETATM   14  C   UNL     1     -12.136  14.737  65.884  1.00  0.00    -0.102 C  
BRANCH  14  15
HETATM   15  C   UNL     1     -11.037  15.184  64.895  1.00  0.00    -0.414 C  
HETATM   16  O   UNL     1     -11.604  16.067  63.923  1.00  0.00    -1.193 OA 
HETATM   17  H   UNL     1     -10.928  16.342  63.314  1.00  0.00     0.000 HD 
BRANCH  15  18
HETATM   18  C   UNL     1      -9.890  15.868  65.650  1.00  0.00    -0.302 C  
BRANCH  18  19
HETATM   19  O   UNL     1     -10.381  16.587  66.777  1.00  0.00    -0.292 OA 
BRANCH  19  20
HETATM   20  C   UNL     1      -9.964  17.893  66.881  1.00  0.00    -0.335 A  
HETATM   21  C   UNL     1     -10.597  18.984  66.258  1.00  0.00    -0.493 A  
HETATM   22  C   UNL     1     -10.137  20.286  66.431  1.00  0.00    -0.491 A  
HETATM   23  C   UNL     1      -9.029  20.557  67.232  1.00  0.00    -0.431 A  
HETATM   24  C   UNL     1      -8.396  19.467  67.843  1.00  0.00    -0.315 A  
HETATM   25  C   UNL     1      -8.827  18.149  67.686  1.00  0.00    -0.253 A  
HETATM   26  C   UNL     1      -7.929  17.318  68.437  1.00  0.00    -0.253 A  
HETATM   27  C   UNL     1      -7.827  15.926  68.651  1.00  0.00    -0.164 A  
HETATM   28  C   UNL     1      -6.808  15.424  69.467  1.00  0.00    -0.181 A  
HETATM   29  C   UNL     1      -5.895  16.288  70.068  1.00  0.00    -0.185 A  
HETATM   30  C   UNL     1      -5.970  17.670  69.869  1.00  0.00    -0.221 A  
HETATM   31  C   UNL     1      -6.996  18.151  69.045  1.00  0.00    -0.254 A  
HETATM   32  N   UNL     1      -7.298  19.436  68.672  1.00  0.00    -0.327 NA 
HETATM   33  H   UNL     1      -6.777  20.261  68.969  1.00  0.00     0.000 HD 
ENDBRANCH  19  20
ENDBRANCH  18  19
ENDBRANCH  15  18
ENDBRANCH  14  15
ENDBRANCH  12  14
ENDBRANCH  11  12
ENDBRANCH  10  11
ENDBRANCH   9  10
ENDBRANCH   8   9
ENDBRANCH   2   3
TORSDOF 10
ENDMDL
MODEL       86
REMARK 921   NORMALIZED FREE ENERGY PREDICTED BY IDOCK:   -5.82 KCAL/MOL
REMARK 922        TOTAL FREE ENERGY PREDICTED BY IDOCK:  -11.08 KCAL/MOL
REMARK 923 INTER-LIGAND FREE ENERGY PREDICTED BY IDOCK:   -9.86 KCAL/MOL
REMARK 924 INTRA-LIGAND FREE ENERGY PREDICTED BY IDOCK:   -1.21 KCAL/MOL
REMARK 927      BINDING AFFINITY PREDICTED BY RF-SCORE:    0.00 PKD
ROOT
HETATM    1  C   UNL     1     -12.376  15.180  64.298  1.00  0.00    -0.178 C  
HETATM    2  O   UNL     1     -12.798  14.003  64.983  1.00  0.00    -0.695 OA 
ENDROOT
BRANCH   2   3
HETATM    3  C   UNL     1     -11.991  12.901  64.848  1.00  0.00    -0.392 A  
HETATM    4  C   UNL     1     -11.535  12.481  63.588  1.00  0.00    -0.568 A  
HETATM    5  C   UNL     1     -10.674  11.391  63.463  1.00  0.00    -0.453 A  
HETATM    6  C   UNL     1     -10.277  10.688  64.593  1.00  0.00    -0.404 A  
HETATM    7  C   UNL     1     -10.764  11.064  65.844  1.00  0.00    -0.226 A  
HETATM    8  C   UNL     1     -11.628  12.159  65.990  1.00  0.00    -0.358 A  
BRANCH   8   9
HETATM    9  O   UNL     1     -11.987  12.360  67.301  1.00  0.00    -0.516 OA 
BRANCH   9  10
HETATM   10  C   UNL     1     -11.540  13.560  67.921  1.00  0.00    -0.342 C  
BRANCH  10  11
HETATM   11  C   UNL     1     -10.006  13.650  67.858  1.00  0.00    -0.244 C  
BRANCH  11  12
HETATM   12  N   UNL     1      -9.316  12.707  68.757  1.00  0.00    -0.405 NA 
HETATM   13  H   UNL     1      -9.959  11.997  69.109  1.00  0.00     0.000 HD 
BRANCH  12  14
HETATM   14  C   UNL     1      -8.134  12.087  68.120  1.00  0.00    -0.160 C  
BRANCH  14  15
HETATM   15  C   UNL     1      -8.107  10.553  68.295  1.00  0.00    -0.115 C  
HETATM   16  O   UNL     1      -6.751  10.097  68.287  1.00  0.00    -0.054 OA 
HETATM   17  H   UNL     1      -6.735   9.153  68.395  1.00  0.00     0.000 HD 
BRANCH  15  18
HETATM   18  C   UNL     1      -8.808  10.155  69.601  1.00  0.00    -0.164 C  
BRANCH  18  19
HETATM   19  O   UNL     1     -10.075   9.563  69.337  1.00  0.00    -0.179 OA 
BRANCH  19  20
HETATM   20  C   UNL     1     -11.033   9.743  70.307  1.00  0.00    -0.298 A  
HETATM   21  C   UNL     1     -11.774  10.926  70.485  1.00  0.00    -0.441 A  
HETATM   22  C   UNL     1     -12.751  11.029  71.470  1.00  0.00    -0.521 A  
HETATM   23  C   UNL     1     -13.033   9.960  72.318  1.00  0.00    -0.387 A  
HETATM   24  C   UNL     1     -12.287   8.787  72.144  1.00  0.00    -0.389 A  
HETATM   25  C   UNL     1     -11.296   8.652  71.170  1.00  0.00    -0.329 A  
HETATM   26  C   UNL     1     -10.744   7.334  71.308  1.00  0.00    -0.243 A  
HETATM   27  C   UNL     1      -9.720   6.624  70.645  1.00  0.00    -0.183 A  
HETATM   28  C   UNL     1      -9.425   5.312  71.031  1.00  0.00    -0.211 A  
HETATM   29  C   UNL     1     -10.134   4.704  72.064  1.00  0.00    -0.262 A  
HETATM   30  C   UNL     1     -11.150   5.385  72.741  1.00  0.00    -0.349 A  
HETATM   31  C   UNL     1     -11.427   6.700  72.342  1.00  0.00    -0.262 A  
HETATM   32  N   UNL     1     -12.347   7.594  72.827  1.00  0.00    -0.532 NA 
HETATM   33  H   UNL     1     -12.991   7.400  73.594  1.00  0.00     0.000 HD 
ENDBRANCH  19  20
ENDBRANCH  18  19
ENDBRANCH  15  18
ENDBRANCH  14  15
ENDBRANCH  12  14
ENDBRANCH  11  12
ENDBRANCH  10  11
ENDBRANCH   9  10
ENDBRANCH   8   9
ENDBRANCH   2   3
TORSDOF 10
ENDMDL
MODEL       87
REMARK 921   NORMALIZED FREE ENERGY PREDICTED BY IDOCK:   -5.81 KCAL/MOL
REMARK 922        TOTAL FREE ENERGY PREDICTED BY IDOCK:  -11.05 KCAL/MOL
REMARK 923 INTER-LIGAND FREE ENERGY PREDICTED BY IDOCK:  -10.05 KCAL/MOL
REMARK 924 INTRA-LIGAND FREE ENERGY PREDICTED BY IDOCK:   -1.00 KCAL/MOL
REMARK 927      BINDING AFFINITY PREDICTED BY RF-SCORE:    0.00 PKD
ROOT
HETATM    1  C   UNL     1      -9.083   3.317  72.012  1.00  0.00    -0.103 C  
HETATM    2  O   UNL     1      -9.857   4.077  71.087  1.00  0.00    -0.181 OA 
ENDROOT
BRANCH   2   3
HETATM    3  C   UNL     1     -10.371   5.260  71.555  1.00  0.00    -0.221 A  
HETATM    4  C   UNL     1     -10.251   5.624  72.907  1.00  0.00    -0.212 A  
HETATM    5  C   UNL     1     -10.731   6.850  73.365  1.00  0.00    -0.352 A  
HETATM    6  C   UNL     1     -11.363   7.719  72.486  1.00  0.00    -0.429 A  
HETATM    7  C   UNL     1     -11.534   7.348  71.154  1.00  0.00    -0.303 A  
HETATM    8  C   UNL     1     -11.056   6.120  70.674  1.00  0.00    -0.317 A  
BRANCH   8   9
HETATM    9  O   UNL     1     -11.325   5.950  69.336  1.00  0.00    -0.346 OA 
BRANCH   9  10
HETATM   10  C   UNL     1     -10.350   6.418  68.413  1.00  0.00    -0.194 C  
BRANCH  10  11
HETATM   11  C   UNL     1     -11.033   7.136  67.237  1.00  0.00    -0.263 C  
BRANCH  11  12
HETATM   12  N   UNL     1     -10.721   8.574  67.154  1.00  0.00    -0.411 NA 
HETATM   13  H   UNL     1     -11.553   9.120  66.931  1.00  0.00     0.000 HD 
BRANCH  12  14
HETATM   14  C   UNL     1     -10.066   9.078  68.381  1.00  0.00    -0.191 C  
BRANCH  14  15
HETATM   15  C   UNL     1     -10.562  10.485  68.778  1.00  0.00    -0.207 C  
HETATM   16  O   UNL     1      -9.449  11.283  69.189  1.00  0.00    -0.394 OA 
HETATM   17  H   UNL     1      -9.754  12.150  69.433  1.00  0.00     0.000 HD 
BRANCH  15  18
HETATM   18  C   UNL     1     -11.297  11.140  67.602  1.00  0.00    -0.284 C  
BRANCH  18  19
HETATM   19  O   UNL     1     -12.154  12.183  68.055  1.00  0.00    -0.478 OA 
BRANCH  19  20
HETATM   20  C   UNL     1     -11.670  13.461  67.909  1.00  0.00    -0.361 A  
HETATM   21  C   UNL     1     -11.082  13.962  66.733  1.00  0.00    -0.310 A  
HETATM   22  C   UNL     1     -10.640  15.278  66.646  1.00  0.00    -0.304 A  
HETATM   23  C   UNL     1     -10.765  16.152  67.725  1.00  0.00    -0.325 A  
HETATM   24  C   UNL     1     -11.343  15.647  68.896  1.00  0.00    -0.339 A  
HETATM   25  C   UNL     1     -11.791  14.331  69.020  1.00  0.00    -0.370 A  
HETATM   26  C   UNL     1     -12.296  14.180  70.355  1.00  0.00    -0.428 A  
HETATM   27  C   UNL     1     -12.855  13.103  71.077  1.00  0.00    -0.295 A  
HETATM   28  C   UNL     1     -13.264  13.294  72.401  1.00  0.00    -0.539 A  
HETATM   29  C   UNL     1     -13.124  14.539  73.009  1.00  0.00    -0.611 A  
HETATM   30  C   UNL     1     -12.569  15.622  72.319  1.00  0.00    -0.506 A  
HETATM   31  C   UNL     1     -12.162  15.407  70.996  1.00  0.00    -0.376 A  
HETATM   32  N   UNL     1     -11.586  16.270  70.099  1.00  0.00    -0.402 NA 
HETATM   33  H   UNL     1     -11.367  17.247  70.297  1.00  0.00     0.000 HD 
ENDBRANCH  19  20
ENDBRANCH  18  19
ENDBRANCH  15  18
ENDBRANCH  14  15
ENDBRANCH  12  14
ENDBRANCH  11  12
ENDBRANCH  10  11
ENDBRANCH   9  10
ENDBRANCH   8   9
ENDBRANCH   2   3
TORSDOF 10
ENDMDL
MODEL       88
REMARK 921   NORMALIZED FREE ENERGY PREDICTED BY IDOCK:   -5.77 KCAL/MOL
REMARK 922        TOTAL FREE ENERGY PREDICTED BY IDOCK:  -11.00 KCAL/MOL
REMARK 923 INTER-LIGAND FREE ENERGY PREDICTED BY IDOCK:   -9.76 KCAL/MOL
REMARK 924 INTRA-LIGAND FREE ENERGY PREDICTED BY IDOCK:   -1.23 KCAL/MOL
REMARK 927      BINDING AFFINITY PREDICTED BY RF-SCORE:    0.00 PKD
ROOT
HETATM    1  C   UNL     1      -6.483  19.395  69.202  1.00  0.00    -0.303 C  
HETATM    2  O   UNL     1      -7.606  18.589  68.849  1.00  0.00    -0.291 OA 
ENDROOT
BRANCH   2   3
HETATM    3  C   UNL     1      -7.422  17.231  68.917  1.00  0.00    -0.240 A  
HETATM    4  C   UNL     1      -6.399  16.671  69.701  1.00  0.00    -0.217 A  
HETATM    5  C   UNL     1      -6.251  15.289  69.806  1.00  0.00    -0.155 A  
HETATM    6  C   UNL     1      -7.104  14.445  69.108  1.00  0.00    -0.127 A  
HETATM    7  C   UNL     1      -8.090  14.988  68.286  1.00  0.00    -0.133 A  
HETATM    8  C   UNL     1      -8.257  16.377  68.170  1.00  0.00    -0.170 A  
BRANCH   8   9
HETATM    9  O   UNL     1      -9.283  16.701  67.315  1.00  0.00    -0.217 OA 
BRANCH   9  10
HETATM   10  C   UNL     1     -10.303  15.729  67.125  1.00  0.00    -0.291 C  
BRANCH  10  11
HETATM   11  C   UNL     1     -10.371  15.313  65.646  1.00  0.00    -0.366 C  
BRANCH  11  12
HETATM   12  N   UNL     1     -10.009  13.904  65.406  1.00  0.00    -0.514 NA 
HETATM   13  H   UNL     1      -9.036  13.726  65.654  1.00  0.00     0.000 HD 
BRANCH  12  14
HETATM   14  C   UNL     1     -10.917  12.965  66.100  1.00  0.00    -0.281 C  
BRANCH  14  15
HETATM   15  C   UNL     1     -10.197  11.677  66.553  1.00  0.00    -0.214 C  
HETATM   16  O   UNL     1      -8.921  12.015  67.106  1.00  0.00    -0.173 OA 
HETATM   17  H   UNL     1      -8.478  11.222  67.385  1.00  0.00     0.000 HD 
BRANCH  15  18
HETATM   18  C   UNL     1     -11.052  10.922  67.579  1.00  0.00    -0.310 C  
BRANCH  18  19
HETATM   19  O   UNL     1     -10.733  11.330  68.905  1.00  0.00    -0.191 OA 
BRANCH  19  20
HETATM   20  C   UNL     1     -11.456  10.726  69.907  1.00  0.00    -0.321 A  
HETATM   21  C   UNL     1     -11.460   9.342  70.164  1.00  0.00    -0.175 A  
HETATM   22  C   UNL     1     -12.193   8.802  71.215  1.00  0.00    -0.332 A  
HETATM   23  C   UNL     1     -12.953   9.614  72.055  1.00  0.00    -0.518 A  
HETATM   24  C   UNL     1     -12.953  10.989  71.790  1.00  0.00    -0.438 A  
HETATM   25  C   UNL     1     -12.234  11.564  70.741  1.00  0.00    -0.463 A  
HETATM   26  C   UNL     1     -12.495  12.975  70.773  1.00  0.00    -0.384 A  
HETATM   27  C   UNL     1     -12.085  14.068  69.978  1.00  0.00    -0.412 A  
HETATM   28  C   UNL     1     -12.527  15.357  70.291  1.00  0.00    -0.413 A  
HETATM   29  C   UNL     1     -13.367  15.569  71.381  1.00  0.00    -0.592 A  
HETATM   30  C   UNL     1     -13.793  14.506  72.183  1.00  0.00    -0.574 A  
HETATM   31  C   UNL     1     -13.342  13.222  71.849  1.00  0.00    -0.451 A  
HETATM   32  N   UNL     1     -13.603  12.013  72.442  1.00  0.00    -0.497 NA 
HETATM   33  H   UNL     1     -14.200  11.888  73.260  1.00  0.00     0.000 HD 
ENDBRANCH  19  20
ENDBRANCH  18  19
ENDBRANCH  15  18
ENDBRANCH  14  15
ENDBRANCH  12  14
ENDBRANCH  11  12
ENDBRANCH  10  11
ENDBRANCH   9  10
ENDBRANCH   8   9
ENDBRANCH   2   3
TORSDOF 10
ENDMDL
MODEL       89
REMARK 921   NORMALIZED FREE ENERGY PREDICTED BY IDOCK:   -5.75 KCAL/MOL
REMARK 922        TOTAL FREE ENERGY PREDICTED BY IDOCK:  -10.96 KCAL/MOL
REMARK 923 INTER-LIGAND FREE ENERGY PREDICTED BY IDOCK:   -9.63 KCAL/MOL
REMARK 924 INTRA-LIGAND FREE ENERGY PREDICTED BY IDOCK:   -1.32 KCAL/MOL
REMARK 927      BINDING AFFINITY PREDICTED BY RF-SCORE:    0.00 PKD
ROOT
HETATM    1  C   UNL     1     -11.776  15.925  64.027  1.00  0.00     0.141 C  
HETATM    2  O   UNL     1     -12.634  14.786  64.005  1.00  0.00    -0.822 OA 
ENDROOT
BRANCH   2   3
HETATM    3  C   UNL     1     -12.073  13.599  64.403  1.00  0.00    -0.427 A  
HETATM    4  C   UNL     1     -11.602  12.664  63.466  1.00  0.00    -0.584 A  
HETATM    5  C   UNL     1     -10.987  11.482  63.878  1.00  0.00    -0.474 A  
HETATM    6  C   UNL     1     -10.860  11.203  65.232  1.00  0.00    -0.222 A  
HETATM    7  C   UNL     1     -11.370  12.098  66.171  1.00  0.00    -0.414 A  
HETATM    8  C   UNL     1     -11.988  13.293  65.776  1.00  0.00    -0.417 A  
BRANCH   8   9
HETATM    9  O   UNL     1     -12.417  14.031  66.854  1.00  0.00    -0.364 OA 
BRANCH   9  10
HETATM   10  C   UNL     1     -11.439  14.794  67.549  1.00  0.00    -0.354 C  
BRANCH  10  11
HETATM   11  C   UNL     1     -11.523  14.515  69.059  1.00  0.00    -0.290 C  
BRANCH  11  12
HETATM   12  N   UNL     1     -12.463  13.437  69.414  1.00  0.00    -0.051 NA 
HETATM   13  H   UNL     1     -12.746  12.908  68.589  1.00  0.00     0.000 HD 
BRANCH  12  14
HETATM   14  C   UNL     1     -11.922  12.542  70.461  1.00  0.00    -0.189 C  
BRANCH  14  15
HETATM   15  C   UNL     1     -11.698  11.104  69.948  1.00  0.00    -0.355 C  
HETATM   16  O   UNL     1     -12.784  10.730  69.094  1.00  0.00    -0.660 OA 
HETATM   17  H   UNL     1     -12.646   9.844  68.777  1.00  0.00     0.000 HD 
BRANCH  15  18
HETATM   18  C   UNL     1     -10.361  11.007  69.202  1.00  0.00    -0.188 C  
BRANCH  18  19
HETATM   19  O   UNL     1      -9.675   9.807  69.541  1.00  0.00    -0.186 OA 
BRANCH  19  20
HETATM   20  C   UNL     1     -10.097   8.672  68.890  1.00  0.00    -0.202 A  
HETATM   21  C   UNL     1     -10.236   8.559  67.494  1.00  0.00    -0.307 A  
HETATM   22  C   UNL     1     -10.640   7.368  66.899  1.00  0.00    -0.375 A  
HETATM   23  C   UNL     1     -10.923   6.240  67.667  1.00  0.00    -0.438 A  
HETATM   24  C   UNL     1     -10.793   6.360  69.057  1.00  0.00    -0.327 A  
HETATM   25  C   UNL     1     -10.395   7.540  69.687  1.00  0.00    -0.225 A  
HETATM   26  C   UNL     1     -10.398   7.287  71.099  1.00  0.00    -0.207 A  
HETATM   27  C   UNL     1     -10.115   8.072  72.238  1.00  0.00    -0.311 A  
HETATM   28  C   UNL     1     -10.208   7.504  73.513  1.00  0.00    -0.380 A  
HETATM   29  C   UNL     1     -10.578   6.169  73.665  1.00  0.00    -0.279 A  
HETATM   30  C   UNL     1     -10.868   5.370  72.555  1.00  0.00    -0.304 A  
HETATM   31  C   UNL     1     -10.773   5.960  71.288  1.00  0.00    -0.264 A  
HETATM   32  N   UNL     1     -11.005   5.426  70.046  1.00  0.00    -0.156 NA 
HETATM   33  H   UNL     1     -11.297   4.464  69.877  1.00  0.00     0.000 HD 
ENDBRANCH  19  20
ENDBRANCH  18  19
ENDBRANCH  15  18
ENDBRANCH  14  15
ENDBRANCH  12  14
ENDBRANCH  11  12
ENDBRANCH  10  11
ENDBRANCH   9  10
ENDBRANCH   8   9
ENDBRANCH   2   3
TORSDOF 10
ENDMDL
MODEL       90
REMARK 921   NORMALIZED FREE ENERGY PREDICTED BY IDOCK:   -5.73 KCAL/MOL
REMARK 922        TOTAL FREE ENERGY PREDICTED BY IDOCK:  -10.93 KCAL/MOL
REMARK 923 INTER-LIGAND FREE ENERGY PREDICTED BY IDOCK:   -9.43 KCAL/MOL
REMARK 924 INTRA-LIGAND FREE ENERGY PREDICTED BY IDOCK:   -1.50 KCAL/MOL
REMARK 927      BINDING AFFINITY PREDICTED BY RF-SCORE:    0.00 PKD
ROOT
HETATM    1  C   UNL     1     -11.401  16.336  64.952  1.00  0.00    -0.159 C  
HETATM    2  O   UNL     1     -10.023  16.613  65.190  1.00  0.00    -0.473 OA 
ENDROOT
BRANCH   2   3
HETATM    3  C   UNL     1      -9.752  17.614  66.088  1.00  0.00    -0.213 A  
HETATM    4  C   UNL     1     -10.745  18.525  66.486  1.00  0.00    -0.263 A  
HETATM    5  C   UNL     1     -10.476  19.509  67.437  1.00  0.00    -0.593 A  
HETATM    6  C   UNL     1      -9.204  19.615  67.984  1.00  0.00    -0.409 A  
HETATM    7  C   UNL     1      -8.197  18.750  67.560  1.00  0.00    -0.278 A  
HETATM    8  C   UNL     1      -8.449  17.752  66.606  1.00  0.00    -0.258 A  
BRANCH   8   9
HETATM    9  O   UNL     1      -7.326  17.009  66.330  1.00  0.00    -0.274 OA 
BRANCH   9  10
HETATM   10  C   UNL     1      -6.169  17.263  67.117  1.00  0.00    -0.161 C  
BRANCH  10  11
HETATM   11  C   UNL     1      -5.695  15.968  67.797  1.00  0.00    -0.142 C  
BRANCH  11  12
HETATM   12  N   UNL     1      -6.642  15.439  68.796  1.00  0.00    -0.104 NA 
HETATM   13  H   UNL     1      -7.355  16.130  69.030  1.00  0.00     0.000 HD 
BRANCH  12  14
HETATM   14  C   UNL     1      -7.256  14.163  68.367  1.00  0.00    -0.109 C  
BRANCH  14  15
HETATM   15  C   UNL     1      -8.758  14.314  68.041  1.00  0.00    -0.177 C  
HETATM   16  O   UNL     1      -8.952  14.188  66.629  1.00  0.00    -0.358 OA 
HETATM   17  H   UNL     1      -9.877  14.281  66.428  1.00  0.00     0.000 HD 
BRANCH  15  18
HETATM   18  C   UNL     1      -9.575  13.260  68.799  1.00  0.00     0.066 C  
BRANCH  18  19
HETATM   19  O   UNL     1     -10.965  13.396  68.520  1.00  0.00    -0.249 OA 
BRANCH  19  20
HETATM   20  C   UNL     1     -11.745  13.827  69.566  1.00  0.00    -0.323 A  
HETATM   21  C   UNL     1     -12.109  15.168  69.791  1.00  0.00    -0.354 A  
HETATM   22  C   UNL     1     -12.928  15.529  70.855  1.00  0.00    -0.526 A  
HETATM   23  C   UNL     1     -13.421  14.573  71.741  1.00  0.00    -0.458 A  
HETATM   24  C   UNL     1     -13.050  13.241  71.519  1.00  0.00    -0.328 A  
HETATM   25  C   UNL     1     -12.225  12.844  70.466  1.00  0.00    -0.395 A  
HETATM   26  C   UNL     1     -12.053  11.423  70.575  1.00  0.00    -0.487 A  
HETATM   27  C   UNL     1     -11.330  10.462  69.836  1.00  0.00    -0.370 A  
HETATM   28  C   UNL     1     -11.379   9.116  70.215  1.00  0.00    -0.217 A  
HETATM   29  C   UNL     1     -12.136   8.720  71.314  1.00  0.00    -0.344 A  
HETATM   30  C   UNL     1     -12.858   9.651  72.067  1.00  0.00    -0.497 A  
HETATM   31  C   UNL     1     -12.792  10.994  71.674  1.00  0.00    -0.435 A  
HETATM   32  N   UNL     1     -13.380  12.105  72.223  1.00  0.00    -0.542 NA 
HETATM   33  H   UNL     1     -13.983  12.091  73.046  1.00  0.00     0.000 HD 
ENDBRANCH  19  20
ENDBRANCH  18  19
ENDBRANCH  15  18
ENDBRANCH  14  15
ENDBRANCH  12  14
ENDBRANCH  11  12
ENDBRANCH  10  11
ENDBRANCH   9  10
ENDBRANCH   8   9
ENDBRANCH   2   3
TORSDOF 10
ENDMDL
MODEL       91
REMARK 921   NORMALIZED FREE ENERGY PREDICTED BY IDOCK:   -5.73 KCAL/MOL
REMARK 922        TOTAL FREE ENERGY PREDICTED BY IDOCK:  -10.92 KCAL/MOL
REMARK 923 INTER-LIGAND FREE ENERGY PREDICTED BY IDOCK:   -9.41 KCAL/MOL
REMARK 924 INTRA-LIGAND FREE ENERGY PREDICTED BY IDOCK:   -1.51 KCAL/MOL
REMARK 927      BINDING AFFINITY PREDICTED BY RF-SCORE:    0.00 PKD
ROOT
HETATM    1  C   UNL     1     -10.963   6.166  67.758  1.00  0.00    -0.303 C  
HETATM    2  O   UNL     1     -11.443   6.813  68.934  1.00  0.00    -0.114 OA 
ENDROOT
BRANCH   2   3
HETATM    3  C   UNL     1     -11.160   6.192  70.125  1.00  0.00    -0.378 A  
HETATM    4  C   UNL     1     -10.172   5.197  70.213  1.00  0.00    -0.342 A  
HETATM    5  C   UNL     1      -9.855   4.607  71.436  1.00  0.00    -0.264 A  
HETATM    6  C   UNL     1     -10.539   4.982  72.584  1.00  0.00    -0.274 A  
HETATM    7  C   UNL     1     -11.556   5.931  72.502  1.00  0.00    -0.327 A  
HETATM    8  C   UNL     1     -11.888   6.538  71.281  1.00  0.00    -0.329 A  
BRANCH   8   9
HETATM    9  O   UNL     1     -12.913   7.443  71.418  1.00  0.00    -0.360 OA 
BRANCH   9  10
HETATM   10  C   UNL     1     -12.585   8.720  71.949  1.00  0.00    -0.371 C  
BRANCH  10  11
HETATM   11  C   UNL     1     -13.037   9.829  70.984  1.00  0.00    -0.291 C  
BRANCH  11  12
HETATM   12  N   UNL     1     -11.933  10.667  70.480  1.00  0.00    -0.321 NA 
HETATM   13  H   UNL     1     -11.881  11.551  70.986  1.00  0.00     0.000 HD 
BRANCH  12  14
HETATM   14  C   UNL     1     -10.635   9.959  70.506  1.00  0.00    -0.293 C  
BRANCH  14  15
HETATM   15  C   UNL     1      -9.847  10.127  69.188  1.00  0.00    -0.214 C  
HETATM   16  O   UNL     1      -9.176   8.903  68.876  1.00  0.00    -0.140 OA 
HETATM   17  H   UNL     1      -8.692   9.006  68.065  1.00  0.00     0.000 HD 
BRANCH  15  18
HETATM   18  C   UNL     1     -10.794  10.535  68.052  1.00  0.00    -0.263 C  
BRANCH  18  19
HETATM   19  O   UNL     1     -10.222  11.572  67.261  1.00  0.00    -0.196 OA 
BRANCH  19  20
HETATM   20  C   UNL     1     -10.890  11.875  66.098  1.00  0.00    -0.292 A  
HETATM   21  C   UNL     1     -11.997  12.739  66.017  1.00  0.00    -0.491 A  
HETATM   22  C   UNL     1     -12.607  13.024  64.799  1.00  0.00    -0.460 A  
HETATM   23  C   UNL     1     -12.141  12.462  63.612  1.00  0.00    -0.648 A  
HETATM   24  C   UNL     1     -11.045  11.595  63.699  1.00  0.00    -0.425 A  
HETATM   25  C   UNL     1     -10.413  11.283  64.904  1.00  0.00    -0.375 A  
HETATM   26  C   UNL     1      -9.358  10.358  64.600  1.00  0.00    -0.304 A  
HETATM   27  C   UNL     1      -8.398   9.675  65.378  1.00  0.00    -0.146 A  
HETATM   28  C   UNL     1      -7.479   8.824  64.754  1.00  0.00    -0.100 A  
HETATM   29  C   UNL     1      -7.506   8.648  63.373  1.00  0.00    -0.110 A  
HETATM   30  C   UNL     1      -8.449   9.309  62.579  1.00  0.00    -0.206 A  
HETATM   31  C   UNL     1      -9.362  10.153  63.224  1.00  0.00    -0.294 A  
HETATM   32  N   UNL     1     -10.385  10.906  62.707  1.00  0.00    -0.783 NA 
HETATM   33  H   UNL     1     -10.626  10.950  61.716  1.00  0.00     0.000 HD 
ENDBRANCH  19  20
ENDBRANCH  18  19
ENDBRANCH  15  18
ENDBRANCH  14  15
ENDBRANCH  12  14
ENDBRANCH  11  12
ENDBRANCH  10  11
ENDBRANCH   9  10
ENDBRANCH   8   9
ENDBRANCH   2   3
TORSDOF 10
ENDMDL
MODEL       92
REMARK 921   NORMALIZED FREE ENERGY PREDICTED BY IDOCK:   -5.73 KCAL/MOL
REMARK 922        TOTAL FREE ENERGY PREDICTED BY IDOCK:  -10.92 KCAL/MOL
REMARK 923 INTER-LIGAND FREE ENERGY PREDICTED BY IDOCK:   -9.55 KCAL/MOL
REMARK 924 INTRA-LIGAND FREE ENERGY PREDICTED BY IDOCK:   -1.37 KCAL/MOL
REMARK 927      BINDING AFFINITY PREDICTED BY RF-SCORE:    0.00 PKD
ROOT
HETATM    1  C   UNL     1     -11.231  14.790  68.422  1.00  0.00    -0.284 C  
HETATM    2  O   UNL     1     -11.955  13.659  67.942  1.00  0.00    -0.358 OA 
ENDROOT
BRANCH   2   3
HETATM    3  C   UNL     1     -11.935  13.459  66.585  1.00  0.00    -0.399 A  
HETATM    4  C   UNL     1     -12.147  14.519  65.687  1.00  0.00    -0.295 A  
HETATM    5  C   UNL     1     -12.075  14.317  64.309  1.00  0.00    -0.467 A  
HETATM    6  C   UNL     1     -11.817  13.049  63.807  1.00  0.00    -0.566 A  
HETATM    7  C   UNL     1     -11.656  11.979  64.686  1.00  0.00    -0.364 A  
HETATM    8  C   UNL     1     -11.722  12.163  66.075  1.00  0.00    -0.321 A  
BRANCH   8   9
HETATM    9  O   UNL     1     -11.535  10.985  66.759  1.00  0.00    -0.338 OA 
BRANCH   9  10
HETATM   10  C   UNL     1     -10.234  10.732  67.273  1.00  0.00    -0.205 C  
BRANCH  10  11
HETATM   11  C   UNL     1     -10.318  10.316  68.751  1.00  0.00    -0.195 C  
BRANCH  11  12
HETATM   12  N   UNL     1     -10.868  11.361  69.634  1.00  0.00    -0.456 NA 
HETATM   13  H   UNL     1     -10.796  12.283  69.203  1.00  0.00     0.000 HD 
BRANCH  12  14
HETATM   14  C   UNL     1     -12.258  11.073  70.049  1.00  0.00    -0.343 C  
BRANCH  14  15
HETATM   15  C   UNL     1     -12.366  10.745  71.554  1.00  0.00    -0.276 C  
HETATM   16  O   UNL     1     -13.295  11.642  72.169  1.00  0.00    -0.576 OA 
HETATM   17  H   UNL     1     -13.362  11.441  73.096  1.00  0.00     0.000 HD 
BRANCH  15  18
HETATM   18  C   UNL     1     -12.804   9.288  71.750  1.00  0.00    -0.382 C  
BRANCH  18  19
HETATM   19  O   UNL     1     -11.971   8.402  71.010  1.00  0.00    -0.287 OA 
BRANCH  19  20
HETATM   20  C   UNL     1     -11.268   7.482  71.751  1.00  0.00    -0.246 A  
HETATM   21  C   UNL     1     -11.123   7.528  73.150  1.00  0.00    -0.378 A  
HETATM   22  C   UNL     1     -10.421   6.545  73.840  1.00  0.00    -0.329 A  
HETATM   23  C   UNL     1      -9.835   5.474  73.167  1.00  0.00    -0.177 A  
HETATM   24  C   UNL     1      -9.974   5.437  71.774  1.00  0.00    -0.183 A  
HETATM   25  C   UNL     1     -10.666   6.409  71.050  1.00  0.00    -0.301 A  
HETATM   26  C   UNL     1     -10.577   6.048  69.664  1.00  0.00    -0.367 A  
HETATM   27  C   UNL     1     -11.045   6.629  68.466  1.00  0.00    -0.284 A  
HETATM   28  C   UNL     1     -10.785   6.002  67.243  1.00  0.00    -0.400 A  
HETATM   29  C   UNL     1     -10.069   4.808  67.201  1.00  0.00    -0.210 A  
HETATM   30  C   UNL     1      -9.589   4.212  68.372  1.00  0.00    -0.190 A  
HETATM   31  C   UNL     1      -9.857   4.860  69.585  1.00  0.00    -0.218 A  
HETATM   32  N   UNL     1      -9.506   4.515  70.866  1.00  0.00    -0.153 NA 
HETATM   33  H   UNL     1      -8.968   3.684  71.112  1.00  0.00     0.000 HD 
ENDBRANCH  19  20
ENDBRANCH  18  19
ENDBRANCH  15  18
ENDBRANCH  14  15
ENDBRANCH  12  14
ENDBRANCH  11  12
ENDBRANCH  10  11
ENDBRANCH   9  10
ENDBRANCH   8   9
ENDBRANCH   2   3
TORSDOF 10
ENDMDL
MODEL       93
REMARK 921   NORMALIZED FREE ENERGY PREDICTED BY IDOCK:   -5.72 KCAL/MOL
REMARK 922        TOTAL FREE ENERGY PREDICTED BY IDOCK:  -10.92 KCAL/MOL
REMARK 923 INTER-LIGAND FREE ENERGY PREDICTED BY IDOCK:   -9.33 KCAL/MOL
REMARK 924 INTRA-LIGAND FREE ENERGY PREDICTED BY IDOCK:   -1.59 KCAL/MOL
REMARK 927      BINDING AFFINITY PREDICTED BY RF-SCORE:    0.00 PKD
ROOT
HETATM    1  C   UNL     1      -7.201  13.492  68.600  1.00  0.00    -0.107 C  
HETATM    2  O   UNL     1      -8.211  12.940  67.759  1.00  0.00    -0.147 OA 
ENDROOT
BRANCH   2   3
HETATM    3  C   UNL     1      -8.485  11.607  67.934  1.00  0.00    -0.148 A  
HETATM    4  C   UNL     1      -7.900  10.875  68.981  1.00  0.00    -0.138 A  
HETATM    5  C   UNL     1      -8.222   9.533  69.184  1.00  0.00    -0.111 A  
HETATM    6  C   UNL     1      -9.110   8.896  68.329  1.00  0.00    -0.140 A  
HETATM    7  C   UNL     1      -9.658   9.598  67.256  1.00  0.00    -0.203 A  
HETATM    8  C   UNL     1      -9.348  10.949  67.037  1.00  0.00    -0.163 A  
BRANCH   8   9
HETATM    9  O   UNL     1      -9.993  11.451  65.932  1.00  0.00    -0.216 OA 
BRANCH   9  10
HETATM   10  C   UNL     1      -9.771  10.789  64.693  1.00  0.00    -0.289 C  
BRANCH  10  11
HETATM   11  C   UNL     1     -10.547  11.493  63.568  1.00  0.00    -0.423 C  
BRANCH  11  12
HETATM   12  N   UNL     1     -11.876  11.984  63.977  1.00  0.00    -0.405 NA 
HETATM   13  H   UNL     1     -11.952  12.037  64.993  1.00  0.00     0.000 HD 
BRANCH  12  14
HETATM   14  C   UNL     1     -12.215  13.279  63.348  1.00  0.00    -0.403 C  
BRANCH  14  15
HETATM   15  C   UNL     1     -11.910  14.479  64.270  1.00  0.00    -0.348 C  
HETATM   16  O   UNL     1     -12.565  15.646  63.764  1.00  0.00    -0.844 OA 
HETATM   17  H   UNL     1     -12.377  16.385  64.332  1.00  0.00     0.000 HD 
BRANCH  15  18
HETATM   18  C   UNL     1     -12.365  14.177  65.703  1.00  0.00    -0.456 C  
BRANCH  18  19
HETATM   19  O   UNL     1     -11.253  13.868  66.536  1.00  0.00    -0.310 OA 
BRANCH  19  20
HETATM   20  C   UNL     1     -11.439  14.072  67.883  1.00  0.00    -0.316 A  
HETATM   21  C   UNL     1     -11.902  13.093  68.781  1.00  0.00    -0.361 A  
HETATM   22  C   UNL     1     -12.038  13.361  70.140  1.00  0.00    -0.415 A  
HETATM   23  C   UNL     1     -11.719  14.613  70.662  1.00  0.00    -0.339 A  
HETATM   24  C   UNL     1     -11.267  15.587  69.763  1.00  0.00    -0.304 A  
HETATM   25  C   UNL     1     -11.124  15.355  68.394  1.00  0.00    -0.301 A  
HETATM   26  C   UNL     1     -10.664  16.579  67.803  1.00  0.00    -0.329 A  
HETATM   27  C   UNL     1     -10.359  16.978  66.484  1.00  0.00    -0.298 A  
HETATM   28  C   UNL     1      -9.916  18.283  66.239  1.00  0.00    -0.361 A  
HETATM   29  C   UNL     1      -9.773  19.187  67.288  1.00  0.00    -0.386 A  
HETATM   30  C   UNL     1     -10.072  18.820  68.604  1.00  0.00    -0.432 A  
HETATM   31  C   UNL     1     -10.519  17.511  68.826  1.00  0.00    -0.318 A  
HETATM   32  N   UNL     1     -10.888  16.891  69.992  1.00  0.00    -0.320 NA 
HETATM   33  H   UNL     1     -10.883  17.337  70.910  1.00  0.00     0.000 HD 
ENDBRANCH  19  20
ENDBRANCH  18  19
ENDBRANCH  15  18
ENDBRANCH  14  15
ENDBRANCH  12  14
ENDBRANCH  11  12
ENDBRANCH  10  11
ENDBRANCH   9  10
ENDBRANCH   8   9
ENDBRANCH   2   3
TORSDOF 10
ENDMDL
MODEL       94
REMARK 921   NORMALIZED FREE ENERGY PREDICTED BY IDOCK:   -5.72 KCAL/MOL
REMARK 922        TOTAL FREE ENERGY PREDICTED BY IDOCK:  -10.91 KCAL/MOL
REMARK 923 INTER-LIGAND FREE ENERGY PREDICTED BY IDOCK:   -9.11 KCAL/MOL
REMARK 924 INTRA-LIGAND FREE ENERGY PREDICTED BY IDOCK:   -1.80 KCAL/MOL
REMARK 927      BINDING AFFINITY PREDICTED BY RF-SCORE:    0.00 PKD
ROOT
HETATM    1  C   UNL     1     -10.483  15.018  69.077  1.00  0.00    -0.245 C  
HETATM    2  O   UNL     1     -11.801  14.661  69.488  1.00  0.00    -0.295 OA 
ENDROOT
BRANCH   2   3
HETATM    3  C   UNL     1     -12.113  14.903  70.802  1.00  0.00    -0.317 A  
HETATM    4  C   UNL     1     -11.709  16.086  71.441  1.00  0.00    -0.536 A  
HETATM    5  C   UNL     1     -12.073  16.348  72.762  1.00  0.00    -0.570 A  
HETATM    6  C   UNL     1     -12.821  15.419  73.472  1.00  0.00    -0.683 A  
HETATM    7  C   UNL     1     -13.185  14.218  72.865  1.00  0.00    -0.593 A  
HETATM    8  C   UNL     1     -12.830  13.938  71.537  1.00  0.00    -0.361 A  
BRANCH   8   9
HETATM    9  O   UNL     1     -13.287  12.707  71.132  1.00  0.00    -0.044 OA 
BRANCH   9  10
HETATM   10  C   UNL     1     -12.414  11.598  71.313  1.00  0.00    -0.266 C  
BRANCH  10  11
HETATM   11  C   UNL     1     -13.203  10.378  71.817  1.00  0.00    -0.424 C  
BRANCH  11  12
HETATM   12  N   UNL     1     -12.930   9.140  71.065  1.00  0.00    -0.527 NA 
HETATM   13  H   UNL     1     -12.842   9.327  70.066  1.00  0.00     0.000 HD 
BRANCH  12  14
HETATM   14  C   UNL     1     -11.744   8.421  71.579  1.00  0.00    -0.290 C  
BRANCH  14  15
HETATM   15  C   UNL     1     -11.054   7.571  70.489  1.00  0.00    -0.259 C  
HETATM   16  O   UNL     1     -11.964   6.574  70.017  1.00  0.00    -0.591 OA 
HETATM   17  H   UNL     1     -11.539   6.051  69.346  1.00  0.00     0.000 HD 
BRANCH  15  18
HETATM   18  C   UNL     1     -10.581   8.467  69.337  1.00  0.00    -0.197 C  
BRANCH  18  19
HETATM   19  O   UNL     1     -10.148   9.734  69.822  1.00  0.00    -0.208 OA 
BRANCH  19  20
HETATM   20  C   UNL     1      -8.918  10.157  69.378  1.00  0.00    -0.191 A  
HETATM   21  C   UNL     1      -7.688   9.729  69.910  1.00  0.00    -0.162 A  
HETATM   22  C   UNL     1      -6.477  10.176  69.390  1.00  0.00    -0.050 A  
HETATM   23  C   UNL     1      -6.440  11.068  68.320  1.00  0.00    -0.057 A  
HETATM   24  C   UNL     1      -7.666  11.498  67.799  1.00  0.00    -0.124 A  
HETATM   25  C   UNL     1      -8.899  11.074  68.299  1.00  0.00    -0.144 A  
HETATM   26  C   UNL     1      -9.916  11.737  67.535  1.00  0.00    -0.204 A  
HETATM   27  C   UNL     1     -11.328  11.738  67.572  1.00  0.00    -0.377 A  
HETATM   28  C   UNL     1     -12.045  12.514  66.655  1.00  0.00    -0.212 A  
HETATM   29  C   UNL     1     -11.375  13.284  65.707  1.00  0.00    -0.328 A  
HETATM   30  C   UNL     1      -9.978  13.305  65.650  1.00  0.00    -0.242 A  
HETATM   31  C   UNL     1      -9.279  12.524  66.581  1.00  0.00    -0.223 A  
HETATM   32  N   UNL     1      -7.929  12.364  66.762  1.00  0.00    -0.394 NA 
HETATM   33  H   UNL     1      -7.213  12.825  66.200  1.00  0.00     0.000 HD 
ENDBRANCH  19  20
ENDBRANCH  18  19
ENDBRANCH  15  18
ENDBRANCH  14  15
ENDBRANCH  12  14
ENDBRANCH  11  12
ENDBRANCH  10  11
ENDBRANCH   9  10
ENDBRANCH   8   9
ENDBRANCH   2   3
TORSDOF 10
ENDMDL
MODEL       95
REMARK 921   NORMALIZED FREE ENERGY PREDICTED BY IDOCK:   -5.72 KCAL/MOL
REMARK 922        TOTAL FREE ENERGY PREDICTED BY IDOCK:  -10.91 KCAL/MOL
REMARK 923 INTER-LIGAND FREE ENERGY PREDICTED BY IDOCK:   -8.39 KCAL/MOL
REMARK 924 INTRA-LIGAND FREE ENERGY PREDICTED BY IDOCK:   -2.52 KCAL/MOL
REMARK 927      BINDING AFFINITY PREDICTED BY RF-SCORE:    0.00 PKD
ROOT
HETATM    1  C   UNL     1      -8.726  10.240  63.436  1.00  0.00    -0.206 C  
HETATM    2  O   UNL     1      -8.508  10.985  64.632  1.00  0.00    -0.008 OA 
ENDROOT
BRANCH   2   3
HETATM    3  C   UNL     1      -8.872  10.371  65.803  1.00  0.00    -0.170 A  
HETATM    4  C   UNL     1      -9.598   9.168  65.802  1.00  0.00    -0.323 A  
HETATM    5  C   UNL     1      -9.920   8.523  66.995  1.00  0.00    -0.318 A  
HETATM    6  C   UNL     1      -9.546   9.083  68.209  1.00  0.00    -0.158 A  
HETATM    7  C   UNL     1      -8.871  10.302  68.226  1.00  0.00    -0.126 A  
HETATM    8  C   UNL     1      -8.535  10.965  67.036  1.00  0.00    -0.134 A  
BRANCH   8   9
HETATM    9  O   UNL     1      -7.872  12.145  67.274  1.00  0.00    -0.160 OA 
BRANCH   9  10
HETATM   10  C   UNL     1      -8.396  12.992  68.289  1.00  0.00    -0.158 C  
BRANCH  10  11
HETATM   11  C   UNL     1      -7.849  14.420  68.123  1.00  0.00    -0.138 C  
BRANCH  11  12
HETATM   12  N   UNL     1      -8.885  15.423  67.817  1.00  0.00    -0.167 NA 
HETATM   13  H   UNL     1      -9.821  15.035  67.939  1.00  0.00     0.000 HD 
BRANCH  12  14
HETATM   14  C   UNL     1      -8.715  16.664  68.604  1.00  0.00    -0.250 C  
BRANCH  14  15
HETATM   15  C   UNL     1     -10.053  17.399  68.839  1.00  0.00    -0.330 C  
HETATM   16  O   UNL     1     -10.669  17.679  67.578  1.00  0.00    -0.358 OA 
HETATM   17  H   UNL     1     -11.492  18.131  67.723  1.00  0.00     0.000 HD 
BRANCH  15  18
HETATM   18  C   UNL     1     -10.978  16.550  69.720  1.00  0.00    -0.292 C  
BRANCH  18  19
HETATM   19  O   UNL     1     -11.867  15.773  68.924  1.00  0.00    -0.393 OA 
BRANCH  19  20
HETATM   20  C   UNL     1     -11.929  14.434  69.229  1.00  0.00    -0.324 A  
HETATM   21  C   UNL     1     -12.001  13.916  70.535  1.00  0.00    -0.384 A  
HETATM   22  C   UNL     1     -12.091  12.548  70.769  1.00  0.00    -0.240 A  
HETATM   23  C   UNL     1     -12.115  11.637  69.714  1.00  0.00    -0.357 A  
HETATM   24  C   UNL     1     -12.034  12.157  68.416  1.00  0.00    -0.198 A  
HETATM   25  C   UNL     1     -11.937  13.523  68.145  1.00  0.00    -0.376 A  
HETATM   26  C   UNL     1     -11.854  13.666  66.720  1.00  0.00    -0.452 A  
HETATM   27  C   UNL     1     -11.722  14.771  65.850  1.00  0.00    -0.248 A  
HETATM   28  C   UNL     1     -11.676  14.564  64.468  1.00  0.00    -0.421 A  
HETATM   29  C   UNL     1     -11.760  13.275  63.945  1.00  0.00    -0.486 A  
HETATM   30  C   UNL     1     -11.887  12.163  64.782  1.00  0.00    -0.385 A  
HETATM   31  C   UNL     1     -11.926  12.393  66.164  1.00  0.00    -0.327 A  
HETATM   32  N   UNL     1     -12.033  11.505  67.204  1.00  0.00    -0.499 NA 
HETATM   33  H   UNL     1     -12.103  10.493  67.093  1.00  0.00     0.000 HD 
ENDBRANCH  19  20
ENDBRANCH  18  19
ENDBRANCH  15  18
ENDBRANCH  14  15
ENDBRANCH  12  14
ENDBRANCH  11  12
ENDBRANCH  10  11
ENDBRANCH   9  10
ENDBRANCH   8   9
ENDBRANCH   2   3
TORSDOF 10
ENDMDL
MODEL       96
REMARK 921   NORMALIZED FREE ENERGY PREDICTED BY IDOCK:   -5.72 KCAL/MOL
REMARK 922        TOTAL FREE ENERGY PREDICTED BY IDOCK:  -10.91 KCAL/MOL
REMARK 923 INTER-LIGAND FREE ENERGY PREDICTED BY IDOCK:   -9.11 KCAL/MOL
REMARK 924 INTRA-LIGAND FREE ENERGY PREDICTED BY IDOCK:   -1.80 KCAL/MOL
REMARK 927      BINDING AFFINITY PREDICTED BY RF-SCORE:    0.00 PKD
ROOT
HETATM    1  C   UNL     1     -10.458   5.720  69.155  1.00  0.00    -0.276 C  
HETATM    2  O   UNL     1      -9.318   5.697  70.012  1.00  0.00    -0.143 OA 
ENDROOT
BRANCH   2   3
HETATM    3  C   UNL     1      -9.466   6.304  71.234  1.00  0.00    -0.159 A  
HETATM    4  C   UNL     1     -10.266   5.735  72.239  1.00  0.00    -0.233 A  
HETATM    5  C   UNL     1     -10.371   6.331  73.495  1.00  0.00    -0.269 A  
HETATM    6  C   UNL     1      -9.701   7.518  73.757  1.00  0.00    -0.303 A  
HETATM    7  C   UNL     1      -8.945   8.119  72.753  1.00  0.00    -0.313 A  
HETATM    8  C   UNL     1      -8.825   7.534  71.483  1.00  0.00    -0.124 A  
BRANCH   8   9
HETATM    9  O   UNL     1      -8.037   8.284  70.644  1.00  0.00    -0.100 OA 
BRANCH   9  10
HETATM   10  C   UNL     1      -6.768   8.694  71.137  1.00  0.00    -0.068 C  
BRANCH  10  11
HETATM   11  C   UNL     1      -6.278   9.938  70.376  1.00  0.00    -0.094 C  
BRANCH  11  12
HETATM   12  N   UNL     1      -7.362  10.848  69.963  1.00  0.00    -0.426 NA 
HETATM   13  H   UNL     1      -7.526  11.569  70.666  1.00  0.00     0.000 HD 
BRANCH  12  14
HETATM   14  C   UNL     1      -7.117  11.445  68.632  1.00  0.00    -0.095 C  
BRANCH  14  15
HETATM   15  C   UNL     1      -8.394  12.062  68.021  1.00  0.00    -0.162 C  
HETATM   16  O   UNL     1      -8.176  12.325  66.631  1.00  0.00    -0.360 OA 
HETATM   17  H   UNL     1      -8.962  12.704  66.255  1.00  0.00     0.000 HD 
BRANCH  15  18
HETATM   18  C   UNL     1      -9.587  11.117  68.216  1.00  0.00    -0.185 C  
BRANCH  18  19
HETATM   19  O   UNL     1     -10.659  11.782  68.877  1.00  0.00    -0.212 OA 
BRANCH  19  20
HETATM   20  C   UNL     1     -11.342  11.035  69.808  1.00  0.00    -0.292 A  
HETATM   21  C   UNL     1     -11.254   9.636  69.928  1.00  0.00    -0.244 A  
HETATM   22  C   UNL     1     -11.953   8.947  70.914  1.00  0.00    -0.254 A  
HETATM   23  C   UNL     1     -12.767   9.620  71.823  1.00  0.00    -0.510 A  
HETATM   24  C   UNL     1     -12.858  11.012  71.695  1.00  0.00    -0.435 A  
HETATM   25  C   UNL     1     -12.177  11.734  70.714  1.00  0.00    -0.424 A  
HETATM   26  C   UNL     1     -12.531  13.115  70.882  1.00  0.00    -0.407 A  
HETATM   27  C   UNL     1     -12.192  14.305  70.202  1.00  0.00    -0.407 A  
HETATM   28  C   UNL     1     -12.720  15.525  70.636  1.00  0.00    -0.487 A  
HETATM   29  C   UNL     1     -13.576  15.573  71.734  1.00  0.00    -0.578 A  
HETATM   30  C   UNL     1     -13.932  14.409  72.423  1.00  0.00    -0.585 A  
HETATM   31  C   UNL     1     -13.395  13.197  71.969  1.00  0.00    -0.493 A  
HETATM   32  N   UNL     1     -13.576  11.921  72.438  1.00  0.00    -0.470 NA 
HETATM   33  H   UNL     1     -14.167  11.677  73.234  1.00  0.00     0.000 HD 
ENDBRANCH  19  20
ENDBRANCH  18  19
ENDBRANCH  15  18
ENDBRANCH  14  15
ENDBRANCH  12  14
ENDBRANCH  11  12
ENDBRANCH  10  11
ENDBRANCH   9  10
ENDBRANCH   8   9
ENDBRANCH   2   3
TORSDOF 10
ENDMDL
MODEL       97
REMARK 921   NORMALIZED FREE ENERGY PREDICTED BY IDOCK:   -5.69 KCAL/MOL
REMARK 922        TOTAL FREE ENERGY PREDICTED BY IDOCK:  -10.87 KCAL/MOL
REMARK 923 INTER-LIGAND FREE ENERGY PREDICTED BY IDOCK:   -8.91 KCAL/MOL
REMARK 924 INTRA-LIGAND FREE ENERGY PREDICTED BY IDOCK:   -1.95 KCAL/MOL
REMARK 927      BINDING AFFINITY PREDICTED BY RF-SCORE:    0.00 PKD
ROOT
HETATM    1  C   UNL     1     -11.899   6.682  71.074  1.00  0.00    -0.372 C  
HETATM    2  O   UNL     1     -11.236   7.932  71.252  1.00  0.00    -0.247 OA 
ENDROOT
BRANCH   2   3
HETATM    3  C   UNL     1     -11.103   8.712  70.132  1.00  0.00    -0.192 A  
HETATM    4  C   UNL     1     -10.523   8.208  68.956  1.00  0.00    -0.211 A  
HETATM    5  C   UNL     1     -10.438   8.991  67.805  1.00  0.00    -0.305 A  
HETATM    6  C   UNL     1     -10.905  10.298  67.820  1.00  0.00    -0.346 A  
HETATM    7  C   UNL     1     -11.436  10.827  68.996  1.00  0.00    -0.368 A  
HETATM    8  C   UNL     1     -11.533  10.054  70.162  1.00  0.00    -0.277 A  
BRANCH   8   9
HETATM    9  O   UNL     1     -12.085  10.761  71.203  1.00  0.00    -0.341 OA 
BRANCH   9  10
HETATM   10  C   UNL     1     -12.556  12.073  70.921  1.00  0.00    -0.253 C  
BRANCH  10  11
HETATM   11  C   UNL     1     -13.421  12.588  72.083  1.00  0.00    -0.422 C  
BRANCH  11  12
HETATM   12  N   UNL     1     -13.519  14.058  72.146  1.00  0.00    -0.429 NA 
HETATM   13  H   UNL     1     -13.059  14.423  72.981  1.00  0.00     0.000 HD 
BRANCH  12  14
HETATM   14  C   UNL     1     -12.999  14.709  70.924  1.00  0.00    -0.365 C  
BRANCH  14  15
HETATM   15  C   UNL     1     -12.257  16.028  71.230  1.00  0.00    -0.350 C  
HETATM   16  O   UNL     1     -11.712  15.971  72.551  1.00  0.00    -0.463 OA 
HETATM   17  H   UNL     1     -11.255  16.783  72.739  1.00  0.00     0.000 HD 
BRANCH  15  18
HETATM   18  C   UNL     1     -11.151  16.268  70.194  1.00  0.00    -0.341 C  
BRANCH  18  19
HETATM   19  O   UNL     1     -11.125  15.225  69.226  1.00  0.00    -0.244 OA 
BRANCH  19  20
HETATM   20  C   UNL     1      -9.877  14.788  68.851  1.00  0.00    -0.222 A  
HETATM   21  C   UNL     1      -8.705  14.978  69.606  1.00  0.00     0.011 A  
HETATM   22  C   UNL     1      -7.478  14.482  69.178  1.00  0.00    -0.118 A  
HETATM   23  C   UNL     1      -7.364  13.775  67.982  1.00  0.00    -0.134 A  
HETATM   24  C   UNL     1      -8.531  13.596  67.229  1.00  0.00    -0.194 A  
HETATM   25  C   UNL     1      -9.778  14.085  67.625  1.00  0.00    -0.228 A  
HETATM   26  C   UNL     1     -10.717  13.728  66.601  1.00  0.00    -0.277 A  
HETATM   27  C   UNL     1     -12.099  13.950  66.415  1.00  0.00    -0.489 A  
HETATM   28  C   UNL     1     -12.735  13.448  65.275  1.00  0.00    -0.481 A  
HETATM   29  C   UNL     1     -12.013  12.731  64.323  1.00  0.00    -0.473 A  
HETATM   30  C   UNL     1     -10.643  12.500  64.479  1.00  0.00    -0.363 A  
HETATM   31  C   UNL     1     -10.025  13.015  65.626  1.00  0.00    -0.230 A  
HETATM   32  N   UNL     1      -8.715  12.951  66.027  1.00  0.00    -0.188 NA 
HETATM   33  H   UNL     1      -7.973  12.487  65.503  1.00  0.00     0.000 HD 
ENDBRANCH  19  20
ENDBRANCH  18  19
ENDBRANCH  15  18
ENDBRANCH  14  15
ENDBRANCH  12  14
ENDBRANCH  11  12
ENDBRANCH  10  11
ENDBRANCH   9  10
ENDBRANCH   8   9
ENDBRANCH   2   3
TORSDOF 10
ENDMDL
MODEL       98
REMARK 921   NORMALIZED FREE ENERGY PREDICTED BY IDOCK:   -5.69 KCAL/MOL
REMARK 922        TOTAL FREE ENERGY PREDICTED BY IDOCK:  -10.86 KCAL/MOL
REMARK 923 INTER-LIGAND FREE ENERGY PREDICTED BY IDOCK:   -8.94 KCAL/MOL
REMARK 924 INTRA-LIGAND FREE ENERGY PREDICTED BY IDOCK:   -1.92 KCAL/MOL
REMARK 927      BINDING AFFINITY PREDICTED BY RF-SCORE:    0.00 PKD
ROOT
HETATM    1  C   UNL     1      -7.133  15.471  67.784  1.00  0.00    -0.159 C  
HETATM    2  O   UNL     1      -7.760  14.270  67.338  1.00  0.00    -0.177 OA 
ENDROOT
BRANCH   2   3
HETATM    3  C   UNL     1      -7.145  13.097  67.693  1.00  0.00    -0.160 A  
HETATM    4  C   UNL     1      -5.836  13.084  68.202  1.00  0.00    -0.093 A  
HETATM    5  C   UNL     1      -5.236  11.893  68.609  1.00  0.00    -0.049 A  
HETATM    6  C   UNL     1      -5.924  10.693  68.487  1.00  0.00    -0.039 A  
HETATM    7  C   UNL     1      -7.204  10.686  67.936  1.00  0.00    -0.087 A  
HETATM    8  C   UNL     1      -7.825  11.874  67.524  1.00  0.00    -0.152 A  
BRANCH   8   9
HETATM    9  O   UNL     1      -9.081  11.648  67.012  1.00  0.00    -0.170 OA 
BRANCH   9  10
HETATM   10  C   UNL     1      -9.171  10.846  65.841  1.00  0.00    -0.191 C  
BRANCH  10  11
HETATM   11  C   UNL     1     -10.570  10.974  65.216  1.00  0.00    -0.214 C  
BRANCH  11  12
HETATM   12  N   UNL     1     -11.527  11.728  66.047  1.00  0.00    -0.359 NA 
HETATM   13  H   UNL     1     -11.047  12.248  66.782  1.00  0.00     0.000 HD 
BRANCH  12  14
HETATM   14  C   UNL     1     -12.392  12.617  65.242  1.00  0.00    -0.466 C  
BRANCH  14  15
HETATM   15  C   UNL     1     -11.607  13.358  64.138  1.00  0.00    -0.398 C  
HETATM   16  O   UNL     1     -12.517  13.808  63.128  1.00  0.00    -1.089 OA 
HETATM   17  H   UNL     1     -12.034  14.264  62.449  1.00  0.00     0.000 HD 
BRANCH  15  18
HETATM   18  C   UNL     1     -10.833  14.539  64.738  1.00  0.00    -0.393 C  
BRANCH  18  19
HETATM   19  O   UNL     1     -10.941  14.548  66.157  1.00  0.00    -0.310 OA 
BRANCH  19  20
HETATM   20  C   UNL     1     -10.716  15.760  66.766  1.00  0.00    -0.293 A  
HETATM   21  C   UNL     1     -10.213  16.900  66.112  1.00  0.00    -0.352 A  
HETATM   22  C   UNL     1     -10.037  18.105  66.785  1.00  0.00    -0.367 A  
HETATM   23  C   UNL     1     -10.355  18.227  68.137  1.00  0.00    -0.393 A  
HETATM   24  C   UNL     1     -10.847  17.088  68.786  1.00  0.00    -0.258 A  
HETATM   25  C   UNL     1     -11.029  15.862  68.143  1.00  0.00    -0.335 A  
HETATM   26  C   UNL     1     -11.522  14.939  69.125  1.00  0.00    -0.324 A  
HETATM   27  C   UNL     1     -11.873  13.571  69.098  1.00  0.00    -0.386 A  
HETATM   28  C   UNL     1     -12.340  12.952  70.263  1.00  0.00    -0.294 A  
HETATM   29  C   UNL     1     -12.461  13.677  71.446  1.00  0.00    -0.374 A  
HETATM   30  C   UNL     1     -12.116  15.031  71.503  1.00  0.00    -0.403 A  
HETATM   31  C   UNL     1     -11.647  15.630  70.326  1.00  0.00    -0.356 A  
HETATM   32  N   UNL     1     -11.234  16.917  70.096  1.00  0.00    -0.301 NA 
HETATM   33  H   UNL     1     -11.216  17.653  70.803  1.00  0.00     0.000 HD 
ENDBRANCH  19  20
ENDBRANCH  18  19
ENDBRANCH  15  18
ENDBRANCH  14  15
ENDBRANCH  12  14
ENDBRANCH  11  12
ENDBRANCH  10  11
ENDBRANCH   9  10
ENDBRANCH   8   9
ENDBRANCH   2   3
TORSDOF 10
ENDMDL
MODEL       99
REMARK 921   NORMALIZED FREE ENERGY PREDICTED BY IDOCK:   -5.69 KCAL/MOL
REMARK 922        TOTAL FREE ENERGY PREDICTED BY IDOCK:  -10.86 KCAL/MOL
REMARK 923 INTER-LIGAND FREE ENERGY PREDICTED BY IDOCK:   -9.95 KCAL/MOL
REMARK 924 INTRA-LIGAND FREE ENERGY PREDICTED BY IDOCK:   -0.91 KCAL/MOL
REMARK 927      BINDING AFFINITY PREDICTED BY RF-SCORE:    0.00 PKD
ROOT
HETATM    1  C   UNL     1      -8.510   5.922  65.942  1.00  0.00    -0.141 C  
HETATM    2  O   UNL     1      -8.787   6.102  67.329  1.00  0.00    -0.109 OA 
ENDROOT
BRANCH   2   3
HETATM    3  C   UNL     1      -9.044   4.963  68.049  1.00  0.00    -0.114 A  
HETATM    4  C   UNL     1      -8.954   3.691  67.459  1.00  0.00    -0.164 A  
HETATM    5  C   UNL     1      -9.167   2.535  68.209  1.00  0.00    -0.255 A  
HETATM    6  C   UNL     1      -9.500   2.633  69.553  1.00  0.00    -0.134 A  
HETATM    7  C   UNL     1      -9.642   3.890  70.138  1.00  0.00    -0.267 A  
HETATM    8  C   UNL     1      -9.429   5.064  69.400  1.00  0.00    -0.144 A  
BRANCH   8   9
HETATM    9  O   UNL     1      -9.618   6.192  70.163  1.00  0.00    -0.159 OA 
BRANCH   9  10
HETATM   10  C   UNL     1     -10.925   6.419  70.675  1.00  0.00    -0.298 C  
BRANCH  10  11
HETATM   11  C   UNL     1     -10.871   6.621  72.199  1.00  0.00    -0.229 C  
BRANCH  11  12
HETATM   12  N   UNL     1     -12.093   7.220  72.764  1.00  0.00    -0.519 NA 
HETATM   13  H   UNL     1     -11.876   8.052  73.314  1.00  0.00     0.000 HD 
BRANCH  12  14
HETATM   14  C   UNL     1     -13.105   7.516  71.727  1.00  0.00    -0.322 C  
BRANCH  14  15
HETATM   15  C   UNL     1     -13.717   8.925  71.886  1.00  0.00    -0.439 C  
HETATM   16  O   UNL     1     -14.196   9.086  73.225  1.00  0.00    -1.192 OA 
HETATM   17  H   UNL     1     -14.572   9.953  73.323  1.00  0.00     0.000 HD 
BRANCH  15  18
HETATM   18  C   UNL     1     -12.675   9.998  71.548  1.00  0.00    -0.429 C  
BRANCH  18  19
HETATM   19  O   UNL     1     -13.139  10.846  70.503  1.00  0.00    -0.210 OA 
BRANCH  19  20
HETATM   20  C   UNL     1     -12.166  11.413  69.716  1.00  0.00    -0.265 A  
HETATM   21  C   UNL     1     -11.505  10.752  68.664  1.00  0.00    -0.365 A  
HETATM   22  C   UNL     1     -10.549  11.398  67.887  1.00  0.00    -0.224 A  
HETATM   23  C   UNL     1     -10.210  12.729  68.123  1.00  0.00    -0.241 A  
HETATM   24  C   UNL     1     -10.863  13.381  69.176  1.00  0.00    -0.114 A  
HETATM   25  C   UNL     1     -11.822  12.762  69.979  1.00  0.00    -0.352 A  
HETATM   26  C   UNL     1     -12.246  13.727  70.952  1.00  0.00    -0.427 A  
HETATM   27  C   UNL     1     -13.159  13.700  72.029  1.00  0.00    -0.484 A  
HETATM   28  C   UNL     1     -13.351  14.849  72.804  1.00  0.00    -0.576 A  
HETATM   29  C   UNL     1     -12.647  16.017  72.520  1.00  0.00    -0.535 A  
HETATM   30  C   UNL     1     -11.733  16.071  71.463  1.00  0.00    -0.554 A  
HETATM   31  C   UNL     1     -11.553  14.908  70.702  1.00  0.00    -0.291 A  
HETATM   32  N   UNL     1     -10.729  14.673  69.632  1.00  0.00    -0.396 NA 
HETATM   33  H   UNL     1     -10.099  15.365  69.226  1.00  0.00     0.000 HD 
ENDBRANCH  19  20
ENDBRANCH  18  19
ENDBRANCH  15  18
ENDBRANCH  14  15
ENDBRANCH  12  14
ENDBRANCH  11  12
ENDBRANCH  10  11
ENDBRANCH   9  10
ENDBRANCH   8   9
ENDBRANCH   2   3
TORSDOF 10
ENDMDL
MODEL      100
REMARK 921   NORMALIZED FREE ENERGY PREDICTED BY IDOCK:   -5.68 KCAL/MOL
REMARK 922        TOTAL FREE ENERGY PREDICTED BY IDOCK:  -10.85 KCAL/MOL
REMARK 923 INTER-LIGAND FREE ENERGY PREDICTED BY IDOCK:   -9.06 KCAL/MOL
REMARK 924 INTRA-LIGAND FREE ENERGY PREDICTED BY IDOCK:   -1.79 KCAL/MOL
REMARK 927      BINDING AFFINITY PREDICTED BY RF-SCORE:    0.00 PKD
ROOT
HETATM    1  C   UNL     1     -11.823  15.984  64.122  1.00  0.00     0.114 C  
HETATM    2  O   UNL     1     -12.712  14.870  64.175  1.00  0.00    -0.750 OA 
ENDROOT
BRANCH   2   3
HETATM    3  C   UNL     1     -12.135  13.646  64.398  1.00  0.00    -0.427 A  
HETATM    4  C   UNL     1     -11.803  12.791  63.334  1.00  0.00    -0.591 A  
HETATM    5  C   UNL     1     -11.170  11.570  63.564  1.00  0.00    -0.412 A  
HETATM    6  C   UNL     1     -10.885  11.172  64.864  1.00  0.00    -0.261 A  
HETATM    7  C   UNL     1     -11.256  11.987  65.931  1.00  0.00    -0.385 A  
HETATM    8  C   UNL     1     -11.890  13.220  65.719  1.00  0.00    -0.387 A  
BRANCH   8   9
HETATM    9  O   UNL     1     -12.167  13.866  66.900  1.00  0.00    -0.424 OA 
BRANCH   9  10
HETATM   10  C   UNL     1     -11.182  14.764  67.396  1.00  0.00    -0.339 C  
BRANCH  10  11
HETATM   11  C   UNL     1     -10.834  14.417  68.854  1.00  0.00    -0.256 C  
BRANCH  11  12
HETATM   12  N   UNL     1      -9.615  13.600  68.998  1.00  0.00    -0.398 NA 
HETATM   13  H   UNL     1      -9.844  12.611  69.101  1.00  0.00     0.000 HD 
BRANCH  12  14
HETATM   14  C   UNL     1      -8.662  13.814  67.887  1.00  0.00    -0.183 C  
BRANCH  14  15
HETATM   15  C   UNL     1      -8.025  12.496  67.397  1.00  0.00    -0.180 C  
HETATM   16  O   UNL     1      -6.673  12.741  66.997  1.00  0.00    -0.382 OA 
HETATM   17  H   UNL     1      -6.281  11.930  66.696  1.00  0.00     0.000 HD 
BRANCH  15  18
HETATM   18  C   UNL     1      -8.082  11.434  68.503  1.00  0.00    -0.149 C  
BRANCH  18  19
HETATM   19  O   UNL     1      -9.374  10.841  68.571  1.00  0.00    -0.159 OA 
BRANCH  19  20
HETATM   20  C   UNL     1      -9.466   9.551  68.104  1.00  0.00    -0.133 A  
HETATM   21  C   UNL     1      -8.799   9.067  66.963  1.00  0.00    -0.131 A  
HETATM   22  C   UNL     1      -8.915   7.739  66.564  1.00  0.00    -0.191 A  
HETATM   23  C   UNL     1      -9.697   6.837  67.283  1.00  0.00    -0.175 A  
HETATM   24  C   UNL     1     -10.365   7.325  68.413  1.00  0.00    -0.185 A  
HETATM   25  C   UNL     1     -10.277   8.652  68.838  1.00  0.00    -0.221 A  
HETATM   26  C   UNL     1     -11.106   8.779  70.003  1.00  0.00    -0.169 A  
HETATM   27  C   UNL     1     -11.440   9.851  70.858  1.00  0.00    -0.456 A  
HETATM   28  C   UNL     1     -12.297   9.633  71.942  1.00  0.00    -0.437 A  
HETATM   29  C   UNL     1     -12.821   8.365  72.182  1.00  0.00    -0.385 A  
HETATM   30  C   UNL     1     -12.511   7.286  71.348  1.00  0.00    -0.418 A  
HETATM   31  C   UNL     1     -11.654   7.527  70.266  1.00  0.00    -0.091 A  
HETATM   32  N   UNL     1     -11.195   6.673  69.297  1.00  0.00    -0.502 NA 
HETATM   33  H   UNL     1     -11.436   5.684  69.238  1.00  0.00     0.000 HD 
ENDBRANCH  19  20
ENDBRANCH  18  19
ENDBRANCH  15  18
ENDBRANCH  14  15
ENDBRANCH  12  14
ENDBRANCH  11  12
ENDBRANCH  10  11
ENDBRANCH   9  10
ENDBRANCH   8   9
ENDBRANCH   2   3
TORSDOF 10
ENDMDL
MODEL      101
REMARK 921   NORMALIZED FREE ENERGY PREDICTED BY IDOCK:   -5.68 KCAL/MOL
REMARK 922        TOTAL FREE ENERGY PREDICTED BY IDOCK:  -10.84 KCAL/MOL
REMARK 923 INTER-LIGAND FREE ENERGY PREDICTED BY IDOCK:   -8.41 KCAL/MOL
REMARK 924 INTRA-LIGAND FREE ENERGY PREDICTED BY IDOCK:   -2.43 KCAL/MOL
REMARK 927      BINDING AFFINITY PREDICTED BY RF-SCORE:    0.00 PKD
ROOT
HETATM    1  C   UNL     1     -10.699   7.924  67.147  1.00  0.00    -0.236 C  
HETATM    2  O   UNL     1     -10.568   9.157  66.442  1.00  0.00    -0.144 OA 
ENDROOT
BRANCH   2   3
HETATM    3  C   UNL     1      -9.509   9.250  65.575  1.00  0.00    -0.240 A  
HETATM    4  C   UNL     1      -8.518   8.255  65.524  1.00  0.00    -0.177 A  
HETATM    5  C   UNL     1      -7.472   8.331  64.605  1.00  0.00    -0.099 A  
HETATM    6  C   UNL     1      -7.385   9.415  63.742  1.00  0.00    -0.108 A  
HETATM    7  C   UNL     1      -8.333  10.434  63.818  1.00  0.00    -0.149 A  
HETATM    8  C   UNL     1      -9.394  10.374  64.734  1.00  0.00    -0.251 A  
BRANCH   8   9
HETATM    9  O   UNL     1     -10.214  11.474  64.643  1.00  0.00    -0.252 OA 
BRANCH   9  10
HETATM   10  C   UNL     1     -11.186  11.476  63.606  1.00  0.00    -0.362 C  
BRANCH  10  11
HETATM   11  C   UNL     1     -12.377  12.369  63.996  1.00  0.00    -0.488 C  
BRANCH  11  12
HETATM   12  N   UNL     1     -12.449  12.669  65.437  1.00  0.00    -0.655 NA 
HETATM   13  H   UNL     1     -11.624  12.324  65.928  1.00  0.00     0.000 HD 
BRANCH  12  14
HETATM   14  C   UNL     1     -12.662  14.109  65.701  1.00  0.00    -0.441 C  
BRANCH  14  15
HETATM   15  C   UNL     1     -11.760  14.639  66.837  1.00  0.00    -0.350 C  
HETATM   16  O   UNL     1     -12.487  14.620  68.069  1.00  0.00    -0.595 OA 
HETATM   17  H   UNL     1     -11.931  14.946  68.768  1.00  0.00     0.000 HD 
BRANCH  15  18
HETATM   18  C   UNL     1     -10.486  13.791  66.943  1.00  0.00    -0.272 C  
BRANCH  18  19
HETATM   19  O   UNL     1     -10.630  12.779  67.934  1.00  0.00    -0.212 OA 
BRANCH  19  20
HETATM   20  C   UNL     1      -9.537  11.968  68.123  1.00  0.00    -0.200 A  
HETATM   21  C   UNL     1      -8.301  12.128  67.469  1.00  0.00    -0.166 A  
HETATM   22  C   UNL     1      -7.226  11.286  67.732  1.00  0.00    -0.088 A  
HETATM   23  C   UNL     1      -7.333  10.249  68.658  1.00  0.00    -0.083 A  
HETATM   24  C   UNL     1      -8.567  10.088  69.300  1.00  0.00    -0.168 A  
HETATM   25  C   UNL     1      -9.668  10.910  69.056  1.00  0.00    -0.181 A  
HETATM   26  C   UNL     1     -10.744  10.430  69.874  1.00  0.00    -0.331 A  
HETATM   27  C   UNL     1     -12.089  10.820  70.056  1.00  0.00    -0.423 A  
HETATM   28  C   UNL     1     -12.896  10.124  70.963  1.00  0.00    -0.474 A  
HETATM   29  C   UNL     1     -12.381   9.052  71.687  1.00  0.00    -0.416 A  
HETATM   30  C   UNL     1     -11.054   8.641  71.524  1.00  0.00    -0.358 A  
HETATM   31  C   UNL     1     -10.265   9.348  70.607  1.00  0.00    -0.288 A  
HETATM   32  N   UNL     1      -8.956   9.163  70.243  1.00  0.00    -0.197 NA 
HETATM   33  H   UNL     1      -8.349   8.435  70.622  1.00  0.00     0.000 HD 
ENDBRANCH  19  20
ENDBRANCH  18  19
ENDBRANCH  15  18
ENDBRANCH  14  15
ENDBRANCH  12  14
ENDBRANCH  11  12
ENDBRANCH  10  11
ENDBRANCH   9  10
ENDBRANCH   8   9
ENDBRANCH   2   3
TORSDOF 10
ENDMDL
MODEL      102
REMARK 921   NORMALIZED FREE ENERGY PREDICTED BY IDOCK:   -5.64 KCAL/MOL
REMARK 922        TOTAL FREE ENERGY PREDICTED BY IDOCK:  -10.78 KCAL/MOL
REMARK 923 INTER-LIGAND FREE ENERGY PREDICTED BY IDOCK:   -9.71 KCAL/MOL
REMARK 924 INTRA-LIGAND FREE ENERGY PREDICTED BY IDOCK:   -1.07 KCAL/MOL
REMARK 927      BINDING AFFINITY PREDICTED BY RF-SCORE:    0.00 PKD
ROOT
HETATM    1  C   UNL     1     -10.164  19.984  66.439  1.00  0.00    -0.478 C  
HETATM    2  O   UNL     1     -10.814  18.788  66.866  1.00  0.00    -0.379 OA 
ENDROOT
BRANCH   2   3
HETATM    3  C   UNL     1     -10.004  17.703  67.084  1.00  0.00    -0.316 A  
HETATM    4  C   UNL     1      -9.126  17.657  68.180  1.00  0.00    -0.276 A  
HETATM    5  C   UNL     1      -8.343  16.530  68.425  1.00  0.00    -0.200 A  
HETATM    6  C   UNL     1      -8.404  15.442  67.563  1.00  0.00    -0.190 A  
HETATM    7  C   UNL     1      -9.234  15.496  66.444  1.00  0.00    -0.339 A  
HETATM    8  C   UNL     1     -10.031  16.620  66.183  1.00  0.00    -0.337 A  
BRANCH   8   9
HETATM    9  O   UNL     1     -10.773  16.469  65.036  1.00  0.00    -0.662 OA 
BRANCH   9  10
HETATM   10  C   UNL     1     -11.018  15.141  64.591  1.00  0.00    -0.303 C  
BRANCH  10  11
HETATM   11  C   UNL     1     -12.531  14.863  64.556  1.00  0.00    -0.206 C  
BRANCH  11  12
HETATM   12  N   UNL     1     -13.030  14.137  65.739  1.00  0.00    -0.546 NA 
HETATM   13  H   UNL     1     -13.940  13.714  65.555  1.00  0.00     0.000 HD 
BRANCH  12  14
HETATM   14  C   UNL     1     -12.063  13.131  66.230  1.00  0.00    -0.397 C  
BRANCH  14  15
HETATM   15  C   UNL     1     -11.656  13.375  67.700  1.00  0.00    -0.340 C  
HETATM   16  O   UNL     1     -12.457  14.428  68.246  1.00  0.00    -0.587 OA 
HETATM   17  H   UNL     1     -12.207  14.577  69.151  1.00  0.00     0.000 HD 
BRANCH  15  18
HETATM   18  C   UNL     1     -11.818  12.087  68.517  1.00  0.00    -0.311 C  
BRANCH  18  19
HETATM   19  O   UNL     1     -10.562  11.447  68.712  1.00  0.00    -0.191 OA 
BRANCH  19  20
HETATM   20  C   UNL     1     -10.351  10.305  67.976  1.00  0.00    -0.181 A  
HETATM   21  C   UNL     1      -9.956  10.287  66.626  1.00  0.00    -0.270 A  
HETATM   22  C   UNL     1      -9.732   9.092  65.950  1.00  0.00    -0.306 A  
HETATM   23  C   UNL     1      -9.891   7.864  66.590  1.00  0.00    -0.311 A  
HETATM   24  C   UNL     1     -10.294   7.885  67.931  1.00  0.00    -0.221 A  
HETATM   25  C   UNL     1     -10.533   9.065  68.637  1.00  0.00    -0.229 A  
HETATM   26  C   UNL     1     -10.943   8.691  69.960  1.00  0.00    -0.208 A  
HETATM   27  C   UNL     1     -11.334   9.414  71.108  1.00  0.00    -0.422 A  
HETATM   28  C   UNL     1     -11.678   8.726  72.277  1.00  0.00    -0.398 A  
HETATM   29  C   UNL     1     -11.636   7.335  72.314  1.00  0.00    -0.315 A  
HETATM   30  C   UNL     1     -11.256   6.593  71.191  1.00  0.00    -0.340 A  
HETATM   31  C   UNL     1     -10.920   7.302  70.030  1.00  0.00    -0.253 A  
HETATM   32  N   UNL     1     -10.528   6.843  68.798  1.00  0.00    -0.196 NA 
HETATM   33  H   UNL     1     -10.424   5.857  68.557  1.00  0.00     0.000 HD 
ENDBRANCH  19  20
ENDBRANCH  18  19
ENDBRANCH  15  18
ENDBRANCH  14  15
ENDBRANCH  12  14
ENDBRANCH  11  12
ENDBRANCH  10  11
ENDBRANCH   9  10
ENDBRANCH   8   9
ENDBRANCH   2   3
TORSDOF 10
ENDMDL
MODEL      103
REMARK 921   NORMALIZED FREE ENERGY PREDICTED BY IDOCK:   -5.60 KCAL/MOL
REMARK 922        TOTAL FREE ENERGY PREDICTED BY IDOCK:  -10.73 KCAL/MOL
REMARK 923 INTER-LIGAND FREE ENERGY PREDICTED BY IDOCK:   -9.11 KCAL/MOL
REMARK 924 INTRA-LIGAND FREE ENERGY PREDICTED BY IDOCK:   -1.61 KCAL/MOL
REMARK 927      BINDING AFFINITY PREDICTED BY RF-SCORE:    0.00 PKD
ROOT
HETATM    1  C   UNL     1     -10.715  16.606  69.482  1.00  0.00    -0.306 C  
HETATM    2  O   UNL     1      -9.752  15.687  68.969  1.00  0.00    -0.210 OA 
ENDROOT
BRANCH   2   3
HETATM    3  C   UNL     1      -9.965  15.238  67.690  1.00  0.00    -0.222 A  
HETATM    4  C   UNL     1     -10.515  16.075  66.705  1.00  0.00    -0.304 A  
HETATM    5  C   UNL     1     -10.681  15.628  65.394  1.00  0.00    -0.424 A  
HETATM    6  C   UNL     1     -10.327  14.329  65.055  1.00  0.00    -0.448 A  
HETATM    7  C   UNL     1      -9.828  13.473  66.035  1.00  0.00    -0.277 A  
HETATM    8  C   UNL     1      -9.651  13.905  67.358  1.00  0.00    -0.235 A  
BRANCH   8   9
HETATM    9  O   UNL     1      -9.148  12.910  68.161  1.00  0.00    -0.199 OA 
BRANCH   9  10
HETATM   10  C   UNL     1      -7.743  12.899  68.379  1.00  0.00    -0.133 C  
BRANCH  10  11
HETATM   11  C   UNL     1      -7.207  11.458  68.314  1.00  0.00    -0.082 C  
BRANCH  11  12
HETATM   12  N   UNL     1      -7.298  10.848  66.975  1.00  0.00    -0.111 NA 
HETATM   13  H   UNL     1      -6.372  10.703  66.572  1.00  0.00     0.000 HD 
BRANCH  12  14
HETATM   14  C   UNL     1      -8.080   9.593  66.982  1.00  0.00    -0.113 C  
BRANCH  14  15
HETATM   15  C   UNL     1      -9.533   9.803  66.502  1.00  0.00    -0.177 C  
HETATM   16  O   UNL     1      -9.677   9.278  65.179  1.00  0.00    -0.456 OA 
HETATM   17  H   UNL     1     -10.571   9.407  64.884  1.00  0.00     0.000 HD 
BRANCH  15  18
HETATM   18  C   UNL     1     -10.514   9.125  67.467  1.00  0.00    -0.270 C  
BRANCH  18  19
HETATM   19  O   UNL     1     -10.307   9.574  68.802  1.00  0.00    -0.195 OA 
BRANCH  19  20
HETATM   20  C   UNL     1     -11.019   8.911  69.773  1.00  0.00    -0.156 A  
HETATM   21  C   UNL     1     -10.977   7.521  69.984  1.00  0.00    -0.252 A  
HETATM   22  C   UNL     1     -11.703   6.919  71.007  1.00  0.00    -0.392 A  
HETATM   23  C   UNL     1     -12.500   7.675  71.865  1.00  0.00    -0.338 A  
HETATM   24  C   UNL     1     -12.546   9.058  71.646  1.00  0.00    -0.348 A  
HETATM   25  C   UNL     1     -11.836   9.693  70.626  1.00  0.00    -0.331 A  
HETATM   26  C   UNL     1     -12.147  11.092  70.702  1.00  0.00    -0.477 A  
HETATM   27  C   UNL     1     -11.767  12.225  69.950  1.00  0.00    -0.346 A  
HETATM   28  C   UNL     1     -12.258  13.487  70.301  1.00  0.00    -0.417 A  
HETATM   29  C   UNL     1     -13.118  13.632  71.387  1.00  0.00    -0.396 A  
HETATM   30  C   UNL     1     -13.514  12.527  72.146  1.00  0.00    -0.523 A  
HETATM   31  C   UNL     1     -13.014  11.272  71.775  1.00  0.00    -0.414 A  
HETATM   32  N   UNL     1     -13.239  10.035  72.324  1.00  0.00    -0.560 NA 
HETATM   33  H   UNL     1     -13.841   9.862  73.129  1.00  0.00     0.000 HD 
ENDBRANCH  19  20
ENDBRANCH  18  19
ENDBRANCH  15  18
ENDBRANCH  14  15
ENDBRANCH  12  14
ENDBRANCH  11  12
ENDBRANCH  10  11
ENDBRANCH   9  10
ENDBRANCH   8   9
ENDBRANCH   2   3
TORSDOF 10
ENDMDL
MODEL      104
REMARK 921   NORMALIZED FREE ENERGY PREDICTED BY IDOCK:   -5.60 KCAL/MOL
REMARK 922        TOTAL FREE ENERGY PREDICTED BY IDOCK:  -10.72 KCAL/MOL
REMARK 923 INTER-LIGAND FREE ENERGY PREDICTED BY IDOCK:   -9.89 KCAL/MOL
REMARK 924 INTRA-LIGAND FREE ENERGY PREDICTED BY IDOCK:   -0.83 KCAL/MOL
REMARK 927      BINDING AFFINITY PREDICTED BY RF-SCORE:    0.00 PKD
ROOT
HETATM    1  C   UNL     1     -12.700  11.937  63.380  1.00  0.00    -0.366 C  
HETATM    2  O   UNL     1     -13.152  12.483  64.617  1.00  0.00    -0.845 OA 
ENDROOT
BRANCH   2   3
HETATM    3  C   UNL     1     -12.296  13.352  65.244  1.00  0.00    -0.469 A  
HETATM    4  C   UNL     1     -11.861  14.530  64.614  1.00  0.00    -0.462 A  
HETATM    5  C   UNL     1     -11.032  15.434  65.277  1.00  0.00    -0.397 A  
HETATM    6  C   UNL     1     -10.602  15.162  66.569  1.00  0.00    -0.304 A  
HETATM    7  C   UNL     1     -10.985  13.973  67.186  1.00  0.00    -0.303 A  
HETATM    8  C   UNL     1     -11.821  13.053  66.537  1.00  0.00    -0.403 A  
BRANCH   8   9
HETATM    9  O   UNL     1     -12.079  11.952  67.318  1.00  0.00    -0.582 OA 
BRANCH   9  10
HETATM   10  C   UNL     1     -11.804  12.062  68.709  1.00  0.00    -0.302 C  
BRANCH  10  11
HETATM   11  C   UNL     1     -11.446  10.684  69.291  1.00  0.00    -0.281 C  
BRANCH  11  12
HETATM   12  N   UNL     1     -11.404  10.654  70.765  1.00  0.00    -0.387 NA 
HETATM   13  H   UNL     1     -10.910  11.465  71.136  1.00  0.00     0.000 HD 
BRANCH  12  14
HETATM   14  C   UNL     1     -12.751  10.528  71.363  1.00  0.00    -0.442 C  
BRANCH  14  15
HETATM   15  C   UNL     1     -12.965   9.159  72.046  1.00  0.00    -0.424 C  
HETATM   16  O   UNL     1     -13.912   8.396  71.294  1.00  0.00    -0.567 OA 
HETATM   17  H   UNL     1     -14.044   7.554  71.714  1.00  0.00     0.000 HD 
BRANCH  15  18
HETATM   18  C   UNL     1     -11.632   8.410  72.164  1.00  0.00    -0.374 C  
BRANCH  18  19
HETATM   19  O   UNL     1     -11.810   7.016  71.937  1.00  0.00    -0.281 OA 
BRANCH  19  20
HETATM   20  C   UNL     1     -11.164   6.501  70.838  1.00  0.00    -0.311 A  
HETATM   21  C   UNL     1     -11.109   7.127  69.579  1.00  0.00    -0.170 A  
HETATM   22  C   UNL     1     -10.410   6.561  68.517  1.00  0.00    -0.219 A  
HETATM   23  C   UNL     1      -9.736   5.350  68.663  1.00  0.00    -0.187 A  
HETATM   24  C   UNL     1      -9.801   4.726  69.915  1.00  0.00    -0.221 A  
HETATM   25  C   UNL     1     -10.498   5.262  71.000  1.00  0.00    -0.274 A  
HETATM   26  C   UNL     1     -10.355   4.340  72.091  1.00  0.00    -0.193 A  
HETATM   27  C   UNL     1     -10.835   4.309  73.418  1.00  0.00    -0.337 A  
HETATM   28  C   UNL     1     -10.499   3.237  74.252  1.00  0.00    -0.253 A  
HETATM   29  C   UNL     1      -9.694   2.202  73.780  1.00  0.00    -0.119 A  
HETATM   30  C   UNL     1      -9.209   2.205  72.468  1.00  0.00    -0.121 A  
HETATM   31  C   UNL     1      -9.562   3.286  71.649  1.00  0.00    -0.160 A  
HETATM   32  N   UNL     1      -9.243   3.541  70.340  1.00  0.00    -0.132 NA 
HETATM   33  H   UNL     1      -8.668   2.933  69.757  1.00  0.00     0.000 HD 
ENDBRANCH  19  20
ENDBRANCH  18  19
ENDBRANCH  15  18
ENDBRANCH  14  15
ENDBRANCH  12  14
ENDBRANCH  11  12
ENDBRANCH  10  11
ENDBRANCH   9  10
ENDBRANCH   8   9
ENDBRANCH   2   3
TORSDOF 10
ENDMDL
MODEL      105
REMARK 921   NORMALIZED FREE ENERGY PREDICTED BY IDOCK:   -5.59 KCAL/MOL
REMARK 922        TOTAL FREE ENERGY PREDICTED BY IDOCK:  -10.71 KCAL/MOL
REMARK 923 INTER-LIGAND FREE ENERGY PREDICTED BY IDOCK:   -8.86 KCAL/MOL
REMARK 924 INTRA-LIGAND FREE ENERGY PREDICTED BY IDOCK:   -1.85 KCAL/MOL
REMARK 927      BINDING AFFINITY PREDICTED BY RF-SCORE:    0.00 PKD
ROOT
HETATM    1  C   UNL     1     -10.840   7.076  67.393  1.00  0.00    -0.300 C  
HETATM    2  O   UNL     1      -9.970   7.407  68.473  1.00  0.00    -0.156 OA 
ENDROOT
BRANCH   2   3
HETATM    3  C   UNL     1     -10.563   7.578  69.698  1.00  0.00    -0.239 A  
HETATM    4  C   UNL     1     -11.601   6.736  70.130  1.00  0.00    -0.397 A  
HETATM    5  C   UNL     1     -12.165   6.883  71.397  1.00  0.00    -0.418 A  
HETATM    6  C   UNL     1     -11.719   7.891  72.241  1.00  0.00    -0.408 A  
HETATM    7  C   UNL     1     -10.725   8.765  71.805  1.00  0.00    -0.413 A  
HETATM    8  C   UNL     1     -10.144   8.631  70.535  1.00  0.00    -0.196 A  
BRANCH   8   9
HETATM    9  O   UNL     1      -9.186   9.589  70.304  1.00  0.00    -0.229 OA 
BRANCH   9  10
HETATM   10  C   UNL     1      -7.832   9.157  70.256  1.00  0.00    -0.125 C  
BRANCH  10  11
HETATM   11  C   UNL     1      -7.193   9.560  68.916  1.00  0.00    -0.072 C  
BRANCH  11  12
HETATM   12  N   UNL     1      -8.171   9.828  67.846  1.00  0.00    -0.113 NA 
HETATM   13  H   UNL     1      -9.121   9.616  68.153  1.00  0.00     0.000 HD 
BRANCH  12  14
HETATM   14  C   UNL     1      -8.074  11.210  67.329  1.00  0.00    -0.137 C  
BRANCH  14  15
HETATM   15  C   UNL     1      -9.166  11.525  66.284  1.00  0.00    -0.211 C  
HETATM   16  O   UNL     1      -8.663  11.247  64.973  1.00  0.00    -0.383 OA 
HETATM   17  H   UNL     1      -9.335  11.441  64.330  1.00  0.00     0.000 HD 
BRANCH  15  18
HETATM   18  C   UNL     1     -10.428  10.702  66.569  1.00  0.00    -0.224 C  
BRANCH  18  19
HETATM   19  O   UNL     1     -11.553  11.551  66.775  1.00  0.00    -0.492 OA 
BRANCH  19  20
HETATM   20  C   UNL     1     -11.742  11.991  68.064  1.00  0.00    -0.331 A  
HETATM   21  C   UNL     1     -12.138  11.171  69.137  1.00  0.00    -0.352 A  
HETATM   22  C   UNL     1     -12.282  11.679  70.424  1.00  0.00    -0.434 A  
HETATM   23  C   UNL     1     -12.038  13.024  70.698  1.00  0.00    -0.333 A  
HETATM   24  C   UNL     1     -11.653  13.838  69.626  1.00  0.00    -0.281 A  
HETATM   25  C   UNL     1     -11.505  13.363  68.322  1.00  0.00    -0.350 A  
HETATM   26  C   UNL     1     -11.125  14.481  67.505  1.00  0.00    -0.316 A  
HETATM   27  C   UNL     1     -10.854  14.644  66.129  1.00  0.00    -0.321 A  
HETATM   28  C   UNL     1     -10.494  15.904  65.638  1.00  0.00    -0.411 A  
HETATM   29  C   UNL     1     -10.401  16.995  66.498  1.00  0.00    -0.298 A  
HETATM   30  C   UNL     1     -10.668  16.863  67.865  1.00  0.00    -0.344 A  
HETATM   31  C   UNL     1     -11.031  15.594  68.334  1.00  0.00    -0.308 A  
HETATM   32  N   UNL     1     -11.354  15.182  69.602  1.00  0.00    -0.264 NA 
HETATM   33  H   UNL     1     -11.370  15.791  70.420  1.00  0.00     0.000 HD 
ENDBRANCH  19  20
ENDBRANCH  18  19
ENDBRANCH  15  18
ENDBRANCH  14  15
ENDBRANCH  12  14
ENDBRANCH  11  12
ENDBRANCH  10  11
ENDBRANCH   9  10
ENDBRANCH   8   9
ENDBRANCH   2   3
TORSDOF 10
ENDMDL
MODEL      106
REMARK 921   NORMALIZED FREE ENERGY PREDICTED BY IDOCK:   -5.59 KCAL/MOL
REMARK 922        TOTAL FREE ENERGY PREDICTED BY IDOCK:  -10.71 KCAL/MOL
REMARK 923 INTER-LIGAND FREE ENERGY PREDICTED BY IDOCK:   -9.42 KCAL/MOL
REMARK 924 INTRA-LIGAND FREE ENERGY PREDICTED BY IDOCK:   -1.29 KCAL/MOL
REMARK 927      BINDING AFFINITY PREDICTED BY RF-SCORE:    0.00 PKD
ROOT
HETATM    1  C   UNL     1     -10.390   7.357  69.469  1.00  0.00    -0.217 C  
HETATM    2  O   UNL     1     -10.152   8.203  70.591  1.00  0.00    -0.192 OA 
ENDROOT
BRANCH   2   3
HETATM    3  C   UNL     1     -11.186   9.027  70.958  1.00  0.00    -0.295 A  
HETATM    4  C   UNL     1     -12.178   8.597  71.854  1.00  0.00    -0.419 A  
HETATM    5  C   UNL     1     -13.198   9.457  72.263  1.00  0.00    -0.528 A  
HETATM    6  C   UNL     1     -13.256  10.750  71.760  1.00  0.00    -0.523 A  
HETATM    7  C   UNL     1     -12.307  11.172  70.831  1.00  0.00    -0.500 A  
HETATM    8  C   UNL     1     -11.273  10.323  70.411  1.00  0.00    -0.332 A  
BRANCH   8   9
HETATM    9  O   UNL     1     -10.446  10.932  69.497  1.00  0.00    -0.215 OA 
BRANCH   9  10
HETATM   10  C   UNL     1     -11.010  11.965  68.698  1.00  0.00    -0.228 C  
BRANCH  10  11
HETATM   11  C   UNL     1     -11.374  11.421  67.306  1.00  0.00    -0.275 C  
BRANCH  11  12
HETATM   12  N   UNL     1     -11.993  12.423  66.419  1.00  0.00    -0.607 NA 
HETATM   13  H   UNL     1     -11.757  13.371  66.712  1.00  0.00     0.000 HD 
BRANCH  12  14
HETATM   14  C   UNL     1     -11.649  12.203  64.997  1.00  0.00    -0.310 C  
BRANCH  14  15
HETATM   15  C   UNL     1     -11.471  13.528  64.223  1.00  0.00    -0.383 C  
HETATM   16  O   UNL     1     -12.525  13.665  63.266  1.00  0.00    -0.992 OA 
HETATM   17  H   UNL     1     -12.416  14.480  62.791  1.00  0.00     0.000 HD 
BRANCH  15  18
HETATM   18  C   UNL     1     -11.460  14.714  65.196  1.00  0.00    -0.375 C  
BRANCH  18  19
HETATM   19  O   UNL     1     -10.196  14.831  65.841  1.00  0.00    -0.279 OA 
BRANCH  19  20
HETATM   20  C   UNL     1      -9.937  16.045  66.433  1.00  0.00    -0.295 A  
HETATM   21  C   UNL     1     -10.585  17.249  66.100  1.00  0.00    -0.204 A  
HETATM   22  C   UNL     1     -10.293  18.437  66.762  1.00  0.00    -0.420 A  
HETATM   23  C   UNL     1      -9.346  18.478  67.784  1.00  0.00    -0.308 A  
HETATM   24  C   UNL     1      -8.698  17.279  68.106  1.00  0.00    -0.243 A  
HETATM   25  C   UNL     1      -8.961  16.071  67.459  1.00  0.00    -0.201 A  
HETATM   26  C   UNL     1      -8.099  15.082  68.040  1.00  0.00    -0.132 A  
HETATM   27  C   UNL     1      -7.884  13.707  67.806  1.00  0.00    -0.172 A  
HETATM   28  C   UNL     1      -6.945  13.010  68.575  1.00  0.00    -0.102 A  
HETATM   29  C   UNL     1      -6.224  13.666  69.570  1.00  0.00    -0.118 A  
HETATM   30  C   UNL     1      -6.413  15.028  69.821  1.00  0.00    -0.163 A  
HETATM   31  C   UNL     1      -7.354  15.707  69.036  1.00  0.00    -0.169 A  
HETATM   32  N   UNL     1      -7.732  17.026  69.054  1.00  0.00    -0.220 NA 
HETATM   33  H   UNL     1      -7.348  17.727  69.688  1.00  0.00     0.000 HD 
ENDBRANCH  19  20
ENDBRANCH  18  19
ENDBRANCH  15  18
ENDBRANCH  14  15
ENDBRANCH  12  14
ENDBRANCH  11  12
ENDBRANCH  10  11
ENDBRANCH   9  10
ENDBRANCH   8   9
ENDBRANCH   2   3
TORSDOF 10
ENDMDL
MODEL      107
REMARK 921   NORMALIZED FREE ENERGY PREDICTED BY IDOCK:   -5.59 KCAL/MOL
REMARK 922        TOTAL FREE ENERGY PREDICTED BY IDOCK:  -10.70 KCAL/MOL
REMARK 923 INTER-LIGAND FREE ENERGY PREDICTED BY IDOCK:   -9.18 KCAL/MOL
REMARK 924 INTRA-LIGAND FREE ENERGY PREDICTED BY IDOCK:   -1.52 KCAL/MOL
REMARK 927      BINDING AFFINITY PREDICTED BY RF-SCORE:    0.00 PKD
ROOT
HETATM    1  C   UNL     1     -10.814   5.976  66.728  1.00  0.00    -0.279 C  
HETATM    2  O   UNL     1     -11.409   6.444  67.936  1.00  0.00    -0.263 OA 
ENDROOT
BRANCH   2   3
HETATM    3  C   UNL     1     -10.678   6.260  69.082  1.00  0.00    -0.301 A  
HETATM    4  C   UNL     1      -9.327   5.879  69.032  1.00  0.00    -0.138 A  
HETATM    5  C   UNL     1      -8.576   5.743  70.200  1.00  0.00    -0.128 A  
HETATM    6  C   UNL     1      -9.171   5.958  71.436  1.00  0.00    -0.158 A  
HETATM    7  C   UNL     1     -10.524   6.286  71.501  1.00  0.00    -0.266 A  
HETATM    8  C   UNL     1     -11.295   6.430  70.337  1.00  0.00    -0.389 A  
BRANCH   8   9
HETATM    9  O   UNL     1     -12.599   6.757  70.622  1.00  0.00    -0.268 OA 
BRANCH   9  10
HETATM   10  C   UNL     1     -12.851   7.406  71.862  1.00  0.00    -0.272 C  
BRANCH  10  11
HETATM   11  C   UNL     1     -13.919   8.498  71.683  1.00  0.00    -0.404 C  
BRANCH  11  12
HETATM   12  N   UNL     1     -13.380   9.870  71.728  1.00  0.00    -0.406 NA 
HETATM   13  H   UNL     1     -13.544  10.301  72.638  1.00  0.00     0.000 HD 
BRANCH  12  14
HETATM   14  C   UNL     1     -11.948   9.923  71.362  1.00  0.00    -0.404 C  
BRANCH  14  15
HETATM   15  C   UNL     1     -11.714  10.622  70.005  1.00  0.00    -0.324 C  
HETATM   16  O   UNL     1     -11.429  12.006  70.226  1.00  0.00    -0.515 OA 
HETATM   17  H   UNL     1     -11.284  12.436  69.391  1.00  0.00     0.000 HD 
BRANCH  15  18
HETATM   18  C   UNL     1     -10.564   9.943  69.249  1.00  0.00    -0.224 C  
BRANCH  18  19
HETATM   19  O   UNL     1     -10.016  10.815  68.266  1.00  0.00    -0.159 OA 
BRANCH  19  20
HETATM   20  C   UNL     1      -9.574  10.213  67.113  1.00  0.00    -0.169 A  
HETATM   21  C   UNL     1      -8.705   9.107  67.073  1.00  0.00    -0.131 A  
HETATM   22  C   UNL     1      -8.321   8.529  65.867  1.00  0.00    -0.142 A  
HETATM   23  C   UNL     1      -8.785   9.026  64.651  1.00  0.00    -0.169 A  
HETATM   24  C   UNL     1      -9.642  10.132  64.694  1.00  0.00    -0.315 A  
HETATM   25  C   UNL     1     -10.043  10.741  65.885  1.00  0.00    -0.314 A  
HETATM   26  C   UNL     1     -10.893  11.842  65.532  1.00  0.00    -0.348 A  
HETATM   27  C   UNL     1     -11.578  12.829  66.273  1.00  0.00    -0.433 A  
HETATM   28  C   UNL     1     -12.350  13.786  65.604  1.00  0.00    -0.517 A  
HETATM   29  C   UNL     1     -12.446  13.769  64.215  1.00  0.00    -0.308 A  
HETATM   30  C   UNL     1     -11.775  12.805  63.456  1.00  0.00    -0.597 A  
HETATM   31  C   UNL     1     -11.003  11.860  64.145  1.00  0.00    -0.369 A  
HETATM   32  N   UNL     1     -10.243  10.824  63.667  1.00  0.00    -0.474 NA 
HETATM   33  H   UNL     1     -10.135  10.596  62.678  1.00  0.00     0.000 HD 
ENDBRANCH  19  20
ENDBRANCH  18  19
ENDBRANCH  15  18
ENDBRANCH  14  15
ENDBRANCH  12  14
ENDBRANCH  11  12
ENDBRANCH  10  11
ENDBRANCH   9  10
ENDBRANCH   8   9
ENDBRANCH   2   3
TORSDOF 10
ENDMDL
MODEL      108
REMARK 921   NORMALIZED FREE ENERGY PREDICTED BY IDOCK:   -5.58 KCAL/MOL
REMARK 922        TOTAL FREE ENERGY PREDICTED BY IDOCK:  -10.69 KCAL/MOL
REMARK 923 INTER-LIGAND FREE ENERGY PREDICTED BY IDOCK:   -9.82 KCAL/MOL
REMARK 924 INTRA-LIGAND FREE ENERGY PREDICTED BY IDOCK:   -0.87 KCAL/MOL
REMARK 927      BINDING AFFINITY PREDICTED BY RF-SCORE:    0.00 PKD
ROOT
HETATM    1  C   UNL     1      -5.449  19.280  70.358  1.00  0.00    -0.226 C  
HETATM    2  O   UNL     1      -6.536  20.108  69.952  1.00  0.00    -0.329 OA 
ENDROOT
BRANCH   2   3
HETATM    3  C   UNL     1      -6.672  20.311  68.602  1.00  0.00    -0.259 A  
HETATM    4  C   UNL     1      -5.668  20.949  67.855  1.00  0.00    -0.345 A  
HETATM    5  C   UNL     1      -5.790  21.106  66.475  1.00  0.00    -0.329 A  
HETATM    6  C   UNL     1      -6.930  20.653  65.825  1.00  0.00    -0.153 A  
HETATM    7  C   UNL     1      -7.956  20.065  66.562  1.00  0.00    -0.343 A  
HETATM    8  C   UNL     1      -7.850  19.896  67.950  1.00  0.00    -0.292 A  
BRANCH   8   9
HETATM    9  O   UNL     1      -8.966  19.295  68.482  1.00  0.00    -0.347 OA 
BRANCH   9  10
HETATM   10  C   UNL     1      -8.926  17.884  68.654  1.00  0.00    -0.256 C  
BRANCH  10  11
HETATM   11  C   UNL     1     -10.062  17.219  67.859  1.00  0.00    -0.317 C  
BRANCH  11  12
HETATM   12  N   UNL     1     -10.026  15.745  67.889  1.00  0.00    -0.225 NA 
HETATM   13  H   UNL     1     -10.353  15.387  68.786  1.00  0.00     0.000 HD 
BRANCH  12  14
HETATM   14  C   UNL     1     -10.778  15.142  66.767  1.00  0.00    -0.311 C  
BRANCH  14  15
HETATM   15  C   UNL     1     -12.105  14.500  67.226  1.00  0.00    -0.264 C  
HETATM   16  O   UNL     1     -12.970  14.340  66.098  1.00  0.00    -0.454 OA 
HETATM   17  H   UNL     1     -13.787  13.945  66.381  1.00  0.00     0.000 HD 
BRANCH  15  18
HETATM   18  C   UNL     1     -11.836  13.150  67.903  1.00  0.00    -0.348 C  
BRANCH  18  19
HETATM   19  O   UNL     1     -11.249  13.333  69.187  1.00  0.00    -0.262 OA 
BRANCH  19  20
HETATM   20  C   UNL     1     -12.102  13.209  70.258  1.00  0.00    -0.328 A  
HETATM   21  C   UNL     1     -12.777  14.282  70.867  1.00  0.00    -0.427 A  
HETATM   22  C   UNL     1     -13.650  14.079  71.931  1.00  0.00    -0.520 A  
HETATM   23  C   UNL     1     -13.889  12.801  72.433  1.00  0.00    -0.360 A  
HETATM   24  C   UNL     1     -13.208  11.737  71.829  1.00  0.00    -0.329 A  
HETATM   25  C   UNL     1     -12.321  11.905  70.765  1.00  0.00    -0.416 A  
HETATM   26  C   UNL     1     -11.808  10.606  70.433  1.00  0.00    -0.441 A  
HETATM   27  C   UNL     1     -10.880  10.131  69.481  1.00  0.00    -0.289 A  
HETATM   28  C   UNL     1     -10.598   8.763  69.411  1.00  0.00    -0.218 A  
HETATM   29  C   UNL     1     -11.227   7.868  70.273  1.00  0.00    -0.206 A  
HETATM   30  C   UNL     1     -12.147   8.311  71.228  1.00  0.00    -0.307 A  
HETATM   31  C   UNL     1     -12.411   9.686  71.284  1.00  0.00    -0.355 A  
HETATM   32  N   UNL     1     -13.246  10.391  72.113  1.00  0.00    -0.562 NA 
HETATM   33  H   UNL     1     -13.821   9.972  72.845  1.00  0.00     0.000 HD 
ENDBRANCH  19  20
ENDBRANCH  18  19
ENDBRANCH  15  18
ENDBRANCH  14  15
ENDBRANCH  12  14
ENDBRANCH  11  12
ENDBRANCH  10  11
ENDBRANCH   9  10
ENDBRANCH   8   9
ENDBRANCH   2   3
TORSDOF 10
ENDMDL
MODEL      109
REMARK 921   NORMALIZED FREE ENERGY PREDICTED BY IDOCK:   -5.58 KCAL/MOL
REMARK 922        TOTAL FREE ENERGY PREDICTED BY IDOCK:  -10.69 KCAL/MOL
REMARK 923 INTER-LIGAND FREE ENERGY PREDICTED BY IDOCK:   -8.83 KCAL/MOL
REMARK 924 INTRA-LIGAND FREE ENERGY PREDICTED BY IDOCK:   -1.85 KCAL/MOL
REMARK 927      BINDING AFFINITY PREDICTED BY RF-SCORE:    0.00 PKD
ROOT
HETATM    1  C   UNL     1     -11.114   6.805  67.539  1.00  0.00    -0.265 C  
HETATM    2  O   UNL     1     -10.363   6.512  68.715  1.00  0.00    -0.166 OA 
ENDROOT
BRANCH   2   3
HETATM    3  C   UNL     1     -10.788   7.115  69.871  1.00  0.00    -0.254 A  
HETATM    4  C   UNL     1     -11.948   6.683  70.536  1.00  0.00    -0.377 A  
HETATM    5  C   UNL     1     -12.347   7.268  71.738  1.00  0.00    -0.375 A  
HETATM    6  C   UNL     1     -11.608   8.311  72.279  1.00  0.00    -0.449 A  
HETATM    7  C   UNL     1     -10.484   8.782  71.604  1.00  0.00    -0.387 A  
HETATM    8  C   UNL     1     -10.066   8.205  70.395  1.00  0.00    -0.194 A  
BRANCH   8   9
HETATM    9  O   UNL     1      -8.939   8.815  69.897  1.00  0.00    -0.143 OA 
BRANCH   9  10
HETATM   10  C   UNL     1      -7.712   8.106  70.012  1.00  0.00    -0.086 C  
BRANCH  10  11
HETATM   11  C   UNL     1      -6.971   8.102  68.664  1.00  0.00    -0.068 C  
BRANCH  11  12
HETATM   12  N   UNL     1      -7.867   8.104  67.493  1.00  0.00    -0.109 NA 
HETATM   13  H   UNL     1      -8.837   8.249  67.771  1.00  0.00     0.000 HD 
BRANCH  12  14
HETATM   14  C   UNL     1      -7.452   9.089  66.470  1.00  0.00    -0.089 C  
BRANCH  14  15
HETATM   15  C   UNL     1      -8.650   9.861  65.877  1.00  0.00    -0.137 C  
HETATM   16  O   UNL     1      -9.409   8.987  65.036  1.00  0.00    -0.436 OA 
HETATM   17  H   UNL     1     -10.147   9.462  64.671  1.00  0.00     0.000 HD 
BRANCH  15  18
HETATM   18  C   UNL     1      -9.525  10.430  67.001  1.00  0.00    -0.163 C  
BRANCH  18  19
HETATM   19  O   UNL     1     -10.796  10.833  66.502  1.00  0.00    -0.218 OA 
BRANCH  19  20
HETATM   20  C   UNL     1     -10.928  12.169  66.210  1.00  0.00    -0.295 A  
HETATM   21  C   UNL     1     -10.630  12.746  64.962  1.00  0.00    -0.330 A  
HETATM   22  C   UNL     1     -10.815  14.105  64.727  1.00  0.00    -0.426 A  
HETATM   23  C   UNL     1     -11.306  14.947  65.724  1.00  0.00    -0.314 A  
HETATM   24  C   UNL     1     -11.593  14.370  66.967  1.00  0.00    -0.384 A  
HETATM   25  C   UNL     1     -11.413  13.013  67.239  1.00  0.00    -0.380 A  
HETATM   26  C   UNL     1     -11.790  12.802  68.608  1.00  0.00    -0.341 A  
HETATM   27  C   UNL     1     -11.810  11.675  69.458  1.00  0.00    -0.414 A  
HETATM   28  C   UNL     1     -12.253  11.810  70.778  1.00  0.00    -0.424 A  
HETATM   29  C   UNL     1     -12.673  13.049  71.257  1.00  0.00    -0.385 A  
HETATM   30  C   UNL     1     -12.659  14.182  70.439  1.00  0.00    -0.397 A  
HETATM   31  C   UNL     1     -12.208  14.026  69.122  1.00  0.00    -0.262 A  
HETATM   32  N   UNL     1     -12.079  14.950  68.117  1.00  0.00    -0.562 NA 
HETATM   33  H   UNL     1     -12.313  15.939  68.210  1.00  0.00     0.000 HD 
ENDBRANCH  19  20
ENDBRANCH  18  19
ENDBRANCH  15  18
ENDBRANCH  14  15
ENDBRANCH  12  14
ENDBRANCH  11  12
ENDBRANCH  10  11
ENDBRANCH   9  10
ENDBRANCH   8   9
ENDBRANCH   2   3
TORSDOF 10
ENDMDL
MODEL      110
REMARK 921   NORMALIZED FREE ENERGY PREDICTED BY IDOCK:   -5.57 KCAL/MOL
REMARK 922        TOTAL FREE ENERGY PREDICTED BY IDOCK:  -10.67 KCAL/MOL
REMARK 923 INTER-LIGAND FREE ENERGY PREDICTED BY IDOCK:   -9.09 KCAL/MOL
REMARK 924 INTRA-LIGAND FREE ENERGY PREDICTED BY IDOCK:   -1.58 KCAL/MOL
REMARK 927      BINDING AFFINITY PREDICTED BY RF-SCORE:    0.00 PKD
ROOT
HETATM    1  C   UNL     1     -12.214  14.910  69.906  1.00  0.00    -0.309 C  
HETATM    2  O   UNL     1     -11.968  14.412  68.592  1.00  0.00    -0.326 OA 
ENDROOT
BRANCH   2   3
HETATM    3  C   UNL     1     -11.172  15.189  67.789  1.00  0.00    -0.323 A  
HETATM    4  C   UNL     1     -10.451  16.277  68.308  1.00  0.00    -0.284 A  
HETATM    5  C   UNL     1      -9.605  17.031  67.496  1.00  0.00    -0.249 A  
HETATM    6  C   UNL     1      -9.488  16.726  66.146  1.00  0.00    -0.295 A  
HETATM    7  C   UNL     1     -10.237  15.682  65.608  1.00  0.00    -0.402 A  
HETATM    8  C   UNL     1     -11.091  14.911  66.410  1.00  0.00    -0.342 A  
BRANCH   8   9
HETATM    9  O   UNL     1     -11.733  13.934  65.687  1.00  0.00    -0.332 OA 
BRANCH   9  10
HETATM   10  C   UNL     1     -12.171  14.276  64.378  1.00  0.00    -0.447 C  
BRANCH  10  11
HETATM   11  C   UNL     1     -12.267  13.014  63.503  1.00  0.00    -0.501 C  
BRANCH  11  12
HETATM   12  N   UNL     1     -10.960  12.420  63.168  1.00  0.00    -0.688 NA 
HETATM   13  H   UNL     1     -10.197  13.065  63.377  1.00  0.00     0.000 HD 
BRANCH  12  14
HETATM   14  C   UNL     1     -10.750  11.114  63.831  1.00  0.00    -0.337 C  
BRANCH  14  15
HETATM   15  C   UNL     1      -9.419  11.058  64.611  1.00  0.00    -0.234 C  
HETATM   16  O   UNL     1      -9.269  12.254  65.381  1.00  0.00    -0.433 OA 
HETATM   17  H   UNL     1      -8.450  12.219  65.862  1.00  0.00     0.000 HD 
BRANCH  15  18
HETATM   18  C   UNL     1      -9.386   9.820  65.517  1.00  0.00    -0.240 C  
BRANCH  18  19
HETATM   19  O   UNL     1     -10.660   9.589  66.109  1.00  0.00    -0.081 OA 
BRANCH  19  20
HETATM   20  C   UNL     1     -10.740   9.817  67.463  1.00  0.00    -0.264 A  
HETATM   21  C   UNL     1     -10.939  11.081  68.048  1.00  0.00    -0.312 A  
HETATM   22  C   UNL     1     -11.040  11.235  69.427  1.00  0.00    -0.316 A  
HETATM   23  C   UNL     1     -10.949  10.138  70.282  1.00  0.00    -0.380 A  
HETATM   24  C   UNL     1     -10.742   8.883  69.696  1.00  0.00    -0.217 A  
HETATM   25  C   UNL     1     -10.630   8.693  68.317  1.00  0.00    -0.181 A  
HETATM   26  C   UNL     1     -10.405   7.293  68.100  1.00  0.00    -0.234 A  
HETATM   27  C   UNL     1     -10.196   6.499  66.951  1.00  0.00    -0.279 A  
HETATM   28  C   UNL     1     -10.009   5.119  67.086  1.00  0.00    -0.221 A  
HETATM   29  C   UNL     1     -10.028   4.526  68.346  1.00  0.00    -0.103 A  
HETATM   30  C   UNL     1     -10.228   5.288  69.501  1.00  0.00    -0.338 A  
HETATM   31  C   UNL     1     -10.409   6.669  69.343  1.00  0.00    -0.199 A  
HETATM   32  N   UNL     1     -10.613   7.645  70.284  1.00  0.00    -0.225 NA 
HETATM   33  H   UNL     1     -10.661   7.477  71.289  1.00  0.00     0.000 HD 
ENDBRANCH  19  20
ENDBRANCH  18  19
ENDBRANCH  15  18
ENDBRANCH  14  15
ENDBRANCH  12  14
ENDBRANCH  11  12
ENDBRANCH  10  11
ENDBRANCH   9  10
ENDBRANCH   8   9
ENDBRANCH   2   3
TORSDOF 10
ENDMDL
MODEL      111
REMARK 921   NORMALIZED FREE ENERGY PREDICTED BY IDOCK:   -5.57 KCAL/MOL
REMARK 922        TOTAL FREE ENERGY PREDICTED BY IDOCK:  -10.67 KCAL/MOL
REMARK 923 INTER-LIGAND FREE ENERGY PREDICTED BY IDOCK:   -9.15 KCAL/MOL
REMARK 924 INTRA-LIGAND FREE ENERGY PREDICTED BY IDOCK:   -1.52 KCAL/MOL
REMARK 927      BINDING AFFINITY PREDICTED BY RF-SCORE:    0.00 PKD
ROOT
HETATM    1  C   UNL     1     -11.709  15.693  70.618  1.00  0.00    -0.369 C  
HETATM    2  O   UNL     1     -11.688  15.029  69.356  1.00  0.00    -0.291 OA 
ENDROOT
BRANCH   2   3
HETATM    3  C   UNL     1     -11.266  15.776  68.285  1.00  0.00    -0.356 A  
HETATM    4  C   UNL     1     -10.863  17.113  68.441  1.00  0.00    -0.309 A  
HETATM    5  C   UNL     1     -10.387  17.850  67.358  1.00  0.00    -0.383 A  
HETATM    6  C   UNL     1     -10.333  17.272  66.096  1.00  0.00    -0.320 A  
HETATM    7  C   UNL     1     -10.779  15.964  65.918  1.00  0.00    -0.303 A  
HETATM    8  C   UNL     1     -11.258  15.205  66.997  1.00  0.00    -0.308 A  
BRANCH   8   9
HETATM    9  O   UNL     1     -11.643  13.944  66.608  1.00  0.00    -0.339 OA 
BRANCH   9  10
HETATM   10  C   UNL     1     -12.652  13.852  65.610  1.00  0.00    -0.517 C  
BRANCH  10  11
HETATM   11  C   UNL     1     -12.306  12.738  64.607  1.00  0.00    -0.459 C  
BRANCH  11  12
HETATM   12  N   UNL     1     -10.867  12.630  64.310  1.00  0.00    -0.351 NA 
HETATM   13  H   UNL     1     -10.348  13.414  64.706  1.00  0.00     0.000 HD 
BRANCH  12  14
HETATM   14  C   UNL     1     -10.297  11.338  64.750  1.00  0.00    -0.307 C  
BRANCH  14  15
HETATM   15  C   UNL     1      -8.965  11.511  65.511  1.00  0.00    -0.031 C  
HETATM   16  O   UNL     1      -9.010  12.716  66.281  1.00  0.00    -0.411 OA 
HETATM   17  H   UNL     1      -8.190  12.822  66.749  1.00  0.00     0.000 HD 
BRANCH  15  18
HETATM   18  C   UNL     1      -8.706  10.297  66.412  1.00  0.00    -0.135 C  
BRANCH  18  19
HETATM   19  O   UNL     1      -9.595  10.291  67.524  1.00  0.00    -0.154 OA 
BRANCH  19  20
HETATM   20  C   UNL     1      -9.885   9.055  68.051  1.00  0.00    -0.166 A  
HETATM   21  C   UNL     1      -9.394   7.837  67.545  1.00  0.00    -0.161 A  
HETATM   22  C   UNL     1      -9.706   6.622  68.148  1.00  0.00    -0.130 A  
HETATM   23  C   UNL     1     -10.518   6.568  69.279  1.00  0.00    -0.259 A  
HETATM   24  C   UNL     1     -11.012   7.782  69.774  1.00  0.00    -0.158 A  
HETATM   25  C   UNL     1     -10.724   9.017  69.191  1.00  0.00    -0.176 A  
HETATM   26  C   UNL     1     -11.416  10.016  69.955  1.00  0.00    -0.274 A  
HETATM   27  C   UNL     1     -11.535  11.419  69.855  1.00  0.00    -0.353 A  
HETATM   28  C   UNL     1     -12.304  12.118  70.792  1.00  0.00    -0.391 A  
HETATM   29  C   UNL     1     -12.952  11.437  71.821  1.00  0.00    -0.519 A  
HETATM   30  C   UNL     1     -12.855  10.048  71.940  1.00  0.00    -0.524 A  
HETATM   31  C   UNL     1     -12.083   9.367  70.989  1.00  0.00    -0.298 A  
HETATM   32  N   UNL     1     -11.825   8.027  70.857  1.00  0.00    -0.400 NA 
HETATM   33  H   UNL     1     -12.189   7.305  71.481  1.00  0.00     0.000 HD 
ENDBRANCH  19  20
ENDBRANCH  18  19
ENDBRANCH  15  18
ENDBRANCH  14  15
ENDBRANCH  12  14
ENDBRANCH  11  12
ENDBRANCH  10  11
ENDBRANCH   9  10
ENDBRANCH   8   9
ENDBRANCH   2   3
TORSDOF 10
ENDMDL
MODEL      112
REMARK 921   NORMALIZED FREE ENERGY PREDICTED BY IDOCK:   -5.55 KCAL/MOL
REMARK 922        TOTAL FREE ENERGY PREDICTED BY IDOCK:  -10.63 KCAL/MOL
REMARK 923 INTER-LIGAND FREE ENERGY PREDICTED BY IDOCK:   -8.63 KCAL/MOL
REMARK 924 INTRA-LIGAND FREE ENERGY PREDICTED BY IDOCK:   -2.00 KCAL/MOL
REMARK 927      BINDING AFFINITY PREDICTED BY RF-SCORE:    0.00 PKD
ROOT
HETATM    1  C   UNL     1     -14.252   8.030  71.655  1.00  0.00    -0.452 C  
HETATM    2  O   UNL     1     -13.367   7.062  71.096  1.00  0.00    -0.302 OA 
ENDROOT
BRANCH   2   3
HETATM    3  C   UNL     1     -12.044   7.183  71.437  1.00  0.00    -0.344 A  
HETATM    4  C   UNL     1     -11.644   7.935  72.554  1.00  0.00    -0.443 A  
HETATM    5  C   UNL     1     -10.301   8.012  72.924  1.00  0.00    -0.397 A  
HETATM    6  C   UNL     1      -9.335   7.362  72.167  1.00  0.00    -0.164 A  
HETATM    7  C   UNL     1      -9.714   6.655  71.027  1.00  0.00    -0.185 A  
HETATM    8  C   UNL     1     -11.060   6.564  70.641  1.00  0.00    -0.309 A  
BRANCH   8   9
HETATM    9  O   UNL     1     -11.216   5.822  69.494  1.00  0.00    -0.343 OA 
BRANCH   9  10
HETATM   10  C   UNL     1     -11.285   6.533  68.264  1.00  0.00    -0.162 C  
BRANCH  10  11
HETATM   11  C   UNL     1     -10.278   5.950  67.258  1.00  0.00    -0.200 C  
BRANCH  11  12
HETATM   12  N   UNL     1      -8.985   6.657  67.232  1.00  0.00    -0.115 NA 
HETATM   13  H   UNL     1      -8.266   6.130  67.728  1.00  0.00     0.000 HD 
BRANCH  12  14
HETATM   14  C   UNL     1      -8.551   6.986  65.856  1.00  0.00    -0.145 C  
BRANCH  14  15
HETATM   15  C   UNL     1      -7.453   8.071  65.829  1.00  0.00    -0.081 C  
HETATM   16  O   UNL     1      -6.445   7.702  64.883  1.00  0.00    -0.041 OA 
HETATM   17  H   UNL     1      -5.769   8.370  64.866  1.00  0.00     0.000 HD 
BRANCH  15  18
HETATM   18  C   UNL     1      -8.060   9.434  65.475  1.00  0.00    -0.116 C  
BRANCH  18  19
HETATM   19  O   UNL     1      -9.483   9.373  65.479  1.00  0.00    -0.245 OA 
BRANCH  19  20
HETATM   20  C   UNL     1     -10.132  10.536  65.140  1.00  0.00    -0.314 A  
HETATM   21  C   UNL     1     -10.191  11.065  63.837  1.00  0.00    -0.425 A  
HETATM   22  C   UNL     1     -10.893  12.234  63.560  1.00  0.00    -0.508 A  
HETATM   23  C   UNL     1     -11.567  12.925  64.565  1.00  0.00    -0.400 A  
HETATM   24  C   UNL     1     -11.498  12.400  65.862  1.00  0.00    -0.374 A  
HETATM   25  C   UNL     1     -10.799  11.233  66.177  1.00  0.00    -0.281 A  
HETATM   26  C   UNL     1     -10.938  11.025  67.590  1.00  0.00    -0.332 A  
HETATM   27  C   UNL     1     -10.454  10.051  68.491  1.00  0.00    -0.229 A  
HETATM   28  C   UNL     1     -10.788  10.135  69.847  1.00  0.00    -0.347 A  
HETATM   29  C   UNL     1     -11.594  11.172  70.312  1.00  0.00    -0.388 A  
HETATM   30  C   UNL     1     -12.083  12.152  69.442  1.00  0.00    -0.247 A  
HETATM   31  C   UNL     1     -11.732  12.052  68.089  1.00  0.00    -0.333 A  
HETATM   32  N   UNL     1     -12.055  12.864  67.032  1.00  0.00    -0.413 NA 
HETATM   33  H   UNL     1     -12.632  13.702  67.103  1.00  0.00     0.000 HD 
ENDBRANCH  19  20
ENDBRANCH  18  19
ENDBRANCH  15  18
ENDBRANCH  14  15
ENDBRANCH  12  14
ENDBRANCH  11  12
ENDBRANCH  10  11
ENDBRANCH   9  10
ENDBRANCH   8   9
ENDBRANCH   2   3
TORSDOF 10
ENDMDL
MODEL      113
REMARK 921   NORMALIZED FREE ENERGY PREDICTED BY IDOCK:   -5.54 KCAL/MOL
REMARK 922        TOTAL FREE ENERGY PREDICTED BY IDOCK:  -10.63 KCAL/MOL
REMARK 923 INTER-LIGAND FREE ENERGY PREDICTED BY IDOCK:   -9.49 KCAL/MOL
REMARK 924 INTRA-LIGAND FREE ENERGY PREDICTED BY IDOCK:   -1.14 KCAL/MOL
REMARK 927      BINDING AFFINITY PREDICTED BY RF-SCORE:    0.00 PKD
ROOT
HETATM    1  C   UNL     1     -12.009  15.802  69.172  1.00  0.00    -0.296 C  
HETATM    2  O   UNL     1     -11.391  14.687  68.532  1.00  0.00    -0.258 OA 
ENDROOT
BRANCH   2   3
HETATM    3  C   UNL     1     -11.565  14.596  67.174  1.00  0.00    -0.378 A  
HETATM    4  C   UNL     1     -12.364  13.589  66.607  1.00  0.00    -0.351 A  
HETATM    5  C   UNL     1     -12.578  13.533  65.230  1.00  0.00    -0.517 A  
HETATM    6  C   UNL     1     -11.974  14.465  64.397  1.00  0.00    -0.471 A  
HETATM    7  C   UNL     1     -11.138  15.437  64.942  1.00  0.00    -0.435 A  
HETATM    8  C   UNL     1     -10.913  15.511  66.325  1.00  0.00    -0.242 A  
BRANCH   8   9
HETATM    9  O   UNL     1     -10.062  16.540  66.653  1.00  0.00    -0.272 OA 
BRANCH   9  10
HETATM   10  C   UNL     1      -8.679  16.351  66.381  1.00  0.00    -0.319 C  
BRANCH  10  11
HETATM   11  C   UNL     1      -8.070  15.362  67.389  1.00  0.00    -0.180 C  
BRANCH  11  12
HETATM   12  N   UNL     1      -8.060  13.964  66.920  1.00  0.00    -0.386 NA 
HETATM   13  H   UNL     1      -7.230  13.769  66.360  1.00  0.00     0.000 HD 
BRANCH  12  14
HETATM   14  C   UNL     1      -8.193  12.998  68.032  1.00  0.00    -0.161 C  
BRANCH  14  15
HETATM   15  C   UNL     1      -9.151  11.836  67.690  1.00  0.00    -0.177 C  
HETATM   16  O   UNL     1      -8.709  11.194  66.490  1.00  0.00    -0.162 OA 
HETATM   17  H   UNL     1      -9.298  10.479  66.279  1.00  0.00     0.000 HD 
BRANCH  15  18
HETATM   18  C   UNL     1      -9.212  10.837  68.852  1.00  0.00    -0.173 C  
BRANCH  18  19
HETATM   19  O   UNL     1     -10.428  10.098  68.824  1.00  0.00    -0.184 OA 
BRANCH  19  20
HETATM   20  C   UNL     1     -11.325  10.383  69.827  1.00  0.00    -0.289 A  
HETATM   21  C   UNL     1     -11.973  11.621  69.988  1.00  0.00    -0.429 A  
HETATM   22  C   UNL     1     -12.893  11.831  71.010  1.00  0.00    -0.309 A  
HETATM   23  C   UNL     1     -13.208  10.818  71.914  1.00  0.00    -0.524 A  
HETATM   24  C   UNL     1     -12.554   9.590  71.755  1.00  0.00    -0.405 A  
HETATM   25  C   UNL     1     -11.621   9.347  70.745  1.00  0.00    -0.364 A  
HETATM   26  C   UNL     1     -11.156   8.000  70.914  1.00  0.00    -0.271 A  
HETATM   27  C   UNL     1     -10.216   7.193  70.236  1.00  0.00    -0.207 A  
HETATM   28  C   UNL     1      -9.994   5.880  70.663  1.00  0.00    -0.242 A  
HETATM   29  C   UNL     1     -10.694   5.364  71.750  1.00  0.00    -0.271 A  
HETATM   30  C   UNL     1     -11.628   6.141  72.443  1.00  0.00    -0.338 A  
HETATM   31  C   UNL     1     -11.831   7.455  72.002  1.00  0.00    -0.298 A  
HETATM   32  N   UNL     1     -12.664   8.431  72.489  1.00  0.00    -0.583 NA 
HETATM   33  H   UNL     1     -13.283   8.312  73.292  1.00  0.00     0.000 HD 
ENDBRANCH  19  20
ENDBRANCH  18  19
ENDBRANCH  15  18
ENDBRANCH  14  15
ENDBRANCH  12  14
ENDBRANCH  11  12
ENDBRANCH  10  11
ENDBRANCH   9  10
ENDBRANCH   8   9
ENDBRANCH   2   3
TORSDOF 10
ENDMDL
MODEL      114
REMARK 921   NORMALIZED FREE ENERGY PREDICTED BY IDOCK:   -5.54 KCAL/MOL
REMARK 922        TOTAL FREE ENERGY PREDICTED BY IDOCK:  -10.62 KCAL/MOL
REMARK 923 INTER-LIGAND FREE ENERGY PREDICTED BY IDOCK:   -8.93 KCAL/MOL
REMARK 924 INTRA-LIGAND FREE ENERGY PREDICTED BY IDOCK:   -1.69 KCAL/MOL
REMARK 927      BINDING AFFINITY PREDICTED BY RF-SCORE:    0.00 PKD
ROOT
HETATM    1  C   UNL     1      -8.800  10.969  62.940  1.00  0.00    -0.235 C  
HETATM    2  O   UNL     1      -9.053  12.215  63.586  1.00  0.00     0.217 OA 
ENDROOT
BRANCH   2   3
HETATM    3  C   UNL     1     -10.346  12.437  63.988  1.00  0.00    -0.409 A  
HETATM    4  C   UNL     1     -11.425  11.786  63.368  1.00  0.00    -0.424 A  
HETATM    5  C   UNL     1     -12.732  11.978  63.814  1.00  0.00    -0.516 A  
HETATM    6  C   UNL     1     -12.983  12.844  64.870  1.00  0.00    -0.214 A  
HETATM    7  C   UNL     1     -11.927  13.535  65.461  1.00  0.00    -0.420 A  
HETATM    8  C   UNL     1     -10.605  13.353  65.027  1.00  0.00    -0.358 A  
BRANCH   8   9
HETATM    9  O   UNL     1      -9.718  14.123  65.741  1.00  0.00    -0.289 OA 
BRANCH   9  10
HETATM   10  C   UNL     1      -9.867  15.535  65.654  1.00  0.00    -0.342 C  
BRANCH  10  11
HETATM   11  C   UNL     1      -9.885  16.155  67.062  1.00  0.00    -0.245 C  
BRANCH  11  12
HETATM   12  N   UNL     1     -11.194  16.065  67.735  1.00  0.00    -0.281 NA 
HETATM   13  H   UNL     1     -11.693  15.218  67.460  1.00  0.00     0.000 HD 
BRANCH  12  14
HETATM   14  C   UNL     1     -11.076  16.160  69.207  1.00  0.00    -0.327 C  
BRANCH  14  15
HETATM   15  C   UNL     1     -12.000  15.162  69.937  1.00  0.00    -0.337 C  
HETATM   16  O   UNL     1     -13.121  15.864  70.482  1.00  0.00    -0.714 OA 
HETATM   17  H   UNL     1     -13.690  15.249  70.931  1.00  0.00     0.000 HD 
BRANCH  15  18
HETATM   18  C   UNL     1     -12.461  14.062  68.973  1.00  0.00     0.100 C  
BRANCH  18  19
HETATM   19  O   UNL     1     -11.567  12.954  69.000  1.00  0.00    -0.282 OA 
BRANCH  19  20
HETATM   20  C   UNL     1     -11.871  11.962  69.902  1.00  0.00    -0.343 A  
HETATM   21  C   UNL     1     -12.526  12.174  71.129  1.00  0.00    -0.337 A  
HETATM   22  C   UNL     1     -12.828  11.117  71.982  1.00  0.00    -0.285 A  
HETATM   23  C   UNL     1     -12.494   9.805  71.649  1.00  0.00    -0.500 A  
HETATM   24  C   UNL     1     -11.835   9.600  70.430  1.00  0.00    -0.155 A  
HETATM   25  C   UNL     1     -11.511  10.637  69.554  1.00  0.00    -0.360 A  
HETATM   26  C   UNL     1     -10.831  10.049  68.436  1.00  0.00    -0.277 A  
HETATM   27  C   UNL     1     -10.250  10.566  67.257  1.00  0.00    -0.260 A  
HETATM   28  C   UNL     1      -9.653   9.696  66.339  1.00  0.00    -0.268 A  
HETATM   29  C   UNL     1      -9.629   8.324  66.580  1.00  0.00    -0.299 A  
HETATM   30  C   UNL     1     -10.192   7.785  67.741  1.00  0.00    -0.271 A  
HETATM   31  C   UNL     1     -10.781   8.675  68.650  1.00  0.00    -0.051 A  
HETATM   32  N   UNL     1     -11.389   8.432  69.854  1.00  0.00    -0.454 NA 
HETATM   33  H   UNL     1     -11.498   7.506  70.270  1.00  0.00     0.000 HD 
ENDBRANCH  19  20
ENDBRANCH  18  19
ENDBRANCH  15  18
ENDBRANCH  14  15
ENDBRANCH  12  14
ENDBRANCH  11  12
ENDBRANCH  10  11
ENDBRANCH   9  10
ENDBRANCH   8   9
ENDBRANCH   2   3
TORSDOF 10
ENDMDL
MODEL      115
REMARK 921   NORMALIZED FREE ENERGY PREDICTED BY IDOCK:   -5.53 KCAL/MOL
REMARK 922        TOTAL FREE ENERGY PREDICTED BY IDOCK:  -10.61 KCAL/MOL
REMARK 923 INTER-LIGAND FREE ENERGY PREDICTED BY IDOCK:   -9.28 KCAL/MOL
REMARK 924 INTRA-LIGAND FREE ENERGY PREDICTED BY IDOCK:   -1.33 KCAL/MOL
REMARK 927      BINDING AFFINITY PREDICTED BY RF-SCORE:    0.00 PKD
ROOT
HETATM    1  C   UNL     1     -10.504  16.033  65.814  1.00  0.00    -0.374 C  
HETATM    2  O   UNL     1     -10.072  14.684  65.973  1.00  0.00    -0.281 OA 
ENDROOT
BRANCH   2   3
HETATM    3  C   UNL     1     -10.647  13.761  65.137  1.00  0.00    -0.374 A  
HETATM    4  C   UNL     1     -11.648  14.129  64.222  1.00  0.00    -0.327 A  
HETATM    5  C   UNL     1     -12.192  13.196  63.340  1.00  0.00    -0.521 A  
HETATM    6  C   UNL     1     -11.764  11.875  63.378  1.00  0.00    -0.500 A  
HETATM    7  C   UNL     1     -10.809  11.487  64.315  1.00  0.00    -0.421 A  
HETATM    8  C   UNL     1     -10.248  12.411  65.209  1.00  0.00    -0.282 A  
BRANCH   8   9
HETATM    9  O   UNL     1      -9.328  11.825  66.045  1.00  0.00    -0.226 OA 
BRANCH   9  10
HETATM   10  C   UNL     1      -8.339  10.998  65.445  1.00  0.00     0.010 C  
BRANCH  10  11
HETATM   11  C   UNL     1      -7.489  10.315  66.530  1.00  0.00    -0.113 C  
BRANCH  11  12
HETATM   12  N   UNL     1      -7.488   8.843  66.446  1.00  0.00    -0.087 NA 
HETATM   13  H   UNL     1      -6.555   8.465  66.612  1.00  0.00     0.000 HD 
BRANCH  12  14
HETATM   14  C   UNL     1      -8.483   8.228  67.352  1.00  0.00    -0.125 C  
BRANCH  14  15
HETATM   15  C   UNL     1      -9.894   8.177  66.729  1.00  0.00    -0.259 C  
HETATM   16  O   UNL     1     -10.334   6.818  66.658  1.00  0.00    -0.382 OA 
HETATM   17  H   UNL     1     -11.203   6.787  66.274  1.00  0.00     0.000 HD 
BRANCH  15  18
HETATM   18  C   UNL     1     -10.871   9.023  67.556  1.00  0.00    -0.060 C  
BRANCH  18  19
HETATM   19  O   UNL     1     -10.410   9.169  68.895  1.00  0.00    -0.205 OA 
BRANCH  19  20
HETATM   20  C   UNL     1     -11.178   8.565  69.862  1.00  0.00    -0.032 A  
HETATM   21  C   UNL     1     -11.217   7.179  70.099  1.00  0.00    -0.295 A  
HETATM   22  C   UNL     1     -11.997   6.639  71.117  1.00  0.00    -0.412 A  
HETATM   23  C   UNL     1     -12.770   7.454  71.941  1.00  0.00    -0.310 A  
HETATM   24  C   UNL     1     -12.736   8.833  71.695  1.00  0.00    -0.348 A  
HETATM   25  C   UNL     1     -11.970   9.408  70.680  1.00  0.00    -0.232 A  
HETATM   26  C   UNL     1     -12.205  10.823  70.723  1.00  0.00    -0.480 A  
HETATM   27  C   UNL     1     -11.746  11.918  69.958  1.00  0.00    -0.366 A  
HETATM   28  C   UNL     1     -12.175  13.211  70.274  1.00  0.00    -0.376 A  
HETATM   29  C   UNL     1     -13.050  13.425  71.336  1.00  0.00    -0.373 A  
HETATM   30  C   UNL     1     -13.523  12.359  72.107  1.00  0.00    -0.481 A  
HETATM   31  C   UNL     1     -13.085  11.071  71.772  1.00  0.00    -0.449 A  
HETATM   32  N   UNL     1     -13.389   9.859  72.338  1.00  0.00    -0.600 NA 
HETATM   33  H   UNL     1     -14.017   9.736  73.133  1.00  0.00     0.000 HD 
ENDBRANCH  19  20
ENDBRANCH  18  19
ENDBRANCH  15  18
ENDBRANCH  14  15
ENDBRANCH  12  14
ENDBRANCH  11  12
ENDBRANCH  10  11
ENDBRANCH   9  10
ENDBRANCH   8   9
ENDBRANCH   2   3
TORSDOF 10
ENDMDL
MODEL      116
REMARK 921   NORMALIZED FREE ENERGY PREDICTED BY IDOCK:   -5.52 KCAL/MOL
REMARK 922        TOTAL FREE ENERGY PREDICTED BY IDOCK:  -10.59 KCAL/MOL
REMARK 923 INTER-LIGAND FREE ENERGY PREDICTED BY IDOCK:   -9.37 KCAL/MOL
REMARK 924 INTRA-LIGAND FREE ENERGY PREDICTED BY IDOCK:   -1.23 KCAL/MOL
REMARK 927      BINDING AFFINITY PREDICTED BY RF-SCORE:    0.00 PKD
ROOT
HETATM    1  C   UNL     1     -13.937  15.506  72.407  1.00  0.00    -0.560 C  
HETATM    2  O   UNL     1     -13.139  15.399  71.230  1.00  0.00    -0.427 OA 
ENDROOT
BRANCH   2   3
HETATM    3  C   UNL     1     -12.774  14.130  70.858  1.00  0.00    -0.361 A  
HETATM    4  C   UNL     1     -12.919  13.042  71.736  1.00  0.00    -0.420 A  
HETATM    5  C   UNL     1     -12.594  11.747  71.333  1.00  0.00    -0.367 A  
HETATM    6  C   UNL     1     -12.094  11.522  70.058  1.00  0.00    -0.408 A  
HETATM    7  C   UNL     1     -11.898  12.599  69.195  1.00  0.00    -0.349 A  
HETATM    8  C   UNL     1     -12.222  13.909  69.581  1.00  0.00    -0.321 A  
BRANCH   8   9
HETATM    9  O   UNL     1     -11.955  14.819  68.586  1.00  0.00    -0.311 OA 
BRANCH   9  10
HETATM   10  C   UNL     1     -10.817  15.654  68.757  1.00  0.00    -0.262 C  
BRANCH  10  11
HETATM   11  C   UNL     1     -10.240  16.053  67.388  1.00  0.00    -0.273 C  
BRANCH  11  12
HETATM   12  N   UNL     1     -10.076  14.921  66.458  1.00  0.00    -0.262 NA 
HETATM   13  H   UNL     1     -10.492  14.070  66.837  1.00  0.00     0.000 HD 
BRANCH  12  14
HETATM   14  C   UNL     1     -10.606  15.220  65.110  1.00  0.00    -0.430 C  
BRANCH  14  15
HETATM   15  C   UNL     1     -11.995  14.591  64.871  1.00  0.00    -0.422 C  
HETATM   16  O   UNL     1     -12.378  14.787  63.506  1.00  0.00    -1.037 OA 
HETATM   17  H   UNL     1     -13.233  14.399  63.359  1.00  0.00     0.000 HD 
BRANCH  15  18
HETATM   18  C   UNL     1     -11.970  13.097  65.221  1.00  0.00    -0.398 C  
BRANCH  18  19
HETATM   19  O   UNL     1     -10.653  12.679  65.566  1.00  0.00    -0.266 OA 
BRANCH  19  20
HETATM   20  C   UNL     1     -10.103  11.709  64.762  1.00  0.00    -0.260 A  
HETATM   21  C   UNL     1     -10.282  11.634  63.368  1.00  0.00    -0.471 A  
HETATM   22  C   UNL     1      -9.670  10.641  62.610  1.00  0.00    -0.228 A  
HETATM   23  C   UNL     1      -8.854   9.681  63.206  1.00  0.00    -0.254 A  
HETATM   24  C   UNL     1      -8.686   9.754  64.595  1.00  0.00    -0.194 A  
HETATM   25  C   UNL     1      -9.289  10.733  65.386  1.00  0.00    -0.243 A  
HETATM   26  C   UNL     1      -8.906  10.475  66.745  1.00  0.00    -0.139 A  
HETATM   27  C   UNL     1      -9.202  11.088  67.982  1.00  0.00    -0.159 A  
HETATM   28  C   UNL     1      -8.644  10.578  69.159  1.00  0.00    -0.157 A  
HETATM   29  C   UNL     1      -7.799   9.471  69.117  1.00  0.00    -0.082 A  
HETATM   30  C   UNL     1      -7.492   8.842  67.907  1.00  0.00    -0.093 A  
HETATM   31  C   UNL     1      -8.066   9.366  66.740  1.00  0.00    -0.109 A  
HETATM   32  N   UNL     1      -7.951   8.952  65.438  1.00  0.00    -0.105 NA 
HETATM   33  H   UNL     1      -7.393   8.153  65.133  1.00  0.00     0.000 HD 
ENDBRANCH  19  20
ENDBRANCH  18  19
ENDBRANCH  15  18
ENDBRANCH  14  15
ENDBRANCH  12  14
ENDBRANCH  11  12
ENDBRANCH  10  11
ENDBRANCH   9  10
ENDBRANCH   8   9
ENDBRANCH   2   3
TORSDOF 10
ENDMDL
MODEL      117
REMARK 921   NORMALIZED FREE ENERGY PREDICTED BY IDOCK:   -5.52 KCAL/MOL
REMARK 922        TOTAL FREE ENERGY PREDICTED BY IDOCK:  -10.59 KCAL/MOL
REMARK 923 INTER-LIGAND FREE ENERGY PREDICTED BY IDOCK:   -8.76 KCAL/MOL
REMARK 924 INTRA-LIGAND FREE ENERGY PREDICTED BY IDOCK:   -1.83 KCAL/MOL
REMARK 927      BINDING AFFINITY PREDICTED BY RF-SCORE:    0.00 PKD
ROOT
HETATM    1  C   UNL     1      -5.474  18.391  70.777  1.00  0.00    -0.208 C  
HETATM    2  O   UNL     1      -5.404  18.288  69.357  1.00  0.00    -0.190 OA 
ENDROOT
BRANCH   2   3
HETATM    3  C   UNL     1      -6.070  17.229  68.793  1.00  0.00    -0.168 A  
HETATM    4  C   UNL     1      -6.540  16.162  69.577  1.00  0.00    -0.200 A  
HETATM    5  C   UNL     1      -7.261  15.114  69.005  1.00  0.00    -0.149 A  
HETATM    6  C   UNL     1      -7.498  15.102  67.637  1.00  0.00    -0.202 A  
HETATM    7  C   UNL     1      -6.992  16.128  66.841  1.00  0.00    -0.187 A  
HETATM    8  C   UNL     1      -6.268  17.192  67.399  1.00  0.00    -0.150 A  
BRANCH   8   9
HETATM    9  O   UNL     1      -5.863  18.095  66.445  1.00  0.00    -0.144 OA 
BRANCH   9  10
HETATM   10  C   UNL     1      -6.207  19.459  66.653  1.00  0.00    -0.176 C  
BRANCH  10  11
HETATM   11  C   UNL     1      -7.094  19.965  65.504  1.00  0.00    -0.302 C  
BRANCH  11  12
HETATM   12  N   UNL     1      -8.411  20.463  65.942  1.00  0.00    -0.534 NA 
HETATM   13  H   UNL     1      -9.042  20.583  65.150  1.00  0.00     0.000 HD 
BRANCH  12  14
HETATM   14  C   UNL     1      -9.017  19.605  66.983  1.00  0.00    -0.316 C  
BRANCH  14  15
HETATM   15  C   UNL     1     -10.405  19.070  66.569  1.00  0.00    -0.439 C  
HETATM   16  O   UNL     1     -10.273  18.268  65.391  1.00  0.00    -0.438 OA 
HETATM   17  H   UNL     1     -11.127  17.939  65.136  1.00  0.00     0.000 HD 
BRANCH  15  18
HETATM   18  C   UNL     1     -11.025  18.258  67.713  1.00  0.00    -0.088 C  
BRANCH  18  19
HETATM   19  O   UNL     1     -10.188  17.164  68.072  1.00  0.00    -0.299 OA 
BRANCH  19  20
HETATM   20  C   UNL     1     -10.753  16.225  68.902  1.00  0.00    -0.300 A  
HETATM   21  C   UNL     1     -10.941  16.395  70.287  1.00  0.00    -0.262 A  
HETATM   22  C   UNL     1     -11.549  15.412  71.062  1.00  0.00    -0.410 A  
HETATM   23  C   UNL     1     -11.996  14.221  70.494  1.00  0.00    -0.402 A  
HETATM   24  C   UNL     1     -11.799  14.053  69.118  1.00  0.00    -0.350 A  
HETATM   25  C   UNL     1     -11.188  15.014  68.311  1.00  0.00    -0.309 A  
HETATM   26  C   UNL     1     -11.146  14.483  66.978  1.00  0.00    -0.324 A  
HETATM   27  C   UNL     1     -10.644  14.959  65.747  1.00  0.00    -0.342 A  
HETATM   28  C   UNL     1     -10.771  14.174  64.597  1.00  0.00    -0.408 A  
HETATM   29  C   UNL     1     -11.390  12.927  64.659  1.00  0.00    -0.361 A  
HETATM   30  C   UNL     1     -11.891  12.429  65.865  1.00  0.00    -0.467 A  
HETATM   31  C   UNL     1     -11.750  13.230  67.006  1.00  0.00    -0.389 A  
HETATM   32  N   UNL     1     -12.132  12.995  68.302  1.00  0.00    -0.250 NA 
HETATM   33  H   UNL     1     -12.602  12.147  68.620  1.00  0.00     0.000 HD 
ENDBRANCH  19  20
ENDBRANCH  18  19
ENDBRANCH  15  18
ENDBRANCH  14  15
ENDBRANCH  12  14
ENDBRANCH  11  12
ENDBRANCH  10  11
ENDBRANCH   9  10
ENDBRANCH   8   9
ENDBRANCH   2   3
TORSDOF 10
ENDMDL
MODEL      118
REMARK 921   NORMALIZED FREE ENERGY PREDICTED BY IDOCK:   -5.52 KCAL/MOL
REMARK 922        TOTAL FREE ENERGY PREDICTED BY IDOCK:  -10.59 KCAL/MOL
REMARK 923 INTER-LIGAND FREE ENERGY PREDICTED BY IDOCK:   -9.41 KCAL/MOL
REMARK 924 INTRA-LIGAND FREE ENERGY PREDICTED BY IDOCK:   -1.17 KCAL/MOL
REMARK 927      BINDING AFFINITY PREDICTED BY RF-SCORE:    0.00 PKD
ROOT
HETATM    1  C   UNL     1     -10.261  17.820  66.468  1.00  0.00    -0.358 C  
HETATM    2  O   UNL     1      -9.781  16.480  66.381  1.00  0.00    -0.253 OA 
ENDROOT
BRANCH   2   3
HETATM    3  C   UNL     1     -10.722  15.514  66.129  1.00  0.00    -0.313 A  
HETATM    4  C   UNL     1     -11.181  15.266  64.824  1.00  0.00    -0.405 A  
HETATM    5  C   UNL     1     -12.100  14.248  64.569  1.00  0.00    -0.499 A  
HETATM    6  C   UNL     1     -12.595  13.483  65.615  1.00  0.00    -0.512 A  
HETATM    7  C   UNL     1     -12.187  13.753  66.920  1.00  0.00    -0.408 A  
HETATM    8  C   UNL     1     -11.261  14.770  67.197  1.00  0.00    -0.343 A  
BRANCH   8   9
HETATM    9  O   UNL     1     -10.993  14.870  68.541  1.00  0.00    -0.239 OA 
BRANCH   9  10
HETATM   10  C   UNL     1     -11.692  15.870  69.271  1.00  0.00    -0.353 C  
BRANCH  10  11
HETATM   11  C   UNL     1     -12.420  15.242  70.472  1.00  0.00    -0.405 C  
BRANCH  11  12
HETATM   12  N   UNL     1     -12.132  13.808  70.658  1.00  0.00    -0.420 NA 
HETATM   13  H   UNL     1     -11.186  13.664  71.013  1.00  0.00     0.000 HD 
BRANCH  12  14
HETATM   14  C   UNL     1     -13.132  13.141  71.520  1.00  0.00    -0.315 C  
BRANCH  14  15
HETATM   15  C   UNL     1     -12.803  11.652  71.760  1.00  0.00    -0.313 C  
HETATM   16  O   UNL     1     -13.903  11.023  72.424  1.00  0.00    -0.361 OA 
HETATM   17  H   UNL     1     -13.700  10.106  72.572  1.00  0.00     0.000 HD 
BRANCH  15  18
HETATM   18  C   UNL     1     -12.498  10.954  70.429  1.00  0.00    -0.327 C  
BRANCH  18  19
HETATM   19  O   UNL     1     -11.173  10.434  70.419  1.00  0.00    -0.297 OA 
BRANCH  19  20
HETATM   20  C   UNL     1     -10.826   9.701  69.308  1.00  0.00    -0.205 A  
HETATM   21  C   UNL     1     -10.670  10.236  68.016  1.00  0.00    -0.299 A  
HETATM   22  C   UNL     1     -10.288   9.439  66.942  1.00  0.00    -0.308 A  
HETATM   23  C   UNL     1     -10.044   8.077  67.108  1.00  0.00    -0.334 A  
HETATM   24  C   UNL     1     -10.210   7.547  68.393  1.00  0.00    -0.185 A  
HETATM   25  C   UNL     1     -10.597   8.316  69.492  1.00  0.00    -0.216 A  
HETATM   26  C   UNL     1     -10.680   7.431  70.619  1.00  0.00    -0.242 A  
HETATM   27  C   UNL     1     -11.033   7.601  71.976  1.00  0.00    -0.291 A  
HETATM   28  C   UNL     1     -11.004   6.502  72.842  1.00  0.00    -0.282 A  
HETATM   29  C   UNL     1     -10.630   5.245  72.373  1.00  0.00    -0.280 A  
HETATM   30  C   UNL     1     -10.280   5.048  71.034  1.00  0.00    -0.283 A  
HETATM   31  C   UNL     1     -10.320   6.160  70.183  1.00  0.00    -0.212 A  
HETATM   32  N   UNL     1     -10.044   6.257  68.843  1.00  0.00    -0.158 NA 
HETATM   33  H   UNL     1      -9.753   5.474  68.256  1.00  0.00     0.000 HD 
ENDBRANCH  19  20
ENDBRANCH  18  19
ENDBRANCH  15  18
ENDBRANCH  14  15
ENDBRANCH  12  14
ENDBRANCH  11  12
ENDBRANCH  10  11
ENDBRANCH   9  10
ENDBRANCH   8   9
ENDBRANCH   2   3
TORSDOF 10
ENDMDL
MODEL      119
REMARK 921   NORMALIZED FREE ENERGY PREDICTED BY IDOCK:   -5.52 KCAL/MOL
REMARK 922        TOTAL FREE ENERGY PREDICTED BY IDOCK:  -10.59 KCAL/MOL
REMARK 923 INTER-LIGAND FREE ENERGY PREDICTED BY IDOCK:   -8.18 KCAL/MOL
REMARK 924 INTRA-LIGAND FREE ENERGY PREDICTED BY IDOCK:   -2.40 KCAL/MOL
REMARK 927      BINDING AFFINITY PREDICTED BY RF-SCORE:    0.00 PKD
ROOT
HETATM    1  C   UNL     1      -6.705   4.401  68.862  1.00  0.00    -0.046 C  
HETATM    2  O   UNL     1      -7.815   5.191  69.283  1.00  0.00    -0.078 OA 
ENDROOT
BRANCH   2   3
HETATM    3  C   UNL     1      -8.811   5.379  68.357  1.00  0.00    -0.100 A  
HETATM    4  C   UNL     1      -8.686   4.898  67.043  1.00  0.00    -0.103 A  
HETATM    5  C   UNL     1      -9.722   5.048  66.123  1.00  0.00    -0.196 A  
HETATM    6  C   UNL     1     -10.888   5.705  66.493  1.00  0.00    -0.239 A  
HETATM    7  C   UNL     1     -11.004   6.231  67.778  1.00  0.00    -0.427 A  
HETATM    8  C   UNL     1      -9.973   6.088  68.719  1.00  0.00    -0.150 A  
BRANCH   8   9
HETATM    9  O   UNL     1     -10.289   6.675  69.921  1.00  0.00    -0.188 OA 
BRANCH   9  10
HETATM   10  C   UNL     1     -11.137   5.945  70.798  1.00  0.00    -0.254 C  
BRANCH  10  11
HETATM   11  C   UNL     1     -12.061   6.906  71.565  1.00  0.00    -0.358 C  
BRANCH  11  12
HETATM   12  N   UNL     1     -12.460   8.095  70.790  1.00  0.00    -0.494 NA 
HETATM   13  H   UNL     1     -13.463   8.097  70.608  1.00  0.00     0.000 HD 
BRANCH  12  14
HETATM   14  C   UNL     1     -12.032   9.356  71.435  1.00  0.00    -0.371 C  
BRANCH  14  15
HETATM   15  C   UNL     1     -10.903  10.063  70.653  1.00  0.00    -0.297 C  
HETATM   16  O   UNL     1      -9.678   9.347  70.836  1.00  0.00    -0.272 OA 
HETATM   17  H   UNL     1      -8.984   9.782  70.355  1.00  0.00     0.000 HD 
BRANCH  15  18
HETATM   18  C   UNL     1     -11.264  10.154  69.165  1.00  0.00    -0.183 C  
BRANCH  18  19
HETATM   19  O   UNL     1     -10.279  10.889  68.447  1.00  0.00    -0.165 OA 
BRANCH  19  20
HETATM   20  C   UNL     1      -9.750  10.261  67.344  1.00  0.00    -0.160 A  
HETATM   21  C   UNL     1      -8.863   9.170  67.397  1.00  0.00    -0.125 A  
HETATM   22  C   UNL     1      -8.389   8.563  66.238  1.00  0.00    -0.118 A  
HETATM   23  C   UNL     1      -8.779   9.015  64.978  1.00  0.00    -0.217 A  
HETATM   24  C   UNL     1      -9.654  10.107  64.930  1.00  0.00    -0.306 A  
HETATM   25  C   UNL     1     -10.144  10.743  66.073  1.00  0.00    -0.305 A  
HETATM   26  C   UNL     1     -10.986  11.818  65.630  1.00  0.00    -0.348 A  
HETATM   27  C   UNL     1     -11.735  12.815  66.293  1.00  0.00    -0.460 A  
HETATM   28  C   UNL     1     -12.475  13.737  65.545  1.00  0.00    -0.548 A  
HETATM   29  C   UNL     1     -12.478  13.677  64.154  1.00  0.00    -0.292 A  
HETATM   30  C   UNL     1     -11.741  12.704  63.472  1.00  0.00    -0.604 A  
HETATM   31  C   UNL     1     -11.003  11.793  64.239  1.00  0.00    -0.359 A  
HETATM   32  N   UNL     1     -10.195  10.757  63.844  1.00  0.00    -0.419 NA 
HETATM   33  H   UNL     1     -10.019  10.502  62.873  1.00  0.00     0.000 HD 
ENDBRANCH  19  20
ENDBRANCH  18  19
ENDBRANCH  15  18
ENDBRANCH  14  15
ENDBRANCH  12  14
ENDBRANCH  11  12
ENDBRANCH  10  11
ENDBRANCH   9  10
ENDBRANCH   8   9
ENDBRANCH   2   3
TORSDOF 10
ENDMDL
MODEL      120
REMARK 921   NORMALIZED FREE ENERGY PREDICTED BY IDOCK:   -5.48 KCAL/MOL
REMARK 922        TOTAL FREE ENERGY PREDICTED BY IDOCK:  -10.54 KCAL/MOL
REMARK 923 INTER-LIGAND FREE ENERGY PREDICTED BY IDOCK:   -8.98 KCAL/MOL
REMARK 924 INTRA-LIGAND FREE ENERGY PREDICTED BY IDOCK:   -1.55 KCAL/MOL
REMARK 927      BINDING AFFINITY PREDICTED BY RF-SCORE:    0.00 PKD
ROOT
HETATM    1  C   UNL     1     -10.667  16.643  69.700  1.00  0.00    -0.286 C  
HETATM    2  O   UNL     1     -11.053  16.838  68.342  1.00  0.00    -0.357 OA 
ENDROOT
BRANCH   2   3
HETATM    3  C   UNL     1     -10.312  17.743  67.625  1.00  0.00    -0.373 A  
HETATM    4  C   UNL     1     -10.692  19.093  67.539  1.00  0.00    -0.555 A  
HETATM    5  C   UNL     1      -9.907  20.018  66.852  1.00  0.00    -0.571 A  
HETATM    6  C   UNL     1      -8.744  19.603  66.217  1.00  0.00    -0.401 A  
HETATM    7  C   UNL     1      -8.382  18.257  66.251  1.00  0.00    -0.230 A  
HETATM    8  C   UNL     1      -9.158  17.313  66.940  1.00  0.00    -0.236 A  
BRANCH   8   9
HETATM    9  O   UNL     1      -8.627  16.048  66.853  1.00  0.00    -0.190 OA 
BRANCH   9  10
HETATM   10  C   UNL     1      -7.307  15.862  67.349  1.00  0.00    -0.193 C  
BRANCH  10  11
HETATM   11  C   UNL     1      -7.351  15.244  68.757  1.00  0.00    -0.131 C  
BRANCH  11  12
HETATM   12  N   UNL     1      -8.235  14.069  68.864  1.00  0.00    -0.323 NA 
HETATM   13  H   UNL     1      -9.094  14.203  68.331  1.00  0.00     0.000 HD 
BRANCH  12  14
HETATM   14  C   UNL     1      -7.553  12.816  68.471  1.00  0.00    -0.120 C  
BRANCH  14  15
HETATM   15  C   UNL     1      -8.389  11.562  68.805  1.00  0.00    -0.069 C  
HETATM   16  O   UNL     1      -9.707  11.960  69.197  1.00  0.00    -0.407 OA 
HETATM   17  H   UNL     1     -10.222  11.188  69.403  1.00  0.00     0.000 HD 
BRANCH  15  18
HETATM   18  C   UNL     1      -8.442  10.620  67.596  1.00  0.00    -0.118 C  
BRANCH  18  19
HETATM   19  O   UNL     1      -7.886  11.242  66.442  1.00  0.00    -0.158 OA 
BRANCH  19  20
HETATM   20  C   UNL     1      -8.209  10.665  65.237  1.00  0.00    -0.105 A  
HETATM   21  C   UNL     1      -7.543   9.558  64.679  1.00  0.00    -0.113 A  
HETATM   22  C   UNL     1      -7.943   9.006  63.466  1.00  0.00    -0.150 A  
HETATM   23  C   UNL     1      -9.023   9.530  62.759  1.00  0.00    -0.243 A  
HETATM   24  C   UNL     1      -9.678  10.637  63.313  1.00  0.00    -0.340 A  
HETATM   25  C   UNL     1      -9.300  11.220  64.524  1.00  0.00    -0.149 A  
HETATM   26  C   UNL     1     -10.180  12.330  64.753  1.00  0.00    -0.308 A  
HETATM   27  C   UNL     1     -10.290  13.302  65.771  1.00  0.00    -0.290 A  
HETATM   28  C   UNL     1     -11.293  14.274  65.695  1.00  0.00    -0.317 A  
HETATM   29  C   UNL     1     -12.183  14.287  64.624  1.00  0.00    -0.470 A  
HETATM   30  C   UNL     1     -12.095  13.339  63.600  1.00  0.00    -0.551 A  
HETATM   31  C   UNL     1     -11.079  12.378  63.692  1.00  0.00    -0.473 A  
HETATM   32  N   UNL     1     -10.756  11.352  62.842  1.00  0.00    -0.758 NA 
HETATM   33  H   UNL     1     -11.250  11.145  61.973  1.00  0.00     0.000 HD 
ENDBRANCH  19  20
ENDBRANCH  18  19
ENDBRANCH  15  18
ENDBRANCH  14  15
ENDBRANCH  12  14
ENDBRANCH  11  12
ENDBRANCH  10  11
ENDBRANCH   9  10
ENDBRANCH   8   9
ENDBRANCH   2   3
TORSDOF 10
ENDMDL
MODEL      121
REMARK 921   NORMALIZED FREE ENERGY PREDICTED BY IDOCK:   -5.48 KCAL/MOL
REMARK 922        TOTAL FREE ENERGY PREDICTED BY IDOCK:  -10.53 KCAL/MOL
REMARK 923 INTER-LIGAND FREE ENERGY PREDICTED BY IDOCK:   -9.61 KCAL/MOL
REMARK 924 INTRA-LIGAND FREE ENERGY PREDICTED BY IDOCK:   -0.92 KCAL/MOL
REMARK 927      BINDING AFFINITY PREDICTED BY RF-SCORE:    0.00 PKD
ROOT
HETATM    1  C   UNL     1      -8.875   5.178  65.813  1.00  0.00    -0.143 C  
HETATM    2  O   UNL     1      -9.671   5.512  66.948  1.00  0.00    -0.131 OA 
ENDROOT
BRANCH   2   3
HETATM    3  C   UNL     1      -9.610   4.644  68.008  1.00  0.00    -0.155 A  
HETATM    4  C   UNL     1      -9.356   3.276  67.817  1.00  0.00    -0.246 A  
HETATM    5  C   UNL     1      -9.245   2.408  68.903  1.00  0.00    -0.214 A  
HETATM    6  C   UNL     1      -9.414   2.889  70.194  1.00  0.00    -0.198 A  
HETATM    7  C   UNL     1      -9.718   4.234  70.394  1.00  0.00    -0.280 A  
HETATM    8  C   UNL     1      -9.831   5.123  69.315  1.00  0.00    -0.190 A  
BRANCH   8   9
HETATM    9  O   UNL     1     -10.132   6.399  69.728  1.00  0.00    -0.169 OA 
BRANCH   9  10
HETATM   10  C   UNL     1     -10.644   6.551  71.046  1.00  0.00    -0.231 C  
BRANCH  10  11
HETATM   11  C   UNL     1      -9.935   7.715  71.760  1.00  0.00    -0.172 C  
BRANCH  11  12
HETATM   12  N   UNL     1     -10.812   8.869  72.031  1.00  0.00    -0.358 NA 
HETATM   13  H   UNL     1     -10.266   9.712  72.214  1.00  0.00     0.000 HD 
BRANCH  12  14
HETATM   14  C   UNL     1     -11.794   9.095  70.948  1.00  0.00    -0.270 C  
BRANCH  14  15
HETATM   15  C   UNL     1     -13.217   9.356  71.490  1.00  0.00    -0.384 C  
HETATM   16  O   UNL     1     -13.438   8.548  72.650  1.00  0.00    -0.614 OA 
HETATM   17  H   UNL     1     -14.314   8.709  72.984  1.00  0.00     0.000 HD 
BRANCH  15  18
HETATM   18  C   UNL     1     -13.396  10.843  71.818  1.00  0.00    -0.310 C  
BRANCH  18  19
HETATM   19  O   UNL     1     -12.499  11.644  71.056  1.00  0.00    -0.379 OA 
BRANCH  19  20
HETATM   20  C   UNL     1     -12.647  13.004  71.193  1.00  0.00    -0.297 A  
HETATM   21  C   UNL     1     -13.075  13.644  72.370  1.00  0.00    -0.498 A  
HETATM   22  C   UNL     1     -13.174  15.030  72.448  1.00  0.00    -0.486 A  
HETATM   23  C   UNL     1     -12.849  15.837  71.359  1.00  0.00    -0.504 A  
HETATM   24  C   UNL     1     -12.432  15.195  70.186  1.00  0.00    -0.318 A  
HETATM   25  C   UNL     1     -12.327  13.807  70.072  1.00  0.00    -0.364 A  
HETATM   26  C   UNL     1     -11.895  13.525  68.733  1.00  0.00    -0.390 A  
HETATM   27  C   UNL     1     -11.632  12.337  68.016  1.00  0.00    -0.408 A  
HETATM   28  C   UNL     1     -11.207  12.411  66.685  1.00  0.00    -0.366 A  
HETATM   29  C   UNL     1     -11.040  13.647  66.065  1.00  0.00    -0.297 A  
HETATM   30  C   UNL     1     -11.297  14.838  66.750  1.00  0.00    -0.347 A  
HETATM   31  C   UNL     1     -11.727  14.742  68.080  1.00  0.00    -0.325 A  
HETATM   32  N   UNL     1     -12.057  15.728  68.974  1.00  0.00    -0.563 NA 
HETATM   33  H   UNL     1     -12.028  16.727  68.768  1.00  0.00     0.000 HD 
ENDBRANCH  19  20
ENDBRANCH  18  19
ENDBRANCH  15  18
ENDBRANCH  14  15
ENDBRANCH  12  14
ENDBRANCH  11  12
ENDBRANCH  10  11
ENDBRANCH   9  10
ENDBRANCH   8   9
ENDBRANCH   2   3
TORSDOF 10
ENDMDL
MODEL      122
REMARK 921   NORMALIZED FREE ENERGY PREDICTED BY IDOCK:   -5.48 KCAL/MOL
REMARK 922        TOTAL FREE ENERGY PREDICTED BY IDOCK:  -10.53 KCAL/MOL
REMARK 923 INTER-LIGAND FREE ENERGY PREDICTED BY IDOCK:   -8.97 KCAL/MOL
REMARK 924 INTRA-LIGAND FREE ENERGY PREDICTED BY IDOCK:   -1.55 KCAL/MOL
REMARK 927      BINDING AFFINITY PREDICTED BY RF-SCORE:    0.00 PKD
ROOT
HETATM    1  C   UNL     1     -11.826  12.882  63.343  1.00  0.00    -0.507 C  
HETATM    2  O   UNL     1     -10.855  13.422  64.237  1.00  0.00    -0.392 OA 
ENDROOT
BRANCH   2   3
HETATM    3  C   UNL     1     -11.191  13.421  65.567  1.00  0.00    -0.288 A  
HETATM    4  C   UNL     1     -11.508  14.613  66.240  1.00  0.00    -0.351 A  
HETATM    5  C   UNL     1     -11.897  14.600  67.579  1.00  0.00    -0.375 A  
HETATM    6  C   UNL     1     -11.949  13.399  68.274  1.00  0.00    -0.352 A  
HETATM    7  C   UNL     1     -11.587  12.216  67.632  1.00  0.00    -0.413 A  
HETATM    8  C   UNL     1     -11.196  12.209  66.285  1.00  0.00    -0.334 A  
BRANCH   8   9
HETATM    9  O   UNL     1     -10.884  10.944  65.846  1.00  0.00    -0.178 OA 
BRANCH   9  10
HETATM   10  C   UNL     1      -9.505  10.605  65.765  1.00  0.00    -0.200 C  
BRANCH  10  11
HETATM   11  C   UNL     1      -9.290   9.146  66.200  1.00  0.00    -0.228 C  
BRANCH  11  12
HETATM   12  N   UNL     1      -8.236   8.976  67.217  1.00  0.00    -0.104 NA 
HETATM   13  H   UNL     1      -7.311   8.950  66.788  1.00  0.00     0.000 HD 
BRANCH  12  14
HETATM   14  C   UNL     1      -8.305  10.009  68.274  1.00  0.00    -0.110 C  
BRANCH  14  15
HETATM   15  C   UNL     1      -7.275   9.767  69.399  1.00  0.00    -0.076 C  
HETATM   16  O   UNL     1      -7.075  10.981  70.130  1.00  0.00    -0.427 OA 
HETATM   17  H   UNL     1      -6.442  10.832  70.822  1.00  0.00     0.000 HD 
BRANCH  15  18
HETATM   18  C   UNL     1      -7.756   8.645  70.328  1.00  0.00    -0.083 C  
BRANCH  18  19
HETATM   19  O   UNL     1      -8.789   7.883  69.712  1.00  0.00    -0.140 OA 
BRANCH  19  20
HETATM   20  C   UNL     1      -9.397   6.944  70.511  1.00  0.00    -0.159 A  
HETATM   21  C   UNL     1      -8.922   5.634  70.706  1.00  0.00    -0.154 A  
HETATM   22  C   UNL     1      -9.574   4.744  71.554  1.00  0.00    -0.220 A  
HETATM   23  C   UNL     1     -10.725   5.120  72.244  1.00  0.00    -0.266 A  
HETATM   24  C   UNL     1     -11.200   6.421  72.041  1.00  0.00    -0.281 A  
HETATM   25  C   UNL     1     -10.575   7.338  71.193  1.00  0.00    -0.236 A  
HETATM   26  C   UNL     1     -11.353   8.543  71.225  1.00  0.00    -0.325 A  
HETATM   27  C   UNL     1     -11.251   9.795  70.581  1.00  0.00    -0.402 A  
HETATM   28  C   UNL     1     -12.200  10.789  70.844  1.00  0.00    -0.487 A  
HETATM   29  C   UNL     1     -13.242  10.551  71.737  1.00  0.00    -0.522 A  
HETATM   30  C   UNL     1     -13.370   9.319  72.386  1.00  0.00    -0.521 A  
HETATM   31  C   UNL     1     -12.411   8.336  72.104  1.00  0.00    -0.352 A  
HETATM   32  N   UNL     1     -12.297   7.054  72.579  1.00  0.00    -0.492 NA 
HETATM   33  H   UNL     1     -12.941   6.626  73.245  1.00  0.00     0.000 HD 
ENDBRANCH  19  20
ENDBRANCH  18  19
ENDBRANCH  15  18
ENDBRANCH  14  15
ENDBRANCH  12  14
ENDBRANCH  11  12
ENDBRANCH  10  11
ENDBRANCH   9  10
ENDBRANCH   8   9
ENDBRANCH   2   3
TORSDOF 10
ENDMDL
MODEL      123
REMARK 921   NORMALIZED FREE ENERGY PREDICTED BY IDOCK:   -5.48 KCAL/MOL
REMARK 922        TOTAL FREE ENERGY PREDICTED BY IDOCK:  -10.52 KCAL/MOL
REMARK 923 INTER-LIGAND FREE ENERGY PREDICTED BY IDOCK:   -9.87 KCAL/MOL
REMARK 924 INTRA-LIGAND FREE ENERGY PREDICTED BY IDOCK:   -0.66 KCAL/MOL
REMARK 927      BINDING AFFINITY PREDICTED BY RF-SCORE:    0.00 PKD
ROOT
HETATM    1  C   UNL     1      -9.872   3.816  65.332  1.00  0.00    -0.130 C  
HETATM    2  O   UNL     1      -9.406   4.971  66.027  1.00  0.00    -0.146 OA 
ENDROOT
BRANCH   2   3
HETATM    3  C   UNL     1      -9.778   5.076  67.344  1.00  0.00    -0.158 A  
HETATM    4  C   UNL     1      -9.392   4.111  68.290  1.00  0.00    -0.214 A  
HETATM    5  C   UNL     1      -9.730   4.251  69.636  1.00  0.00    -0.284 A  
HETATM    6  C   UNL     1     -10.483   5.341  70.052  1.00  0.00    -0.351 A  
HETATM    7  C   UNL     1     -10.915   6.278  69.115  1.00  0.00    -0.442 A  
HETATM    8  C   UNL     1     -10.582   6.156  67.758  1.00  0.00    -0.269 A  
BRANCH   8   9
HETATM    9  O   UNL     1     -11.104   7.182  67.006  1.00  0.00    -0.345 OA 
BRANCH   9  10
HETATM   10  C   UNL     1     -10.223   8.240  66.651  1.00  0.00    -0.263 C  
BRANCH  10  11
HETATM   11  C   UNL     1     -10.663   9.548  67.330  1.00  0.00    -0.227 C  
BRANCH  11  12
HETATM   12  N   UNL     1     -10.581  10.731  66.454  1.00  0.00    -0.232 NA 
HETATM   13  H   UNL     1     -10.571  10.461  65.470  1.00  0.00     0.000 HD 
BRANCH  12  14
HETATM   14  C   UNL     1     -11.657  11.709  66.729  1.00  0.00    -0.141 C  
BRANCH  14  15
HETATM   15  C   UNL     1     -11.911  12.655  65.535  1.00  0.00    -0.431 C  
HETATM   16  O   UNL     1     -12.958  12.121  64.720  1.00  0.00    -0.598 OA 
HETATM   17  H   UNL     1     -13.115  12.703  63.985  1.00  0.00     0.000 HD 
BRANCH  15  18
HETATM   18  C   UNL     1     -12.272  14.058  66.036  1.00  0.00    -0.458 C  
BRANCH  18  19
HETATM   19  O   UNL     1     -12.061  14.167  67.440  1.00  0.00    -0.402 OA 
BRANCH  19  20
HETATM   20  C   UNL     1     -11.408  15.301  67.860  1.00  0.00    -0.334 A  
HETATM   21  C   UNL     1     -10.657  16.147  67.022  1.00  0.00    -0.292 A  
HETATM   22  C   UNL     1     -10.046  17.297  67.511  1.00  0.00    -0.315 A  
HETATM   23  C   UNL     1     -10.156  17.656  68.853  1.00  0.00    -0.351 A  
HETATM   24  C   UNL     1     -10.896  16.807  69.686  1.00  0.00    -0.204 A  
HETATM   25  C   UNL     1     -11.517  15.643  69.230  1.00  0.00    -0.368 A  
HETATM   26  C   UNL     1     -12.155  15.033  70.362  1.00  0.00    -0.384 A  
HETATM   27  C   UNL     1     -12.908  13.853  70.547  1.00  0.00    -0.250 A  
HETATM   28  C   UNL     1     -13.407  13.541  71.816  1.00  0.00    -0.480 A  
HETATM   29  C   UNL     1     -13.166  14.387  72.896  1.00  0.00    -0.613 A  
HETATM   30  C   UNL     1     -12.420  15.559  72.743  1.00  0.00    -0.519 A  
HETATM   31  C   UNL     1     -11.925  15.850  71.465  1.00  0.00    -0.471 A  
HETATM   32  N   UNL     1     -11.167  16.908  71.031  1.00  0.00    -0.196 NA 
HETATM   33  H   UNL     1     -10.845  17.670  71.629  1.00  0.00     0.000 HD 
ENDBRANCH  19  20
ENDBRANCH  18  19
ENDBRANCH  15  18
ENDBRANCH  14  15
ENDBRANCH  12  14
ENDBRANCH  11  12
ENDBRANCH  10  11
ENDBRANCH   9  10
ENDBRANCH   8   9
ENDBRANCH   2   3
TORSDOF 10
ENDMDL
MODEL      124
REMARK 921   NORMALIZED FREE ENERGY PREDICTED BY IDOCK:   -5.46 KCAL/MOL
REMARK 922        TOTAL FREE ENERGY PREDICTED BY IDOCK:  -10.51 KCAL/MOL
REMARK 923 INTER-LIGAND FREE ENERGY PREDICTED BY IDOCK:   -9.37 KCAL/MOL
REMARK 924 INTRA-LIGAND FREE ENERGY PREDICTED BY IDOCK:   -1.13 KCAL/MOL
REMARK 927      BINDING AFFINITY PREDICTED BY RF-SCORE:    0.00 PKD
ROOT
HETATM    1  C   UNL     1      -8.033  15.984  68.528  1.00  0.00    -0.159 C  
HETATM    2  O   UNL     1      -9.426  16.124  68.259  1.00  0.00    -0.203 OA 
ENDROOT
BRANCH   2   3
HETATM    3  C   UNL     1      -9.830  17.344  67.776  1.00  0.00    -0.283 A  
HETATM    4  C   UNL     1     -10.025  18.439  68.634  1.00  0.00    -0.415 A  
HETATM    5  C   UNL     1     -10.386  19.689  68.131  1.00  0.00    -0.561 A  
HETATM    6  C   UNL     1     -10.584  19.856  66.767  1.00  0.00    -0.536 A  
HETATM    7  C   UNL     1     -10.443  18.765  65.911  1.00  0.00    -0.424 A  
HETATM    8  C   UNL     1     -10.078  17.501  66.399  1.00  0.00    -0.345 A  
BRANCH   8   9
HETATM    9  O   UNL     1      -9.992  16.567  65.393  1.00  0.00    -0.552 OA 
BRANCH   9  10
HETATM   10  C   UNL     1     -11.193  15.905  65.017  1.00  0.00    -0.290 C  
BRANCH  10  11
HETATM   11  C   UNL     1     -11.033  14.384  65.178  1.00  0.00    -0.373 C  
BRANCH  11  12
HETATM   12  N   UNL     1     -10.530  13.974  66.502  1.00  0.00    -0.278 NA 
HETATM   13  H   UNL     1     -10.496  14.766  67.144  1.00  0.00     0.000 HD 
BRANCH  12  14
HETATM   14  C   UNL     1     -11.307  12.854  67.076  1.00  0.00    -0.309 C  
BRANCH  14  15
HETATM   15  C   UNL     1     -10.492  12.039  68.103  1.00  0.00    -0.202 C  
HETATM   16  O   UNL     1      -9.637  12.920  68.838  1.00  0.00    -0.411 OA 
HETATM   17  H   UNL     1      -9.136  12.419  69.471  1.00  0.00     0.000 HD 
BRANCH  15  18
HETATM   18  C   UNL     1     -11.434  11.281  69.047  1.00  0.00    -0.302 C  
BRANCH  18  19
HETATM   19  O   UNL     1     -10.698  10.583  70.047  1.00  0.00    -0.276 OA 
BRANCH  19  20
HETATM   20  C   UNL     1     -11.347   9.524  70.637  1.00  0.00    -0.301 A  
HETATM   21  C   UNL     1     -12.079   9.605  71.836  1.00  0.00    -0.380 A  
HETATM   22  C   UNL     1     -12.736   8.497  72.361  1.00  0.00    -0.394 A  
HETATM   23  C   UNL     1     -12.694   7.262  71.716  1.00  0.00    -0.370 A  
HETATM   24  C   UNL     1     -11.956   7.184  70.528  1.00  0.00    -0.214 A  
HETATM   25  C   UNL     1     -11.280   8.273  69.976  1.00  0.00    -0.081 A  
HETATM   26  C   UNL     1     -10.629   7.807  68.785  1.00  0.00    -0.161 A  
HETATM   27  C   UNL     1      -9.796   8.414  67.820  1.00  0.00    -0.218 A  
HETATM   28  C   UNL     1      -9.319   7.660  66.743  1.00  0.00    -0.218 A  
HETATM   29  C   UNL     1      -9.662   6.316  66.617  1.00  0.00    -0.195 A  
HETATM   30  C   UNL     1     -10.481   5.688  67.559  1.00  0.00    -0.294 A  
HETATM   31  C   UNL     1     -10.944   6.461  68.633  1.00  0.00    -0.330 A  
HETATM   32  N   UNL     1     -11.741   6.111  69.693  1.00  0.00    -0.299 NA 
HETATM   33  H   UNL     1     -12.124   5.177  69.843  1.00  0.00     0.000 HD 
ENDBRANCH  19  20
ENDBRANCH  18  19
ENDBRANCH  15  18
ENDBRANCH  14  15
ENDBRANCH  12  14
ENDBRANCH  11  12
ENDBRANCH  10  11
ENDBRANCH   9  10
ENDBRANCH   8   9
ENDBRANCH   2   3
TORSDOF 10
ENDMDL
MODEL      125
REMARK 921   NORMALIZED FREE ENERGY PREDICTED BY IDOCK:   -5.46 KCAL/MOL
REMARK 922        TOTAL FREE ENERGY PREDICTED BY IDOCK:  -10.50 KCAL/MOL
REMARK 923 INTER-LIGAND FREE ENERGY PREDICTED BY IDOCK:   -8.90 KCAL/MOL
REMARK 924 INTRA-LIGAND FREE ENERGY PREDICTED BY IDOCK:   -1.60 KCAL/MOL
REMARK 927      BINDING AFFINITY PREDICTED BY RF-SCORE:    0.00 PKD
ROOT
HETATM    1  C   UNL     1     -11.642  15.606  71.517  1.00  0.00    -0.435 C  
HETATM    2  O   UNL     1     -12.266  15.152  70.318  1.00  0.00    -0.307 OA 
ENDROOT
BRANCH   2   3
HETATM    3  C   UNL     1     -12.176  13.808  70.060  1.00  0.00    -0.342 A  
HETATM    4  C   UNL     1     -12.421  12.854  71.063  1.00  0.00    -0.374 A  
HETATM    5  C   UNL     1     -12.378  11.489  70.781  1.00  0.00    -0.472 A  
HETATM    6  C   UNL     1     -12.063  11.056  69.500  1.00  0.00    -0.400 A  
HETATM    7  C   UNL     1     -11.768  11.991  68.509  1.00  0.00    -0.387 A  
HETATM    8  C   UNL     1     -11.809  13.368  68.773  1.00  0.00    -0.351 A  
BRANCH   8   9
HETATM    9  O   UNL     1     -11.489  14.114  67.664  1.00  0.00    -0.302 OA 
BRANCH   9  10
HETATM   10  C   UNL     1     -10.179  13.958  67.132  1.00  0.00    -0.258 C  
BRANCH  10  11
HETATM   11  C   UNL     1     -10.020  14.806  65.858  1.00  0.00    -0.326 C  
BRANCH  11  12
HETATM   12  N   UNL     1     -10.114  14.027  64.609  1.00  0.00    -0.644 NA 
HETATM   13  H   UNL     1      -9.565  13.169  64.667  1.00  0.00     0.000 HD 
BRANCH  12  14
HETATM   14  C   UNL     1     -11.514  13.740  64.231  1.00  0.00    -0.340 C  
BRANCH  14  15
HETATM   15  C   UNL     1     -11.861  12.240  64.355  1.00  0.00    -0.388 C  
HETATM   16  O   UNL     1     -13.114  11.987  63.712  1.00  0.00    -0.730 OA 
HETATM   17  H   UNL     1     -13.327  11.064  63.788  1.00  0.00     0.000 HD 
BRANCH  15  18
HETATM   18  C   UNL     1     -10.749  11.384  63.737  1.00  0.00    -0.403 C  
BRANCH  18  19
HETATM   19  O   UNL     1      -9.957  10.771  64.749  1.00  0.00    -0.269 OA 
BRANCH  19  20
HETATM   20  C   UNL     1      -8.950   9.948  64.305  1.00  0.00    -0.243 A  
HETATM   21  C   UNL     1      -8.198  10.168  63.136  1.00  0.00    -0.160 A  
HETATM   22  C   UNL     1      -7.170   9.308  62.761  1.00  0.00    -0.100 A  
HETATM   23  C   UNL     1      -6.847   8.194  63.533  1.00  0.00    -0.076 A  
HETATM   24  C   UNL     1      -7.604   7.973  64.690  1.00  0.00    -0.111 A  
HETATM   25  C   UNL     1      -8.645   8.812  65.093  1.00  0.00    -0.209 A  
HETATM   26  C   UNL     1      -9.191   8.258  66.299  1.00  0.00    -0.258 A  
HETATM   27  C   UNL     1     -10.250   8.628  67.157  1.00  0.00    -0.353 A  
HETATM   28  C   UNL     1     -10.528   7.853  68.288  1.00  0.00    -0.212 A  
HETATM   29  C   UNL     1      -9.767   6.722  68.573  1.00  0.00    -0.133 A  
HETATM   30  C   UNL     1      -8.716   6.330  67.738  1.00  0.00    -0.113 A  
HETATM   31  C   UNL     1      -8.457   7.117  66.608  1.00  0.00    -0.121 A  
HETATM   32  N   UNL     1      -7.512   6.968  65.626  1.00  0.00    -0.082 NA 
HETATM   33  H   UNL     1      -6.829   6.211  65.594  1.00  0.00     0.000 HD 
ENDBRANCH  19  20
ENDBRANCH  18  19
ENDBRANCH  15  18
ENDBRANCH  14  15
ENDBRANCH  12  14
ENDBRANCH  11  12
ENDBRANCH  10  11
ENDBRANCH   9  10
ENDBRANCH   8   9
ENDBRANCH   2   3
TORSDOF 10
ENDMDL
MODEL      126
REMARK 921   NORMALIZED FREE ENERGY PREDICTED BY IDOCK:   -5.46 KCAL/MOL
REMARK 922        TOTAL FREE ENERGY PREDICTED BY IDOCK:  -10.50 KCAL/MOL
REMARK 923 INTER-LIGAND FREE ENERGY PREDICTED BY IDOCK:   -9.42 KCAL/MOL
REMARK 924 INTRA-LIGAND FREE ENERGY PREDICTED BY IDOCK:   -1.09 KCAL/MOL
REMARK 927      BINDING AFFINITY PREDICTED BY RF-SCORE:    0.00 PKD
ROOT
HETATM    1  C   UNL     1      -7.858   9.153  70.596  1.00  0.00    -0.146 C  
HETATM    2  O   UNL     1      -8.422   8.915  71.884  1.00  0.00    -0.348 OA 
ENDROOT
BRANCH   2   3
HETATM    3  C   UNL     1      -9.553   8.140  71.917  1.00  0.00    -0.201 A  
HETATM    4  C   UNL     1      -9.479   6.747  72.079  1.00  0.00    -0.144 A  
HETATM    5  C   UNL     1     -10.635   5.971  72.162  1.00  0.00    -0.256 A  
HETATM    6  C   UNL     1     -11.882   6.573  72.057  1.00  0.00    -0.374 A  
HETATM    7  C   UNL     1     -11.968   7.947  71.844  1.00  0.00    -0.347 A  
HETATM    8  C   UNL     1     -10.817   8.744  71.761  1.00  0.00    -0.345 A  
BRANCH   8   9
HETATM    9  O   UNL     1     -11.122  10.068  71.552  1.00  0.00    -0.192 OA 
BRANCH   9  10
HETATM   10  C   UNL     1     -12.495  10.403  71.401  1.00  0.00    -0.415 C  
BRANCH  10  11
HETATM   11  C   UNL     1     -12.642  11.883  71.008  1.00  0.00    -0.283 C  
BRANCH  11  12
HETATM   12  N   UNL     1     -13.118  12.746  72.105  1.00  0.00    -0.391 NA 
HETATM   13  H   UNL     1     -12.937  12.320  73.014  1.00  0.00     0.000 HD 
BRANCH  12  14
HETATM   14  C   UNL     1     -12.552  14.110  72.032  1.00  0.00    -0.262 C  
BRANCH  14  15
HETATM   15  C   UNL     1     -12.874  14.810  70.693  1.00  0.00    -0.343 C  
HETATM   16  O   UNL     1     -14.108  15.523  70.815  1.00  0.00    -0.871 OA 
HETATM   17  H   UNL     1     -14.306  15.953  69.991  1.00  0.00     0.000 HD 
BRANCH  15  18
HETATM   18  C   UNL     1     -11.733  15.758  70.301  1.00  0.00    -0.358 C  
BRANCH  18  19
HETATM   19  O   UNL     1     -11.353  15.563  68.943  1.00  0.00    -0.281 OA 
BRANCH  19  20
HETATM   20  C   UNL     1     -10.106  15.021  68.743  1.00  0.00    -0.231 A  
HETATM   21  C   UNL     1      -8.985  15.280  69.552  1.00  0.00    -0.183 A  
HETATM   22  C   UNL     1      -7.757  14.672  69.308  1.00  0.00    -0.091 A  
HETATM   23  C   UNL     1      -7.594  13.780  68.250  1.00  0.00    -0.129 A  
HETATM   24  C   UNL     1      -8.710  13.532  67.441  1.00  0.00    -0.220 A  
HETATM   25  C   UNL     1      -9.954  14.128  67.654  1.00  0.00    -0.233 A  
HETATM   26  C   UNL     1     -10.833  13.653  66.624  1.00  0.00    -0.283 A  
HETATM   27  C   UNL     1     -12.183  13.900  66.294  1.00  0.00    -0.498 A  
HETATM   28  C   UNL     1     -12.759  13.250  65.197  1.00  0.00    -0.464 A  
HETATM   29  C   UNL     1     -12.009  12.362  64.430  1.00  0.00    -0.482 A  
HETATM   30  C   UNL     1     -10.668  12.102  64.731  1.00  0.00    -0.342 A  
HETATM   31  C   UNL     1     -10.110  12.767  65.831  1.00  0.00    -0.276 A  
HETATM   32  N   UNL     1      -8.839  12.713  66.342  1.00  0.00    -0.425 NA 
HETATM   33  H   UNL     1      -8.086  12.141  65.958  1.00  0.00     0.000 HD 
ENDBRANCH  19  20
ENDBRANCH  18  19
ENDBRANCH  15  18
ENDBRANCH  14  15
ENDBRANCH  12  14
ENDBRANCH  11  12
ENDBRANCH  10  11
ENDBRANCH   9  10
ENDBRANCH   8   9
ENDBRANCH   2   3
TORSDOF 10
ENDMDL
MODEL      127
REMARK 921   NORMALIZED FREE ENERGY PREDICTED BY IDOCK:   -5.46 KCAL/MOL
REMARK 922        TOTAL FREE ENERGY PREDICTED BY IDOCK:  -10.49 KCAL/MOL
REMARK 923 INTER-LIGAND FREE ENERGY PREDICTED BY IDOCK:   -9.30 KCAL/MOL
REMARK 924 INTRA-LIGAND FREE ENERGY PREDICTED BY IDOCK:   -1.20 KCAL/MOL
REMARK 927      BINDING AFFINITY PREDICTED BY RF-SCORE:    0.00 PKD
ROOT
HETATM    1  C   UNL     1     -10.344  19.704  66.201  1.00  0.00    -0.530 C  
HETATM    2  O   UNL     1      -9.624  19.391  67.392  1.00  0.00    -0.307 OA 
ENDROOT
BRANCH   2   3
HETATM    3  C   UNL     1      -8.270  19.608  67.356  1.00  0.00    -0.298 A  
HETATM    4  C   UNL     1      -7.741  20.902  67.220  1.00  0.00    -0.276 A  
HETATM    5  C   UNL     1      -6.364  21.120  67.236  1.00  0.00    -0.425 A  
HETATM    6  C   UNL     1      -5.494  20.046  67.359  1.00  0.00    -0.182 A  
HETATM    7  C   UNL     1      -6.004  18.752  67.443  1.00  0.00    -0.170 A  
HETATM    8  C   UNL     1      -7.387  18.513  67.432  1.00  0.00    -0.217 A  
BRANCH   8   9
HETATM    9  O   UNL     1      -7.678  17.173  67.526  1.00  0.00    -0.169 OA 
BRANCH   9  10
HETATM   10  C   UNL     1      -8.149  16.525  66.351  1.00  0.00    -0.327 C  
BRANCH  10  11
HETATM   11  C   UNL     1      -9.479  15.809  66.637  1.00  0.00    -0.257 C  
BRANCH  11  12
HETATM   12  N   UNL     1      -9.545  15.182  67.970  1.00  0.00    -0.202 NA 
HETATM   13  H   UNL     1      -8.736  15.438  68.537  1.00  0.00     0.000 HD 
BRANCH  12  14
HETATM   14  C   UNL     1     -10.809  15.489  68.673  1.00  0.00    -0.267 C  
BRANCH  14  15
HETATM   15  C   UNL     1     -11.428  14.242  69.341  1.00  0.00    -0.292 C  
HETATM   16  O   UNL     1     -12.855  14.351  69.319  1.00  0.00    -0.436 OA 
HETATM   17  H   UNL     1     -13.236  13.583  69.730  1.00  0.00     0.000 HD 
BRANCH  15  18
HETATM   18  C   UNL     1     -10.968  12.969  68.619  1.00  0.00    -0.265 C  
BRANCH  18  19
HETATM   19  O   UNL     1     -12.005  12.448  67.796  1.00  0.00    -0.429 OA 
BRANCH  19  20
HETATM   20  C   UNL     1     -11.866  12.670  66.446  1.00  0.00    -0.402 A  
HETATM   21  C   UNL     1     -12.442  13.750  65.752  1.00  0.00    -0.527 A  
HETATM   22  C   UNL     1     -12.235  13.930  64.388  1.00  0.00    -0.449 A  
HETATM   23  C   UNL     1     -11.446  13.044  63.657  1.00  0.00    -0.449 A  
HETATM   24  C   UNL     1     -10.882  11.964  64.350  1.00  0.00    -0.332 A  
HETATM   25  C   UNL     1     -11.074  11.751  65.716  1.00  0.00    -0.351 A  
HETATM   26  C   UNL     1     -10.368  10.550  66.059  1.00  0.00    -0.279 A  
HETATM   27  C   UNL     1     -10.200   9.817  67.254  1.00  0.00    -0.289 A  
HETATM   28  C   UNL     1      -9.420   8.656  67.252  1.00  0.00    -0.198 A  
HETATM   29  C   UNL     1      -8.808   8.220  66.079  1.00  0.00    -0.203 A  
HETATM   30  C   UNL     1      -8.961   8.923  64.880  1.00  0.00    -0.128 A  
HETATM   31  C   UNL     1      -9.750  10.081  64.904  1.00  0.00    -0.307 A  
HETATM   32  N   UNL     1     -10.076  10.948  63.892  1.00  0.00    -0.336 NA 
HETATM   33  H   UNL     1      -9.761  10.851  62.926  1.00  0.00     0.000 HD 
ENDBRANCH  19  20
ENDBRANCH  18  19
ENDBRANCH  15  18
ENDBRANCH  14  15
ENDBRANCH  12  14
ENDBRANCH  11  12
ENDBRANCH  10  11
ENDBRANCH   9  10
ENDBRANCH   8   9
ENDBRANCH   2   3
TORSDOF 10
ENDMDL
MODEL      128
REMARK 921   NORMALIZED FREE ENERGY PREDICTED BY IDOCK:   -5.45 KCAL/MOL
REMARK 922        TOTAL FREE ENERGY PREDICTED BY IDOCK:  -10.49 KCAL/MOL
REMARK 923 INTER-LIGAND FREE ENERGY PREDICTED BY IDOCK:   -9.11 KCAL/MOL
REMARK 924 INTRA-LIGAND FREE ENERGY PREDICTED BY IDOCK:   -1.38 KCAL/MOL
REMARK 927      BINDING AFFINITY PREDICTED BY RF-SCORE:    0.00 PKD
ROOT
HETATM    1  C   UNL     1     -11.104  16.089  64.823  1.00  0.00    -0.365 C  
HETATM    2  O   UNL     1      -9.864  16.538  65.367  1.00  0.00    -0.530 OA 
ENDROOT
BRANCH   2   3
HETATM    3  C   UNL     1      -9.939  17.554  66.287  1.00  0.00    -0.308 A  
HETATM    4  C   UNL     1     -10.648  18.735  66.013  1.00  0.00    -0.442 A  
HETATM    5  C   UNL     1     -10.762  19.742  66.972  1.00  0.00    -0.542 A  
HETATM    6  C   UNL     1     -10.146  19.595  68.208  1.00  0.00    -0.560 A  
HETATM    7  C   UNL     1      -9.397  18.450  68.472  1.00  0.00    -0.354 A  
HETATM    8  C   UNL     1      -9.273  17.425  67.522  1.00  0.00    -0.233 A  
BRANCH   8   9
HETATM    9  O   UNL     1      -8.497  16.388  67.982  1.00  0.00    -0.177 OA 
BRANCH   9  10
HETATM   10  C   UNL     1      -7.128  16.381  67.598  1.00  0.00    -0.135 C  
BRANCH  10  11
HETATM   11  C   UNL     1      -6.585  14.942  67.593  1.00  0.00    -0.165 C  
BRANCH  11  12
HETATM   12  N   UNL     1      -7.233  14.057  68.578  1.00  0.00    -0.101 NA 
HETATM   13  H   UNL     1      -7.814  14.590  69.226  1.00  0.00     0.000 HD 
BRANCH  12  14
HETATM   14  C   UNL     1      -8.007  12.973  67.936  1.00  0.00    -0.157 C  
BRANCH  14  15
HETATM   15  C   UNL     1      -9.502  13.012  68.318  1.00  0.00    -0.208 C  
HETATM   16  O   UNL     1      -9.757  14.167  69.122  1.00  0.00    -0.415 OA 
HETATM   17  H   UNL     1     -10.678  14.191  69.357  1.00  0.00     0.000 HD 
BRANCH  15  18
HETATM   18  C   UNL     1     -10.373  13.025  67.055  1.00  0.00    -0.247 C  
BRANCH  18  19
HETATM   19  O   UNL     1     -11.293  11.938  67.060  1.00  0.00    -0.302 OA 
BRANCH  19  20
HETATM   20  C   UNL     1     -10.736  10.683  66.989  1.00  0.00    -0.259 A  
HETATM   21  C   UNL     1     -10.047  10.178  65.871  1.00  0.00    -0.325 A  
HETATM   22  C   UNL     1      -9.482   8.907  65.879  1.00  0.00    -0.303 A  
HETATM   23  C   UNL     1      -9.579   8.084  67.000  1.00  0.00    -0.252 A  
HETATM   24  C   UNL     1     -10.273   8.587  68.108  1.00  0.00    -0.208 A  
HETATM   25  C   UNL     1     -10.857   9.854  68.132  1.00  0.00    -0.282 A  
HETATM   26  C   UNL     1     -11.489  10.005  69.411  1.00  0.00    -0.139 A  
HETATM   27  C   UNL     1     -12.244  11.032  70.018  1.00  0.00    -0.418 A  
HETATM   28  C   UNL     1     -12.726  10.861  71.320  1.00  0.00    -0.542 A  
HETATM   29  C   UNL     1     -12.465   9.686  72.020  1.00  0.00    -0.412 A  
HETATM   30  C   UNL     1     -11.724   8.650  71.442  1.00  0.00    -0.355 A  
HETATM   31  C   UNL     1     -11.255   8.840  70.135  1.00  0.00    -0.152 A  
HETATM   32  N   UNL     1     -10.523   8.005  69.330  1.00  0.00    -0.222 NA 
HETATM   33  H   UNL     1     -10.207   7.074  69.601  1.00  0.00     0.000 HD 
ENDBRANCH  19  20
ENDBRANCH  18  19
ENDBRANCH  15  18
ENDBRANCH  14  15
ENDBRANCH  12  14
ENDBRANCH  11  12
ENDBRANCH  10  11
ENDBRANCH   9  10
ENDBRANCH   8   9
ENDBRANCH   2   3
TORSDOF 10
ENDMDL
MODEL      129
REMARK 921   NORMALIZED FREE ENERGY PREDICTED BY IDOCK:   -5.45 KCAL/MOL
REMARK 922        TOTAL FREE ENERGY PREDICTED BY IDOCK:  -10.48 KCAL/MOL
REMARK 923 INTER-LIGAND FREE ENERGY PREDICTED BY IDOCK:   -8.80 KCAL/MOL
REMARK 924 INTRA-LIGAND FREE ENERGY PREDICTED BY IDOCK:   -1.68 KCAL/MOL
REMARK 927      BINDING AFFINITY PREDICTED BY RF-SCORE:    0.00 PKD
ROOT
HETATM    1  C   UNL     1     -10.770  19.990  67.654  1.00  0.00    -0.187 C  
HETATM    2  O   UNL     1      -9.710  19.657  66.760  1.00  0.00    -0.329 OA 
ENDROOT
BRANCH   2   3
HETATM    3  C   UNL     1      -8.619  19.041  67.318  1.00  0.00    -0.278 A  
HETATM    4  C   UNL     1      -7.947  19.600  68.417  1.00  0.00    -0.357 A  
HETATM    5  C   UNL     1      -6.869  18.943  69.010  1.00  0.00    -0.336 A  
HETATM    6  C   UNL     1      -6.430  17.730  68.497  1.00  0.00    -0.209 A  
HETATM    7  C   UNL     1      -7.055  17.189  67.375  1.00  0.00    -0.179 A  
HETATM    8  C   UNL     1      -8.142  17.835  66.766  1.00  0.00    -0.239 A  
BRANCH   8   9
HETATM    9  O   UNL     1      -8.613  17.136  65.680  1.00  0.00    -0.470 OA 
BRANCH   9  10
HETATM   10  C   UNL     1      -9.410  15.988  65.941  1.00  0.00    -0.300 C  
BRANCH  10  11
HETATM   11  C   UNL     1     -10.881  16.271  65.591  1.00  0.00    -0.208 C  
BRANCH  11  12
HETATM   12  N   UNL     1     -11.222  15.996  64.183  1.00  0.00    -1.115 NA 
HETATM   13  H   UNL     1     -10.401  16.074  63.583  1.00  0.00     0.000 HD 
BRANCH  12  14
HETATM   14  C   UNL     1     -11.885  14.684  64.013  1.00  0.00    -0.110 C  
BRANCH  14  15
HETATM   15  C   UNL     1     -12.283  14.047  65.361  1.00  0.00    -0.439 C  
HETATM   16  O   UNL     1     -13.660  14.325  65.630  1.00  0.00    -0.633 OA 
HETATM   17  H   UNL     1     -13.906  13.933  66.460  1.00  0.00     0.000 HD 
BRANCH  15  18
HETATM   18  C   UNL     1     -12.029  12.534  65.330  1.00  0.00    -0.438 C  
BRANCH  18  19
HETATM   19  O   UNL     1     -11.658  12.054  66.618  1.00  0.00    -0.436 OA 
BRANCH  19  20
HETATM   20  C   UNL     1     -10.325  12.158  66.934  1.00  0.00    -0.212 A  
HETATM   21  C   UNL     1      -9.300  11.412  66.323  1.00  0.00    -0.228 A  
HETATM   22  C   UNL     1      -7.965  11.590  66.673  1.00  0.00    -0.127 A  
HETATM   23  C   UNL     1      -7.594  12.518  67.645  1.00  0.00    -0.145 A  
HETATM   24  C   UNL     1      -8.617  13.252  68.257  1.00  0.00    -0.169 A  
HETATM   25  C   UNL     1      -9.966  13.094  67.935  1.00  0.00    -0.233 A  
HETATM   26  C   UNL     1     -10.709  13.990  68.774  1.00  0.00    -0.272 A  
HETATM   27  C   UNL     1     -12.083  14.274  68.934  1.00  0.00    -0.314 A  
HETATM   28  C   UNL     1     -12.488  15.237  69.864  1.00  0.00    -0.275 A  
HETATM   29  C   UNL     1     -11.546  15.917  70.632  1.00  0.00    -0.426 A  
HETATM   30  C   UNL     1     -10.179  15.652  70.498  1.00  0.00     0.132 A  
HETATM   31  C   UNL     1      -9.795  14.681  69.564  1.00  0.00     0.089 A  
HETATM   32  N   UNL     1      -8.547  14.218  69.234  1.00  0.00    -0.355 NA 
HETATM   33  H   UNL     1      -7.679  14.547  69.658  1.00  0.00     0.000 HD 
ENDBRANCH  19  20
ENDBRANCH  18  19
ENDBRANCH  15  18
ENDBRANCH  14  15
ENDBRANCH  12  14
ENDBRANCH  11  12
ENDBRANCH  10  11
ENDBRANCH   9  10
ENDBRANCH   8   9
ENDBRANCH   2   3
TORSDOF 10
ENDMDL
MODEL      130
REMARK 921   NORMALIZED FREE ENERGY PREDICTED BY IDOCK:   -5.44 KCAL/MOL
REMARK 922        TOTAL FREE ENERGY PREDICTED BY IDOCK:  -10.47 KCAL/MOL
REMARK 923 INTER-LIGAND FREE ENERGY PREDICTED BY IDOCK:   -9.20 KCAL/MOL
REMARK 924 INTRA-LIGAND FREE ENERGY PREDICTED BY IDOCK:   -1.28 KCAL/MOL
REMARK 927      BINDING AFFINITY PREDICTED BY RF-SCORE:    0.00 PKD
ROOT
HETATM    1  C   UNL     1     -10.083   4.938  70.277  1.00  0.00    -0.252 C  
HETATM    2  O   UNL     1     -11.165   5.724  69.780  1.00  0.00    -0.355 OA 
ENDROOT
BRANCH   2   3
HETATM    3  C   UNL     1     -11.342   6.951  70.366  1.00  0.00    -0.328 A  
HETATM    4  C   UNL     1     -12.131   7.102  71.519  1.00  0.00    -0.377 A  
HETATM    5  C   UNL     1     -12.266   8.344  72.139  1.00  0.00    -0.434 A  
HETATM    6  C   UNL     1     -11.637   9.459  71.601  1.00  0.00    -0.466 A  
HETATM    7  C   UNL     1     -10.893   9.332  70.429  1.00  0.00    -0.302 A  
HETATM    8  C   UNL     1     -10.744   8.091  69.793  1.00  0.00    -0.231 A  
BRANCH   8   9
HETATM    9  O   UNL     1      -9.974   8.184  68.658  1.00  0.00    -0.179 OA 
BRANCH   9  10
HETATM   10  C   UNL     1     -10.656   8.332  67.419  1.00  0.00    -0.253 C  
BRANCH  10  11
HETATM   11  C   UNL     1      -9.650   8.349  66.257  1.00  0.00    -0.216 C  
BRANCH  11  12
HETATM   12  N   UNL     1      -9.882   9.433  65.284  1.00  0.00    -0.438 NA 
HETATM   13  H   UNL     1     -10.668   9.216  64.671  1.00  0.00     0.000 HD 
BRANCH  12  14
HETATM   14  C   UNL     1     -10.062  10.747  65.939  1.00  0.00    -0.256 C  
BRANCH  14  15
HETATM   15  C   UNL     1      -8.752  11.278  66.562  1.00  0.00    -0.178 C  
HETATM   16  O   UNL     1      -7.742  11.353  65.552  1.00  0.00    -0.313 OA 
HETATM   17  H   UNL     1      -6.936  11.680  65.935  1.00  0.00     0.000 HD 
BRANCH  15  18
HETATM   18  C   UNL     1      -8.987  12.652  67.202  1.00  0.00    -0.205 C  
BRANCH  18  19
HETATM   19  O   UNL     1     -10.343  13.059  67.050  1.00  0.00    -0.244 OA 
BRANCH  19  20
HETATM   20  C   UNL     1     -10.991  13.424  68.206  1.00  0.00    -0.259 A  
HETATM   21  C   UNL     1     -11.664  12.531  69.060  1.00  0.00    -0.368 A  
HETATM   22  C   UNL     1     -12.274  12.967  70.232  1.00  0.00    -0.362 A  
HETATM   23  C   UNL     1     -12.239  14.309  70.604  1.00  0.00    -0.427 A  
HETATM   24  C   UNL     1     -11.576  15.197  69.748  1.00  0.00    -0.311 A  
HETATM   25  C   UNL     1     -10.959  14.795  68.562  1.00  0.00    -0.265 A  
HETATM   26  C   UNL     1     -10.410  15.971  67.950  1.00  0.00    -0.269 A  
HETATM   27  C   UNL     1      -9.702  16.217  66.754  1.00  0.00    -0.255 A  
HETATM   28  C   UNL     1      -9.292  17.518  66.445  1.00  0.00    -0.265 A  
HETATM   29  C   UNL     1      -9.578  18.571  67.311  1.00  0.00    -0.305 A  
HETATM   30  C   UNL     1     -10.282  18.358  68.500  1.00  0.00    -0.394 A  
HETATM   31  C   UNL     1     -10.687  17.048  68.787  1.00  0.00    -0.313 A  
HETATM   32  N   UNL     1     -11.388  16.556  69.859  1.00  0.00    -0.375 NA 
HETATM   33  H   UNL     1     -11.727  17.123  70.636  1.00  0.00     0.000 HD 
ENDBRANCH  19  20
ENDBRANCH  18  19
ENDBRANCH  15  18
ENDBRANCH  14  15
ENDBRANCH  12  14
ENDBRANCH  11  12
ENDBRANCH  10  11
ENDBRANCH   9  10
ENDBRANCH   8   9
ENDBRANCH   2   3
TORSDOF 10
ENDMDL
MODEL      131
REMARK 921   NORMALIZED FREE ENERGY PREDICTED BY IDOCK:   -5.43 KCAL/MOL
REMARK 922        TOTAL FREE ENERGY PREDICTED BY IDOCK:  -10.45 KCAL/MOL
REMARK 923 INTER-LIGAND FREE ENERGY PREDICTED BY IDOCK:   -8.71 KCAL/MOL
REMARK 924 INTRA-LIGAND FREE ENERGY PREDICTED BY IDOCK:   -1.74 KCAL/MOL
REMARK 927      BINDING AFFINITY PREDICTED BY RF-SCORE:    0.00 PKD
ROOT
HETATM    1  C   UNL     1      -5.632   9.352  67.050  1.00  0.00    -0.040 C  
HETATM    2  O   UNL     1      -6.804   9.924  66.473  1.00  0.00    -0.081 OA 
ENDROOT
BRANCH   2   3
HETATM    3  C   UNL     1      -7.985   9.276  66.731  1.00  0.00    -0.108 A  
HETATM    4  C   UNL     1      -8.027   8.135  67.550  1.00  0.00    -0.122 A  
HETATM    5  C   UNL     1      -9.237   7.510  67.849  1.00  0.00    -0.137 A  
HETATM    6  C   UNL     1     -10.421   8.000  67.313  1.00  0.00    -0.384 A  
HETATM    7  C   UNL     1     -10.387   9.100  66.458  1.00  0.00    -0.269 A  
HETATM    8  C   UNL     1      -9.179   9.743  66.148  1.00  0.00    -0.176 A  
BRANCH   8   9
HETATM    9  O   UNL     1      -9.366  10.803  65.293  1.00  0.00    -0.190 OA 
BRANCH   9  10
HETATM   10  C   UNL     1      -9.642  10.500  63.932  1.00  0.00    -0.309 C  
BRANCH  10  11
HETATM   11  C   UNL     1     -10.198  11.741  63.213  1.00  0.00    -0.416 C  
BRANCH  11  12
HETATM   12  N   UNL     1     -10.264  12.943  64.065  1.00  0.00    -0.564 NA 
HETATM   13  H   UNL     1      -9.558  13.627  63.793  1.00  0.00     0.000 HD 
BRANCH  12  14
HETATM   14  C   UNL     1     -11.614  13.547  64.079  1.00  0.00    -0.353 C  
BRANCH  14  15
HETATM   15  C   UNL     1     -12.293  13.437  65.462  1.00  0.00    -0.480 C  
HETATM   16  O   UNL     1     -12.018  12.151  66.025  1.00  0.00    -0.578 OA 
HETATM   17  H   UNL     1     -12.436  12.083  66.877  1.00  0.00     0.000 HD 
BRANCH  15  18
HETATM   18  C   UNL     1     -11.795  14.554  66.388  1.00  0.00    -0.349 C  
BRANCH  18  19
HETATM   19  O   UNL     1     -10.511  15.017  65.983  1.00  0.00    -0.288 OA 
BRANCH  19  20
HETATM   20  C   UNL     1      -9.522  14.948  66.936  1.00  0.00    -0.237 A  
HETATM   21  C   UNL     1      -8.936  13.753  67.391  1.00  0.00    -0.224 A  
HETATM   22  C   UNL     1      -7.916  13.760  68.338  1.00  0.00    -0.144 A  
HETATM   23  C   UNL     1      -7.437  14.955  68.871  1.00  0.00    -0.137 A  
HETATM   24  C   UNL     1      -8.030  16.142  68.422  1.00  0.00    -0.162 A  
HETATM   25  C   UNL     1      -9.058  16.171  67.478  1.00  0.00    -0.207 A  
HETATM   26  C   UNL     1      -9.418  17.547  67.287  1.00  0.00    -0.253 A  
HETATM   27  C   UNL     1     -10.380  18.209  66.494  1.00  0.00    -0.397 A  
HETATM   28  C   UNL     1     -10.471  19.605  66.535  1.00  0.00    -0.612 A  
HETATM   29  C   UNL     1      -9.618  20.343  67.352  1.00  0.00    -0.584 A  
HETATM   30  C   UNL     1      -8.659  19.713  68.151  1.00  0.00    -0.360 A  
HETATM   31  C   UNL     1      -8.588  18.315  68.098  1.00  0.00    -0.278 A  
HETATM   32  N   UNL     1      -7.765  17.447  68.769  1.00  0.00    -0.270 NA 
HETATM   33  H   UNL     1      -7.050  17.731  69.439  1.00  0.00     0.000 HD 
ENDBRANCH  19  20
ENDBRANCH  18  19
ENDBRANCH  15  18
ENDBRANCH  14  15
ENDBRANCH  12  14
ENDBRANCH  11  12
ENDBRANCH  10  11
ENDBRANCH   9  10
ENDBRANCH   8   9
ENDBRANCH   2   3
TORSDOF 10
ENDMDL
MODEL      132
REMARK 921   NORMALIZED FREE ENERGY PREDICTED BY IDOCK:   -5.42 KCAL/MOL
REMARK 922        TOTAL FREE ENERGY PREDICTED BY IDOCK:  -10.44 KCAL/MOL
REMARK 923 INTER-LIGAND FREE ENERGY PREDICTED BY IDOCK:   -8.52 KCAL/MOL
REMARK 924 INTRA-LIGAND FREE ENERGY PREDICTED BY IDOCK:   -1.92 KCAL/MOL
REMARK 927      BINDING AFFINITY PREDICTED BY RF-SCORE:    0.00 PKD
ROOT
HETATM    1  C   UNL     1     -10.936   5.920  71.617  1.00  0.00    -0.268 C  
HETATM    2  O   UNL     1     -10.383   7.161  71.185  1.00  0.00    -0.203 OA 
ENDROOT
BRANCH   2   3
HETATM    3  C   UNL     1     -10.413   7.400  69.834  1.00  0.00    -0.231 A  
HETATM    4  C   UNL     1     -10.210   6.366  68.905  1.00  0.00    -0.215 A  
HETATM    5  C   UNL     1     -10.292   6.606  67.534  1.00  0.00    -0.262 A  
HETATM    6  C   UNL     1     -10.550   7.888  67.070  1.00  0.00    -0.381 A  
HETATM    7  C   UNL     1     -10.703   8.933  67.979  1.00  0.00    -0.168 A  
HETATM    8  C   UNL     1     -10.626   8.711  69.362  1.00  0.00    -0.199 A  
BRANCH   8   9
HETATM    9  O   UNL     1     -10.806   9.869  70.080  1.00  0.00    -0.258 OA 
BRANCH   9  10
HETATM   10  C   UNL     1     -12.032  10.565  69.895  1.00  0.00    -0.264 C  
BRANCH  10  11
HETATM   11  C   UNL     1     -12.291  11.509  71.082  1.00  0.00    -0.277 C  
BRANCH  11  12
HETATM   12  N   UNL     1     -12.270  12.938  70.720  1.00  0.00    -0.465 NA 
HETATM   13  H   UNL     1     -11.633  13.461  71.322  1.00  0.00     0.000 HD 
BRANCH  12  14
HETATM   14  C   UNL     1     -11.951  13.152  69.292  1.00  0.00    -0.292 C  
BRANCH  14  15
HETATM   15  C   UNL     1     -11.264  14.512  69.040  1.00  0.00    -0.268 C  
HETATM   16  O   UNL     1     -10.070  14.594  69.824  1.00  0.00    -0.434 OA 
HETATM   17  H   UNL     1      -9.648  15.431  69.668  1.00  0.00     0.000 HD 
BRANCH  15  18
HETATM   18  C   UNL     1     -10.949  14.680  67.548  1.00  0.00    -0.298 C  
BRANCH  18  19
HETATM   19  O   UNL     1     -10.424  13.475  67.001  1.00  0.00    -0.262 OA 
BRANCH  19  20
HETATM   20  C   UNL     1     -11.042  13.016  65.862  1.00  0.00    -0.280 A  
HETATM   21  C   UNL     1     -12.206  13.577  65.305  1.00  0.00    -0.474 A  
HETATM   22  C   UNL     1     -12.762  13.079  64.131  1.00  0.00    -0.203 A  
HETATM   23  C   UNL     1     -12.183  12.002  63.461  1.00  0.00    -0.653 A  
HETATM   24  C   UNL     1     -11.029  11.441  64.023  1.00  0.00    -0.355 A  
HETATM   25  C   UNL     1     -10.449  11.912  65.202  1.00  0.00    -0.330 A  
HETATM   26  C   UNL     1      -9.309  11.084  65.472  1.00  0.00    -0.242 A  
HETATM   27  C   UNL     1      -8.347  11.044  66.505  1.00  0.00    -0.163 A  
HETATM   28  C   UNL     1      -7.328  10.085  66.467  1.00  0.00    -0.101 A  
HETATM   29  C   UNL     1      -7.258   9.172  65.417  1.00  0.00    -0.085 A  
HETATM   30  C   UNL     1      -8.200   9.186  64.383  1.00  0.00    -0.158 A  
HETATM   31  C   UNL     1      -9.214  10.151  64.443  1.00  0.00    -0.258 A  
HETATM   32  N   UNL     1     -10.259  10.387  63.588  1.00  0.00    -0.470 NA 
HETATM   33  H   UNL     1     -10.442   9.851  62.739  1.00  0.00     0.000 HD 
ENDBRANCH  19  20
ENDBRANCH  18  19
ENDBRANCH  15  18
ENDBRANCH  14  15
ENDBRANCH  12  14
ENDBRANCH  11  12
ENDBRANCH  10  11
ENDBRANCH   9  10
ENDBRANCH   8   9
ENDBRANCH   2   3
TORSDOF 10
ENDMDL
MODEL      133
REMARK 921   NORMALIZED FREE ENERGY PREDICTED BY IDOCK:   -5.42 KCAL/MOL
REMARK 922        TOTAL FREE ENERGY PREDICTED BY IDOCK:  -10.43 KCAL/MOL
REMARK 923 INTER-LIGAND FREE ENERGY PREDICTED BY IDOCK:   -9.29 KCAL/MOL
REMARK 924 INTRA-LIGAND FREE ENERGY PREDICTED BY IDOCK:   -1.14 KCAL/MOL
REMARK 927      BINDING AFFINITY PREDICTED BY RF-SCORE:    0.00 PKD
ROOT
HETATM    1  C   UNL     1      -6.097  20.133  70.991  1.00  0.00    -0.248 C  
HETATM    2  O   UNL     1      -5.364  19.622  69.880  1.00  0.00    -0.206 OA 
ENDROOT
BRANCH   2   3
HETATM    3  C   UNL     1      -5.599  18.311  69.551  1.00  0.00    -0.220 A  
HETATM    4  C   UNL     1      -5.167  17.261  70.379  1.00  0.00    -0.246 A  
HETATM    5  C   UNL     1      -5.454  15.934  70.064  1.00  0.00    -0.149 A  
HETATM    6  C   UNL     1      -6.152  15.633  68.902  1.00  0.00    -0.108 A  
HETATM    7  C   UNL     1      -6.541  16.661  68.046  1.00  0.00    -0.146 A  
HETATM    8  C   UNL     1      -6.264  18.003  68.348  1.00  0.00    -0.190 A  
BRANCH   8   9
HETATM    9  O   UNL     1      -6.734  18.856  67.378  1.00  0.00    -0.198 OA 
BRANCH   9  10
HETATM   10  C   UNL     1      -8.015  19.437  67.588  1.00  0.00    -0.283 C  
BRANCH  10  11
HETATM   11  C   UNL     1      -8.950  19.102  66.414  1.00  0.00    -0.342 C  
BRANCH  11  12
HETATM   12  N   UNL     1     -10.028  18.158  66.763  1.00  0.00    -0.332 NA 
HETATM   13  H   UNL     1     -10.946  18.583  66.636  1.00  0.00     0.000 HD 
BRANCH  12  14
HETATM   14  C   UNL     1      -9.922  16.885  66.016  1.00  0.00    -0.293 C  
BRANCH  14  15
HETATM   15  C   UNL     1     -11.271  16.446  65.408  1.00  0.00     0.080 C  
HETATM   16  O   UNL     1     -11.219  16.586  63.985  1.00  0.00    -1.409 OA 
HETATM   17  H   UNL     1     -12.050  16.316  63.611  1.00  0.00     0.000 HD 
BRANCH  15  18
HETATM   18  C   UNL     1     -11.585  14.996  65.801  1.00  0.00    -0.171 C  
BRANCH  18  19
HETATM   19  O   UNL     1     -10.833  14.606  66.945  1.00  0.00    -0.293 OA 
BRANCH  19  20
HETATM   20  C   UNL     1     -10.908  13.276  67.285  1.00  0.00    -0.264 A  
HETATM   21  C   UNL     1     -10.442  12.220  66.479  1.00  0.00    -0.254 A  
HETATM   22  C   UNL     1     -10.523  10.896  66.900  1.00  0.00    -0.299 A  
HETATM   23  C   UNL     1     -11.069  10.567  68.139  1.00  0.00    -0.346 A  
HETATM   24  C   UNL     1     -11.540  11.620  68.934  1.00  0.00    -0.314 A  
HETATM   25  C   UNL     1     -11.480  12.958  68.541  1.00  0.00    -0.345 A  
HETATM   26  C   UNL     1     -12.069  13.735  69.594  1.00  0.00    -0.392 A  
HETATM   27  C   UNL     1     -12.315  15.113  69.777  1.00  0.00    -0.278 A  
HETATM   28  C   UNL     1     -12.920  15.558  70.958  1.00  0.00    -0.550 A  
HETATM   29  C   UNL     1     -13.279  14.651  71.951  1.00  0.00    -0.436 A  
HETATM   30  C   UNL     1     -13.051  13.280  71.794  1.00  0.00    -0.472 A  
HETATM   31  C   UNL     1     -12.449  12.855  70.603  1.00  0.00    -0.252 A  
HETATM   32  N   UNL     1     -12.121  11.592  70.181  1.00  0.00    -0.336 NA 
HETATM   33  H   UNL     1     -12.286  10.743  70.721  1.00  0.00     0.000 HD 
ENDBRANCH  19  20
ENDBRANCH  18  19
ENDBRANCH  15  18
ENDBRANCH  14  15
ENDBRANCH  12  14
ENDBRANCH  11  12
ENDBRANCH  10  11
ENDBRANCH   9  10
ENDBRANCH   8   9
ENDBRANCH   2   3
TORSDOF 10
ENDMDL
MODEL      134
REMARK 921   NORMALIZED FREE ENERGY PREDICTED BY IDOCK:   -5.41 KCAL/MOL
REMARK 922        TOTAL FREE ENERGY PREDICTED BY IDOCK:  -10.42 KCAL/MOL
REMARK 923 INTER-LIGAND FREE ENERGY PREDICTED BY IDOCK:   -9.43 KCAL/MOL
REMARK 924 INTRA-LIGAND FREE ENERGY PREDICTED BY IDOCK:   -0.99 KCAL/MOL
REMARK 927      BINDING AFFINITY PREDICTED BY RF-SCORE:    0.00 PKD
ROOT
HETATM    1  C   UNL     1      -5.371  18.964  70.456  1.00  0.00    -0.227 C  
HETATM    2  O   UNL     1      -6.585  19.650  70.156  1.00  0.00    -0.259 OA 
ENDROOT
BRANCH   2   3
HETATM    3  C   UNL     1      -6.806  19.939  68.833  1.00  0.00    -0.324 A  
HETATM    4  C   UNL     1      -5.922  20.753  68.106  1.00  0.00    -0.364 A  
HETATM    5  C   UNL     1      -6.126  21.001  66.749  1.00  0.00    -0.339 A  
HETATM    6  C   UNL     1      -7.231  20.462  66.104  1.00  0.00    -0.254 A  
HETATM    7  C   UNL     1      -8.144  19.695  66.827  1.00  0.00    -0.321 A  
HETATM    8  C   UNL     1      -7.954  19.433  68.192  1.00  0.00    -0.317 A  
BRANCH   8   9
HETATM    9  O   UNL     1      -8.964  18.658  68.711  1.00  0.00    -0.320 OA 
BRANCH   9  10
HETATM   10  C   UNL     1      -8.959  17.275  68.379  1.00  0.00    -0.269 C  
BRANCH  10  11
HETATM   11  C   UNL     1     -10.317  16.868  67.782  1.00  0.00    -0.327 C  
BRANCH  11  12
HETATM   12  N   UNL     1     -10.291  15.577  67.071  1.00  0.00    -0.273 NA 
HETATM   13  H   UNL     1     -10.268  14.795  67.726  1.00  0.00     0.000 HD 
BRANCH  12  14
HETATM   14  C   UNL     1     -11.412  15.440  66.115  1.00  0.00     0.001 C  
BRANCH  14  15
HETATM   15  C   UNL     1     -12.213  14.138  66.331  1.00  0.00    -0.446 C  
HETATM   16  O   UNL     1     -13.415  14.186  65.556  1.00  0.00    -0.710 OA 
HETATM   17  H   UNL     1     -13.908  13.384  65.689  1.00  0.00     0.000 HD 
BRANCH  15  18
HETATM   18  C   UNL     1     -11.364  12.921  65.946  1.00  0.00    -0.312 C  
BRANCH  18  19
HETATM   19  O   UNL     1     -10.514  12.532  67.020  1.00  0.00    -0.229 OA 
BRANCH  19  20
HETATM   20  C   UNL     1     -10.484  11.188  67.304  1.00  0.00    -0.226 A  
HETATM   21  C   UNL     1      -9.900  10.211  66.476  1.00  0.00    -0.268 A  
HETATM   22  C   UNL     1      -9.880   8.868  66.840  1.00  0.00    -0.288 A  
HETATM   23  C   UNL     1     -10.439   8.441  68.043  1.00  0.00    -0.242 A  
HETATM   24  C   UNL     1     -11.027   9.415  68.860  1.00  0.00    -0.050 A  
HETATM   25  C   UNL     1     -11.070  10.769  68.523  1.00  0.00    -0.317 A  
HETATM   26  C   UNL     1     -11.761  11.446  69.582  1.00  0.00    -0.415 A  
HETATM   27  C   UNL     1     -12.133  12.789  69.810  1.00  0.00    -0.305 A  
HETATM   28  C   UNL     1     -12.815  13.130  70.983  1.00  0.00    -0.295 A  
HETATM   29  C   UNL     1     -13.129  12.154  71.926  1.00  0.00    -0.475 A  
HETATM   30  C   UNL     1     -12.777  10.815  71.724  1.00  0.00    -0.464 A  
HETATM   31  C   UNL     1     -12.098  10.495  70.540  1.00  0.00    -0.345 A  
HETATM   32  N   UNL     1     -11.647   9.284  70.082  1.00  0.00    -0.450 NA 
HETATM   33  H   UNL     1     -11.756   8.401  70.582  1.00  0.00     0.000 HD 
ENDBRANCH  19  20
ENDBRANCH  18  19
ENDBRANCH  15  18
ENDBRANCH  14  15
ENDBRANCH  12  14
ENDBRANCH  11  12
ENDBRANCH  10  11
ENDBRANCH   9  10
ENDBRANCH   8   9
ENDBRANCH   2   3
TORSDOF 10
ENDMDL
MODEL      135
REMARK 921   NORMALIZED FREE ENERGY PREDICTED BY IDOCK:   -5.38 KCAL/MOL
REMARK 922        TOTAL FREE ENERGY PREDICTED BY IDOCK:  -10.38 KCAL/MOL
REMARK 923 INTER-LIGAND FREE ENERGY PREDICTED BY IDOCK:   -8.63 KCAL/MOL
REMARK 924 INTRA-LIGAND FREE ENERGY PREDICTED BY IDOCK:   -1.75 KCAL/MOL
REMARK 927      BINDING AFFINITY PREDICTED BY RF-SCORE:    0.00 PKD
ROOT
HETATM    1  C   UNL     1     -11.479  16.437  64.268  1.00  0.00     0.124 C  
HETATM    2  O   UNL     1     -10.361  16.220  65.126  1.00  0.00    -0.587 OA 
ENDROOT
BRANCH   2   3
HETATM    3  C   UNL     1     -10.262  17.050  66.214  1.00  0.00    -0.329 A  
HETATM    4  C   UNL     1     -10.613  18.408  66.130  1.00  0.00    -0.346 A  
HETATM    5  C   UNL     1     -10.559  19.234  67.253  1.00  0.00    -0.590 A  
HETATM    6  C   UNL     1     -10.127  18.722  68.469  1.00  0.00    -0.444 A  
HETATM    7  C   UNL     1      -9.728  17.390  68.554  1.00  0.00    -0.304 A  
HETATM    8  C   UNL     1      -9.778  16.543  67.436  1.00  0.00    -0.246 A  
BRANCH   8   9
HETATM    9  O   UNL     1      -9.345  15.273  67.733  1.00  0.00    -0.194 OA 
BRANCH   9  10
HETATM   10  C   UNL     1      -7.980  14.974  67.470  1.00  0.00    -0.178 C  
BRANCH  10  11
HETATM   11  C   UNL     1      -7.456  13.945  68.486  1.00  0.00    -0.122 C  
BRANCH  11  12
HETATM   12  N   UNL     1      -8.269  12.717  68.563  1.00  0.00    -0.297 NA 
HETATM   13  H   UNL     1      -8.845  12.603  67.729  1.00  0.00     0.000 HD 
BRANCH  12  14
HETATM   14  C   UNL     1      -7.446  11.513  68.812  1.00  0.00    -0.119 C  
BRANCH  14  15
HETATM   15  C   UNL     1      -8.231  10.205  68.574  1.00  0.00    -0.111 C  
HETATM   16  O   UNL     1      -7.336   9.092  68.660  1.00  0.00    -0.075 OA 
HETATM   17  H   UNL     1      -7.819   8.286  68.514  1.00  0.00     0.000 HD 
BRANCH  15  18
HETATM   18  C   UNL     1      -9.365  10.072  69.598  1.00  0.00    -0.220 C  
BRANCH  18  19
HETATM   19  O   UNL     1     -10.636  10.173  68.965  1.00  0.00    -0.199 OA 
BRANCH  19  20
HETATM   20  C   UNL     1     -11.215  11.420  68.980  1.00  0.00    -0.256 A  
HETATM   21  C   UNL     1     -11.674  12.072  70.140  1.00  0.00    -0.316 A  
HETATM   22  C   UNL     1     -12.224  13.349  70.085  1.00  0.00    -0.385 A  
HETATM   23  C   UNL     1     -12.340  14.030  68.875  1.00  0.00    -0.106 A  
HETATM   24  C   UNL     1     -11.891  13.374  67.722  1.00  0.00    -0.358 A  
HETATM   25  C   UNL     1     -11.340  12.092  67.740  1.00  0.00    -0.370 A  
HETATM   26  C   UNL     1     -11.021  11.750  66.383  1.00  0.00    -0.341 A  
HETATM   27  C   UNL     1     -10.470  10.608  65.762  1.00  0.00    -0.235 A  
HETATM   28  C   UNL     1     -10.276  10.597  64.377  1.00  0.00    -0.400 A  
HETATM   29  C   UNL     1     -10.622  11.706  63.608  1.00  0.00    -0.493 A  
HETATM   30  C   UNL     1     -11.173  12.849  64.196  1.00  0.00    -0.432 A  
HETATM   31  C   UNL     1     -11.363  12.836  65.584  1.00  0.00    -0.319 A  
HETATM   32  N   UNL     1     -11.884  13.798  66.412  1.00  0.00    -0.381 NA 
HETATM   33  H   UNL     1     -12.223  14.708  66.099  1.00  0.00     0.000 HD 
ENDBRANCH  19  20
ENDBRANCH  18  19
ENDBRANCH  15  18
ENDBRANCH  14  15
ENDBRANCH  12  14
ENDBRANCH  11  12
ENDBRANCH  10  11
ENDBRANCH   9  10
ENDBRANCH   8   9
ENDBRANCH   2   3
TORSDOF 10
ENDMDL
MODEL      136
REMARK 921   NORMALIZED FREE ENERGY PREDICTED BY IDOCK:   -5.38 KCAL/MOL
REMARK 922        TOTAL FREE ENERGY PREDICTED BY IDOCK:  -10.38 KCAL/MOL
REMARK 923 INTER-LIGAND FREE ENERGY PREDICTED BY IDOCK:   -8.19 KCAL/MOL
REMARK 924 INTRA-LIGAND FREE ENERGY PREDICTED BY IDOCK:   -2.19 KCAL/MOL
REMARK 927      BINDING AFFINITY PREDICTED BY RF-SCORE:    0.00 PKD
ROOT
HETATM    1  C   UNL     1      -9.556  16.309  67.595  1.00  0.00    -0.227 C  
HETATM    2  O   UNL     1     -10.687  16.101  66.752  1.00  0.00    -0.310 OA 
ENDROOT
BRANCH   2   3
HETATM    3  C   UNL     1     -10.906  14.811  66.339  1.00  0.00    -0.322 A  
HETATM    4  C   UNL     1     -10.408  14.343  65.112  1.00  0.00    -0.447 A  
HETATM    5  C   UNL     1     -10.591  13.017  64.722  1.00  0.00    -0.380 A  
HETATM    6  C   UNL     1     -11.299  12.146  65.539  1.00  0.00    -0.393 A  
HETATM    7  C   UNL     1     -11.843  12.611  66.735  1.00  0.00    -0.440 A  
HETATM    8  C   UNL     1     -11.667  13.941  67.145  1.00  0.00    -0.388 A  
BRANCH   8   9
HETATM    9  O   UNL     1     -12.279  14.193  68.350  1.00  0.00    -0.314 OA 
BRANCH   9  10
HETATM   10  C   UNL     1     -11.511  13.976  69.527  1.00  0.00    -0.275 C  
BRANCH  10  11
HETATM   11  C   UNL     1     -12.337  13.196  70.564  1.00  0.00    -0.304 C  
BRANCH  11  12
HETATM   12  N   UNL     1     -12.483  11.762  70.253  1.00  0.00    -0.205 NA 
HETATM   13  H   UNL     1     -11.652  11.400  69.786  1.00  0.00     0.000 HD 
BRANCH  12  14
HETATM   14  C   UNL     1     -12.816  10.959  71.449  1.00  0.00    -0.449 C  
BRANCH  14  15
HETATM   15  C   UNL     1     -12.039   9.625  71.497  1.00  0.00    -0.401 C  
HETATM   16  O   UNL     1     -12.839   8.589  70.921  1.00  0.00    -0.500 OA 
HETATM   17  H   UNL     1     -12.361   7.768  70.950  1.00  0.00     0.000 HD 
BRANCH  15  18
HETATM   18  C   UNL     1     -10.704   9.761  70.753  1.00  0.00    -0.323 C  
BRANCH  18  19
HETATM   19  O   UNL     1     -10.890   9.628  69.348  1.00  0.00    -0.224 OA 
BRANCH  19  20
HETATM   20  C   UNL     1      -9.840  10.045  68.564  1.00  0.00    -0.156 A  
HETATM   21  C   UNL     1      -9.241  11.315  68.643  1.00  0.00    -0.163 A  
HETATM   22  C   UNL     1      -8.160  11.660  67.838  1.00  0.00    -0.138 A  
HETATM   23  C   UNL     1      -7.630  10.755  66.920  1.00  0.00    -0.123 A  
HETATM   24  C   UNL     1      -8.234   9.495  66.838  1.00  0.00    -0.113 A  
HETATM   25  C   UNL     1      -9.323   9.118  67.626  1.00  0.00    -0.154 A  
HETATM   26  C   UNL     1      -9.675   7.779  67.249  1.00  0.00    -0.224 A  
HETATM   27  C   UNL     1     -10.679   6.875  67.659  1.00  0.00    -0.344 A  
HETATM   28  C   UNL     1     -10.748   5.604  67.079  1.00  0.00    -0.332 A  
HETATM   29  C   UNL     1      -9.831   5.226  66.100  1.00  0.00    -0.186 A  
HETATM   30  C   UNL     1      -8.829   6.102  65.672  1.00  0.00    -0.102 A  
HETATM   31  C   UNL     1      -8.782   7.372  66.263  1.00  0.00    -0.149 A  
HETATM   32  N   UNL     1      -7.928   8.420  66.034  1.00  0.00    -0.097 NA 
HETATM   33  H   UNL     1      -7.166   8.406  65.356  1.00  0.00     0.000 HD 
ENDBRANCH  19  20
ENDBRANCH  18  19
ENDBRANCH  15  18
ENDBRANCH  14  15
ENDBRANCH  12  14
ENDBRANCH  11  12
ENDBRANCH  10  11
ENDBRANCH   9  10
ENDBRANCH   8   9
ENDBRANCH   2   3
TORSDOF 10
ENDMDL
MODEL      137
REMARK 921   NORMALIZED FREE ENERGY PREDICTED BY IDOCK:   -5.34 KCAL/MOL
REMARK 922        TOTAL FREE ENERGY PREDICTED BY IDOCK:  -10.31 KCAL/MOL
REMARK 923 INTER-LIGAND FREE ENERGY PREDICTED BY IDOCK:   -9.31 KCAL/MOL
REMARK 924 INTRA-LIGAND FREE ENERGY PREDICTED BY IDOCK:   -1.00 KCAL/MOL
REMARK 927      BINDING AFFINITY PREDICTED BY RF-SCORE:    0.00 PKD
ROOT
HETATM    1  C   UNL     1     -11.331  16.430  69.193  1.00  0.00    -0.241 C  
HETATM    2  O   UNL     1     -11.082  16.868  67.859  1.00  0.00    -0.301 OA 
ENDROOT
BRANCH   2   3
HETATM    3  C   UNL     1     -10.218  17.924  67.719  1.00  0.00    -0.368 A  
HETATM    4  C   UNL     1     -10.687  19.221  67.453  1.00  0.00    -0.594 A  
HETATM    5  C   UNL     1      -9.806  20.298  67.363  1.00  0.00    -0.586 A  
HETATM    6  C   UNL     1      -8.441  20.092  67.510  1.00  0.00    -0.393 A  
HETATM    7  C   UNL     1      -7.959  18.802  67.723  1.00  0.00    -0.275 A  
HETATM    8  C   UNL     1      -8.829  17.706  67.819  1.00  0.00    -0.240 A  
BRANCH   8   9
HETATM    9  O   UNL     1      -8.152  16.529  68.032  1.00  0.00    -0.161 OA 
BRANCH   9  10
HETATM   10  C   UNL     1      -7.797  15.766  66.885  1.00  0.00    -0.236 C  
BRANCH  10  11
HETATM   11  C   UNL     1      -7.662  14.280  67.257  1.00  0.00    -0.120 C  
BRANCH  11  12
HETATM   12  N   UNL     1      -8.585  13.396  66.520  1.00  0.00    -0.424 NA 
HETATM   13  H   UNL     1      -8.595  12.458  66.921  1.00  0.00     0.000 HD 
BRANCH  12  14
HETATM   14  C   UNL     1      -9.951  13.956  66.436  1.00  0.00    -0.297 C  
BRANCH  14  15
HETATM   15  C   UNL     1     -11.005  13.037  67.092  1.00  0.00    -0.269 C  
HETATM   16  O   UNL     1     -11.055  11.793  66.388  1.00  0.00    -0.287 OA 
HETATM   17  H   UNL     1     -11.703  11.227  66.792  1.00  0.00     0.000 HD 
BRANCH  15  18
HETATM   18  C   UNL     1     -10.666  12.812  68.571  1.00  0.00    -0.253 C  
BRANCH  18  19
HETATM   19  O   UNL     1     -10.623  11.422  68.878  1.00  0.00    -0.197 OA 
BRANCH  19  20
HETATM   20  C   UNL     1     -11.458  11.006  69.887  1.00  0.00    -0.320 A  
HETATM   21  C   UNL     1     -12.256  11.863  70.667  1.00  0.00    -0.424 A  
HETATM   22  C   UNL     1     -13.102  11.369  71.654  1.00  0.00    -0.498 A  
HETATM   23  C   UNL     1     -13.191  10.001  71.907  1.00  0.00    -0.557 A  
HETATM   24  C   UNL     1     -12.389   9.152  71.134  1.00  0.00    -0.267 A  
HETATM   25  C   UNL     1     -11.525   9.614  70.140  1.00  0.00    -0.238 A  
HETATM   26  C   UNL     1     -10.863   8.467  69.588  1.00  0.00    -0.153 A  
HETATM   27  C   UNL     1      -9.883   8.285  68.588  1.00  0.00    -0.186 A  
HETATM   28  C   UNL     1      -9.443   6.995  68.274  1.00  0.00    -0.128 A  
HETATM   29  C   UNL     1      -9.966   5.890  68.942  1.00  0.00    -0.201 A  
HETATM   30  C   UNL     1     -10.934   6.041  69.940  1.00  0.00    -0.458 A  
HETATM   31  C   UNL     1     -11.357   7.342  70.241  1.00  0.00    -0.238 A  
HETATM   32  N   UNL     1     -12.271   7.781  71.165  1.00  0.00    -0.399 NA 
HETATM   33  H   UNL     1     -12.794   7.171  71.794  1.00  0.00     0.000 HD 
ENDBRANCH  19  20
ENDBRANCH  18  19
ENDBRANCH  15  18
ENDBRANCH  14  15
ENDBRANCH  12  14
ENDBRANCH  11  12
ENDBRANCH  10  11
ENDBRANCH   9  10
ENDBRANCH   8   9
ENDBRANCH   2   3
TORSDOF 10
ENDMDL
MODEL      138
REMARK 921   NORMALIZED FREE ENERGY PREDICTED BY IDOCK:   -5.31 KCAL/MOL
REMARK 922        TOTAL FREE ENERGY PREDICTED BY IDOCK:  -10.27 KCAL/MOL
REMARK 923 INTER-LIGAND FREE ENERGY PREDICTED BY IDOCK:   -8.02 KCAL/MOL
REMARK 924 INTRA-LIGAND FREE ENERGY PREDICTED BY IDOCK:   -2.25 KCAL/MOL
REMARK 927      BINDING AFFINITY PREDICTED BY RF-SCORE:    0.00 PKD
ROOT
HETATM    1  C   UNL     1     -11.693  12.147  68.883  1.00  0.00    -0.327 C  
HETATM    2  O   UNL     1     -11.071  13.268  68.259  1.00  0.00    -0.243 OA 
ENDROOT
BRANCH   2   3
HETATM    3  C   UNL     1     -11.246  13.381  66.903  1.00  0.00    -0.308 A  
HETATM    4  C   UNL     1     -11.879  12.369  66.162  1.00  0.00    -0.442 A  
HETATM    5  C   UNL     1     -12.099  12.513  64.793  1.00  0.00    -0.497 A  
HETATM    6  C   UNL     1     -11.666  13.659  64.138  1.00  0.00    -0.424 A  
HETATM    7  C   UNL     1     -10.992  14.647  64.852  1.00  0.00    -0.419 A  
HETATM    8  C   UNL     1     -10.763  14.521  66.231  1.00  0.00    -0.309 A  
BRANCH   8   9
HETATM    9  O   UNL     1     -10.087  15.603  66.741  1.00  0.00    -0.259 OA 
BRANCH   9  10
HETATM   10  C   UNL     1      -8.963  16.073  66.006  1.00  0.00    -0.310 C  
BRANCH  10  11
HETATM   11  C   UNL     1      -7.702  16.039  66.885  1.00  0.00    -0.244 C  
BRANCH  11  12
HETATM   12  N   UNL     1      -7.221  14.678  67.185  1.00  0.00    -0.342 NA 
HETATM   13  H   UNL     1      -6.242  14.566  66.922  1.00  0.00     0.000 HD 
BRANCH  12  14
HETATM   14  C   UNL     1      -7.439  14.304  68.600  1.00  0.00    -0.127 C  
BRANCH  14  15
HETATM   15  C   UNL     1      -6.379  13.306  69.114  1.00  0.00    -0.103 C  
HETATM   16  O   UNL     1      -6.464  13.215  70.540  1.00  0.00    -0.398 OA 
HETATM   17  H   UNL     1      -5.812  12.600  70.856  1.00  0.00     0.000 HD 
BRANCH  15  18
HETATM   18  C   UNL     1      -6.587  11.930  68.467  1.00  0.00    -0.061 C  
BRANCH  18  19
HETATM   19  O   UNL     1      -7.909  11.455  68.696  1.00  0.00    -0.128 OA 
BRANCH  19  20
HETATM   20  C   UNL     1      -8.507  10.817  67.636  1.00  0.00    -0.119 A  
HETATM   21  C   UNL     1      -8.355  11.194  66.289  1.00  0.00    -0.163 A  
HETATM   22  C   UNL     1      -8.968  10.482  65.262  1.00  0.00    -0.211 A  
HETATM   23  C   UNL     1      -9.756   9.365  65.532  1.00  0.00    -0.300 A  
HETATM   24  C   UNL     1      -9.911   8.998  66.874  1.00  0.00    -0.246 A  
HETATM   25  C   UNL     1      -9.317   9.692  67.929  1.00  0.00    -0.141 A  
HETATM   26  C   UNL     1      -9.717   9.041  69.143  1.00  0.00    -0.167 A  
HETATM   27  C   UNL     1      -9.467   9.277  70.513  1.00  0.00    -0.317 A  
HETATM   28  C   UNL     1     -10.019   8.425  71.475  1.00  0.00    -0.283 A  
HETATM   29  C   UNL     1     -10.812   7.347  71.091  1.00  0.00    -0.258 A  
HETATM   30  C   UNL     1     -11.080   7.092  69.742  1.00  0.00    -0.278 A  
HETATM   31  C   UNL     1     -10.521   7.960  68.795  1.00  0.00    -0.176 A  
HETATM   32  N   UNL     1     -10.623   7.957  67.427  1.00  0.00    -0.416 NA 
HETATM   33  H   UNL     1     -11.156   7.273  66.890  1.00  0.00     0.000 HD 
ENDBRANCH  19  20
ENDBRANCH  18  19
ENDBRANCH  15  18
ENDBRANCH  14  15
ENDBRANCH  12  14
ENDBRANCH  11  12
ENDBRANCH  10  11
ENDBRANCH   9  10
ENDBRANCH   8   9
ENDBRANCH   2   3
TORSDOF 10
ENDMDL
MODEL      139
REMARK 921   NORMALIZED FREE ENERGY PREDICTED BY IDOCK:   -5.29 KCAL/MOL
REMARK 922        TOTAL FREE ENERGY PREDICTED BY IDOCK:  -10.23 KCAL/MOL
REMARK 923 INTER-LIGAND FREE ENERGY PREDICTED BY IDOCK:   -8.87 KCAL/MOL
REMARK 924 INTRA-LIGAND FREE ENERGY PREDICTED BY IDOCK:   -1.35 KCAL/MOL
REMARK 927      BINDING AFFINITY PREDICTED BY RF-SCORE:    0.00 PKD
ROOT
HETATM    1  C   UNL     1     -10.261  15.901  65.471  1.00  0.00    -0.365 C  
HETATM    2  O   UNL     1      -9.134  16.715  65.785  1.00  0.00    -0.503 OA 
ENDROOT
BRANCH   2   3
HETATM    3  C   UNL     1      -9.377  17.805  66.582  1.00  0.00    -0.287 A  
HETATM    4  C   UNL     1     -10.591  18.507  66.507  1.00  0.00    -0.375 A  
HETATM    5  C   UNL     1     -10.852  19.583  67.356  1.00  0.00    -0.536 A  
HETATM    6  C   UNL     1      -9.893  19.990  68.273  1.00  0.00    -0.475 A  
HETATM    7  C   UNL     1      -8.664  19.333  68.323  1.00  0.00    -0.377 A  
HETATM    8  C   UNL     1      -8.385  18.248  67.479  1.00  0.00    -0.245 A  
BRANCH   8   9
HETATM    9  O   UNL     1      -7.123  17.745  67.690  1.00  0.00    -0.181 OA 
BRANCH   9  10
HETATM   10  C   UNL     1      -6.994  16.687  68.631  1.00  0.00    -0.172 C  
BRANCH  10  11
HETATM   11  C   UNL     1      -6.411  15.437  67.950  1.00  0.00    -0.153 C  
BRANCH  11  12
HETATM   12  N   UNL     1      -7.421  14.596  67.284  1.00  0.00    -0.268 NA 
HETATM   13  H   UNL     1      -7.007  13.733  66.929  1.00  0.00     0.000 HD 
BRANCH  12  14
HETATM   14  C   UNL     1      -8.580  14.311  68.158  1.00  0.00    -0.172 C  
BRANCH  14  15
HETATM   15  C   UNL     1      -9.244  12.956  67.831  1.00  0.00    -0.208 C  
HETATM   16  O   UNL     1      -9.030  12.047  68.915  1.00  0.00    -0.381 OA 
HETATM   17  H   UNL     1      -9.439  11.213  68.714  1.00  0.00     0.000 HD 
BRANCH  15  18
HETATM   18  C   UNL     1     -10.743  13.148  67.570  1.00  0.00    -0.238 C  
BRANCH  18  19
HETATM   19  O   UNL     1     -11.306  11.992  66.958  1.00  0.00    -0.299 OA 
BRANCH  19  20
HETATM   20  C   UNL     1     -10.749  11.621  65.757  1.00  0.00    -0.280 A  
HETATM   21  C   UNL     1     -10.730  12.428  64.604  1.00  0.00    -0.339 A  
HETATM   22  C   UNL     1     -10.122  11.999  63.428  1.00  0.00    -0.437 A  
HETATM   23  C   UNL     1      -9.507  10.751  63.350  1.00  0.00    -0.345 A  
HETATM   24  C   UNL     1      -9.536   9.948  64.497  1.00  0.00    -0.222 A  
HETATM   25  C   UNL     1     -10.142  10.344  65.690  1.00  0.00    -0.337 A  
HETATM   26  C   UNL     1      -9.990   9.262  66.621  1.00  0.00    -0.333 A  
HETATM   27  C   UNL     1     -10.397   9.052  67.957  1.00  0.00    -0.275 A  
HETATM   28  C   UNL     1     -10.073   7.852  68.599  1.00  0.00    -0.210 A  
HETATM   29  C   UNL     1      -9.353   6.865  67.930  1.00  0.00    -0.118 A  
HETATM   30  C   UNL     1      -8.941   7.045  66.605  1.00  0.00    -0.157 A  
HETATM   31  C   UNL     1      -9.280   8.252  65.979  1.00  0.00    -0.166 A  
HETATM   32  N   UNL     1      -9.020   8.689  64.705  1.00  0.00    -0.415 NA 
HETATM   33  H   UNL     1      -8.512   8.150  64.003  1.00  0.00     0.000 HD 
ENDBRANCH  19  20
ENDBRANCH  18  19
ENDBRANCH  15  18
ENDBRANCH  14  15
ENDBRANCH  12  14
ENDBRANCH  11  12
ENDBRANCH  10  11
ENDBRANCH   9  10
ENDBRANCH   8   9
ENDBRANCH   2   3
TORSDOF 10
ENDMDL
MODEL      140
REMARK 921   NORMALIZED FREE ENERGY PREDICTED BY IDOCK:   -5.29 KCAL/MOL
REMARK 922        TOTAL FREE ENERGY PREDICTED BY IDOCK:  -10.22 KCAL/MOL
REMARK 923 INTER-LIGAND FREE ENERGY PREDICTED BY IDOCK:   -9.33 KCAL/MOL
REMARK 924 INTRA-LIGAND FREE ENERGY PREDICTED BY IDOCK:   -0.89 KCAL/MOL
REMARK 927      BINDING AFFINITY PREDICTED BY RF-SCORE:    0.00 PKD
ROOT
HETATM    1  C   UNL     1     -10.784  19.643  66.407  1.00  0.00    -0.424 C  
HETATM    2  O   UNL     1      -9.532  19.390  65.774  1.00  0.00    -0.391 OA 
ENDROOT
BRANCH   2   3
HETATM    3  C   UNL     1      -8.444  19.284  66.604  1.00  0.00    -0.316 A  
HETATM    4  C   UNL     1      -8.067  20.339  67.452  1.00  0.00    -0.377 A  
HETATM    5  C   UNL     1      -6.992  20.205  68.329  1.00  0.00    -0.321 A  
HETATM    6  C   UNL     1      -6.260  19.026  68.353  1.00  0.00    -0.239 A  
HETATM    7  C   UNL     1      -6.592  17.991  67.482  1.00  0.00    -0.190 A  
HETATM    8  C   UNL     1      -7.672  18.105  66.594  1.00  0.00    -0.236 A  
BRANCH   8   9
HETATM    9  O   UNL     1      -7.830  16.976  65.827  1.00  0.00    -0.397 OA 
BRANCH   9  10
HETATM   10  C   UNL     1      -8.485  15.867  66.430  1.00  0.00    -0.313 C  
BRANCH  10  11
HETATM   11  C   UNL     1      -9.919  15.739  65.890  1.00  0.00    -0.352 C  
BRANCH  11  12
HETATM   12  N   UNL     1     -10.001  15.120  64.555  1.00  0.00    -0.337 NA 
HETATM   13  H   UNL     1      -9.071  14.951  64.170  1.00  0.00     0.000 HD 
BRANCH  12  14
HETATM   14  C   UNL     1     -10.810  13.883  64.558  1.00  0.00    -0.368 C  
BRANCH  14  15
HETATM   15  C   UNL     1     -11.206  13.442  65.984  1.00  0.00    -0.296 C  
HETATM   16  O   UNL     1     -12.598  13.700  66.192  1.00  0.00    -0.412 OA 
HETATM   17  H   UNL     1     -12.842  13.429  67.069  1.00  0.00     0.000 HD 
BRANCH  15  18
HETATM   18  C   UNL     1     -10.891  11.955  66.188  1.00  0.00    -0.292 C  
BRANCH  18  19
HETATM   19  O   UNL     1     -10.212  11.743  67.421  1.00  0.00    -0.196 OA 
BRANCH  19  20
HETATM   20  C   UNL     1     -10.291  10.471  67.937  1.00  0.00    -0.192 A  
HETATM   21  C   UNL     1      -9.680   9.340  67.365  1.00  0.00    -0.208 A  
HETATM   22  C   UNL     1      -9.777   8.085  67.959  1.00  0.00    -0.184 A  
HETATM   23  C   UNL     1     -10.485   7.903  69.145  1.00  0.00    -0.218 A  
HETATM   24  C   UNL     1     -11.099   9.030  69.706  1.00  0.00    -0.104 A  
HETATM   25  C   UNL     1     -11.027  10.302  69.135  1.00  0.00    -0.280 A  
HETATM   26  C   UNL     1     -11.787  11.185  69.972  1.00  0.00    -0.441 A  
HETATM   27  C   UNL     1     -12.103  12.561  69.917  1.00  0.00    -0.322 A  
HETATM   28  C   UNL     1     -12.885  13.133  70.926  1.00  0.00    -0.237 A  
HETATM   29  C   UNL     1     -13.354  12.355  71.982  1.00  0.00    -0.511 A  
HETATM   30  C   UNL     1     -13.060  10.990  72.059  1.00  0.00    -0.449 A  
HETATM   31  C   UNL     1     -12.279  10.436  71.036  1.00  0.00    -0.393 A  
HETATM   32  N   UNL     1     -11.852   9.146  70.852  1.00  0.00    -0.335 NA 
HETATM   33  H   UNL     1     -12.066   8.372  71.482  1.00  0.00     0.000 HD 
ENDBRANCH  19  20
ENDBRANCH  18  19
ENDBRANCH  15  18
ENDBRANCH  14  15
ENDBRANCH  12  14
ENDBRANCH  11  12
ENDBRANCH  10  11
ENDBRANCH   9  10
ENDBRANCH   8   9
ENDBRANCH   2   3
TORSDOF 10
ENDMDL
MODEL      141
REMARK 921   NORMALIZED FREE ENERGY PREDICTED BY IDOCK:   -5.28 KCAL/MOL
REMARK 922        TOTAL FREE ENERGY PREDICTED BY IDOCK:  -10.22 KCAL/MOL
REMARK 923 INTER-LIGAND FREE ENERGY PREDICTED BY IDOCK:   -8.02 KCAL/MOL
REMARK 924 INTRA-LIGAND FREE ENERGY PREDICTED BY IDOCK:   -2.20 KCAL/MOL
REMARK 927      BINDING AFFINITY PREDICTED BY RF-SCORE:    0.00 PKD
ROOT
HETATM    1  C   UNL     1     -11.919  15.617  69.638  1.00  0.00    -0.349 C  
HETATM    2  O   UNL     1     -11.970  14.306  69.081  1.00  0.00    -0.319 OA 
ENDROOT
BRANCH   2   3
HETATM    3  C   UNL     1     -12.306  13.294  69.945  1.00  0.00    -0.163 A  
HETATM    4  C   UNL     1     -12.551  13.546  71.305  1.00  0.00    -0.427 A  
HETATM    5  C   UNL     1     -12.941  12.521  72.166  1.00  0.00    -0.319 A  
HETATM    6  C   UNL     1     -13.065  11.224  71.688  1.00  0.00    -0.513 A  
HETATM    7  C   UNL     1     -12.775  10.951  70.352  1.00  0.00    -0.326 A  
HETATM    8  C   UNL     1     -12.384  11.969  69.470  1.00  0.00     0.002 A  
BRANCH   8   9
HETATM    9  O   UNL     1     -12.148  11.490  68.204  1.00  0.00    -0.604 OA 
BRANCH   9  10
HETATM   10  C   UNL     1     -11.009  10.659  68.025  1.00  0.00    -0.282 C  
BRANCH  10  11
HETATM   11  C   UNL     1      -9.828  11.484  67.485  1.00  0.00    -0.190 C  
BRANCH  11  12
HETATM   12  N   UNL     1      -8.849  11.869  68.518  1.00  0.00    -0.302 NA 
HETATM   13  H   UNL     1      -9.128  11.525  69.437  1.00  0.00     0.000 HD 
BRANCH  12  14
HETATM   14  C   UNL     1      -7.476  11.435  68.180  1.00  0.00    -0.100 C  
BRANCH  14  15
HETATM   15  C   UNL     1      -7.432  10.563  66.906  1.00  0.00    -0.110 C  
HETATM   16  O   UNL     1      -6.561  11.168  65.946  1.00  0.00    -0.342 OA 
HETATM   17  H   UNL     1      -6.533  10.631  65.162  1.00  0.00     0.000 HD 
BRANCH  15  18
HETATM   18  C   UNL     1      -6.963   9.143  67.250  1.00  0.00    -0.078 C  
BRANCH  18  19
HETATM   19  O   UNL     1      -7.798   8.558  68.244  1.00  0.00    -0.103 OA 
BRANCH  19  20
HETATM   20  C   UNL     1      -8.760   7.692  67.782  1.00  0.00    -0.127 A  
HETATM   21  C   UNL     1      -8.755   7.101  66.505  1.00  0.00    -0.139 A  
HETATM   22  C   UNL     1      -9.748   6.209  66.115  1.00  0.00    -0.040 A  
HETATM   23  C   UNL     1     -10.788   5.866  66.978  1.00  0.00    -0.379 A  
HETATM   24  C   UNL     1     -10.794   6.463  68.245  1.00  0.00    -0.309 A  
HETATM   25  C   UNL     1      -9.817   7.367  68.667  1.00  0.00    -0.165 A  
HETATM   26  C   UNL     1     -10.166   7.776  69.997  1.00  0.00    -0.210 A  
HETATM   27  C   UNL     1      -9.597   8.668  70.931  1.00  0.00    -0.252 A  
HETATM   28  C   UNL     1     -10.199   8.840  72.182  1.00  0.00    -0.371 A  
HETATM   29  C   UNL     1     -11.356   8.137  72.511  1.00  0.00    -0.469 A  
HETATM   30  C   UNL     1     -11.944   7.250  71.604  1.00  0.00    -0.341 A  
HETATM   31  C   UNL     1     -11.327   7.096  70.355  1.00  0.00    -0.289 A  
HETATM   32  N   UNL     1     -11.683   6.315  69.285  1.00  0.00    -0.408 NA 
HETATM   33  H   UNL     1     -12.500   5.705  69.263  1.00  0.00     0.000 HD 
ENDBRANCH  19  20
ENDBRANCH  18  19
ENDBRANCH  15  18
ENDBRANCH  14  15
ENDBRANCH  12  14
ENDBRANCH  11  12
ENDBRANCH  10  11
ENDBRANCH   9  10
ENDBRANCH   8   9
ENDBRANCH   2   3
TORSDOF 10
ENDMDL
MODEL      142
REMARK 921   NORMALIZED FREE ENERGY PREDICTED BY IDOCK:   -5.27 KCAL/MOL
REMARK 922        TOTAL FREE ENERGY PREDICTED BY IDOCK:  -10.20 KCAL/MOL
REMARK 923 INTER-LIGAND FREE ENERGY PREDICTED BY IDOCK:   -8.95 KCAL/MOL
REMARK 924 INTRA-LIGAND FREE ENERGY PREDICTED BY IDOCK:   -1.26 KCAL/MOL
REMARK 927      BINDING AFFINITY PREDICTED BY RF-SCORE:    0.00 PKD
ROOT
HETATM    1  C   UNL     1      -9.108  10.463  65.404  1.00  0.00    -0.189 C  
HETATM    2  O   UNL     1      -9.374  11.852  65.586  1.00  0.00    -0.207 OA 
ENDROOT
BRANCH   2   3
HETATM    3  C   UNL     1     -10.431  12.364  64.878  1.00  0.00    -0.298 A  
HETATM    4  C   UNL     1     -11.255  11.537  64.097  1.00  0.00    -0.393 A  
HETATM    5  C   UNL     1     -12.359  12.057  63.421  1.00  0.00    -0.635 A  
HETATM    6  C   UNL     1     -12.640  13.414  63.493  1.00  0.00    -0.126 A  
HETATM    7  C   UNL     1     -11.800  14.254  64.223  1.00  0.00    -0.401 A  
HETATM    8  C   UNL     1     -10.687  13.750  64.912  1.00  0.00    -0.399 A  
BRANCH   8   9
HETATM    9  O   UNL     1      -9.997  14.740  65.568  1.00  0.00    -0.342 OA 
BRANCH   9  10
HETATM   10  C   UNL     1     -10.480  15.133  66.846  1.00  0.00    -0.282 C  
BRANCH  10  11
HETATM   11  C   UNL     1      -9.455  14.776  67.935  1.00  0.00    -0.201 C  
BRANCH  11  12
HETATM   12  N   UNL     1     -10.018  13.995  69.051  1.00  0.00    -0.421 NA 
HETATM   13  H   UNL     1     -10.892  14.403  69.382  1.00  0.00     0.000 HD 
BRANCH  12  14
HETATM   14  C   UNL     1     -10.193  12.567  68.705  1.00  0.00    -0.154 C  
BRANCH  14  15
HETATM   15  C   UNL     1     -11.671  12.123  68.768  1.00  0.00    -0.321 C  
HETATM   16  O   UNL     1     -12.061  11.589  67.500  1.00  0.00    -0.614 OA 
HETATM   17  H   UNL     1     -12.970  11.316  67.539  1.00  0.00     0.000 HD 
BRANCH  15  18
HETATM   18  C   UNL     1     -11.866  11.085  69.880  1.00  0.00    -0.353 C  
BRANCH  18  19
HETATM   19  O   UNL     1     -11.118   9.904  69.610  1.00  0.00    -0.240 OA 
BRANCH  19  20
HETATM   20  C   UNL     1     -11.241   8.893  70.534  1.00  0.00    -0.252 A  
HETATM   21  C   UNL     1     -11.652   9.077  71.867  1.00  0.00    -0.441 A  
HETATM   22  C   UNL     1     -11.783   8.003  72.741  1.00  0.00    -0.352 A  
HETATM   23  C   UNL     1     -11.513   6.700  72.325  1.00  0.00    -0.319 A  
HETATM   24  C   UNL     1     -11.096   6.522  71.000  1.00  0.00    -0.288 A  
HETATM   25  C   UNL     1     -10.948   7.578  70.099  1.00  0.00    -0.267 A  
HETATM   26  C   UNL     1     -10.490   7.015  68.861  1.00  0.00    -0.217 A  
HETATM   27  C   UNL     1     -10.146   7.558  67.604  1.00  0.00    -0.243 A  
HETATM   28  C   UNL     1      -9.730   6.709  66.572  1.00  0.00    -0.176 A  
HETATM   29  C   UNL     1      -9.655   5.334  66.778  1.00  0.00    -0.156 A  
HETATM   30  C   UNL     1      -9.985   4.770  68.014  1.00  0.00    -0.154 A  
HETATM   31  C   UNL     1     -10.395   5.638  69.035  1.00  0.00    -0.243 A  
HETATM   32  N   UNL     1     -10.763   5.368  70.328  1.00  0.00    -0.263 NA 
HETATM   33  H   UNL     1     -10.787   4.435  70.738  1.00  0.00     0.000 HD 
ENDBRANCH  19  20
ENDBRANCH  18  19
ENDBRANCH  15  18
ENDBRANCH  14  15
ENDBRANCH  12  14
ENDBRANCH  11  12
ENDBRANCH  10  11
ENDBRANCH   9  10
ENDBRANCH   8   9
ENDBRANCH   2   3
TORSDOF 10
ENDMDL
MODEL      143
REMARK 921   NORMALIZED FREE ENERGY PREDICTED BY IDOCK:   -5.26 KCAL/MOL
REMARK 922        TOTAL FREE ENERGY PREDICTED BY IDOCK:  -10.18 KCAL/MOL
REMARK 923 INTER-LIGAND FREE ENERGY PREDICTED BY IDOCK:   -8.66 KCAL/MOL
REMARK 924 INTRA-LIGAND FREE ENERGY PREDICTED BY IDOCK:   -1.52 KCAL/MOL
REMARK 927      BINDING AFFINITY PREDICTED BY RF-SCORE:    0.00 PKD
ROOT
HETATM    1  C   UNL     1      -9.188  10.730  62.838  1.00  0.00    -0.323 C  
HETATM    2  O   UNL     1      -9.230  12.003  63.479  1.00  0.00     0.009 OA 
ENDROOT
BRANCH   2   3
HETATM    3  C   UNL     1     -10.468  12.440  63.877  1.00  0.00    -0.439 A  
HETATM    4  C   UNL     1     -11.638  11.756  63.505  1.00  0.00    -0.487 A  
HETATM    5  C   UNL     1     -12.889  12.177  63.955  1.00  0.00    -0.420 A  
HETATM    6  C   UNL     1     -12.993  13.303  64.760  1.00  0.00    -0.140 A  
HETATM    7  C   UNL     1     -11.845  14.020  65.094  1.00  0.00    -0.370 A  
HETATM    8  C   UNL     1     -10.578  13.610  64.653  1.00  0.00    -0.430 A  
BRANCH   8   9
HETATM    9  O   UNL     1      -9.584  14.451  65.094  1.00  0.00    -0.078 OA 
BRANCH   9  10
HETATM   10  C   UNL     1      -9.987  15.655  65.734  1.00  0.00    -0.359 C  
BRANCH  10  11
HETATM   11  C   UNL     1      -9.693  15.580  67.242  1.00  0.00    -0.218 C  
BRANCH  11  12
HETATM   12  N   UNL     1     -10.900  15.625  68.087  1.00  0.00    -0.290 NA 
HETATM   13  H   UNL     1     -11.632  15.019  67.717  1.00  0.00     0.000 HD 
BRANCH  12  14
HETATM   14  C   UNL     1     -10.607  15.305  69.501  1.00  0.00    -0.267 C  
BRANCH  14  15
HETATM   15  C   UNL     1     -11.811  14.656  70.219  1.00  0.00    -0.303 C  
HETATM   16  O   UNL     1     -12.883  15.600  70.296  1.00  0.00    -0.591 OA 
HETATM   17  H   UNL     1     -13.624  15.201  70.738  1.00  0.00     0.000 HD 
BRANCH  15  18
HETATM   18  C   UNL     1     -12.253  13.390  69.475  1.00  0.00    -0.205 C  
BRANCH  18  19
HETATM   19  O   UNL     1     -11.592  12.239  69.992  1.00  0.00    -0.260 OA 
BRANCH  19  20
HETATM   20  C   UNL     1     -11.077  11.374  69.056  1.00  0.00    -0.243 A  
HETATM   21  C   UNL     1     -10.560  11.765  67.807  1.00  0.00    -0.232 A  
HETATM   22  C   UNL     1     -10.027  10.836  66.920  1.00  0.00    -0.240 A  
HETATM   23  C   UNL     1      -9.984   9.480  67.237  1.00  0.00    -0.244 A  
HETATM   24  C   UNL     1     -10.507   9.094  68.477  1.00  0.00    -0.204 A  
HETATM   25  C   UNL     1     -11.055   9.997  69.389  1.00  0.00    -0.265 A  
HETATM   26  C   UNL     1     -11.501   9.238  70.522  1.00  0.00    -0.296 A  
HETATM   27  C   UNL     1     -12.143   9.569  71.735  1.00  0.00    -0.459 A  
HETATM   28  C   UNL     1     -12.443   8.561  72.658  1.00  0.00    -0.276 A  
HETATM   29  C   UNL     1     -12.113   7.236  72.387  1.00  0.00    -0.155 A  
HETATM   30  C   UNL     1     -11.481   6.879  71.192  1.00  0.00    -0.347 A  
HETATM   31  C   UNL     1     -11.193   7.903  70.280  1.00  0.00    -0.200 A  
HETATM   32  N   UNL     1     -10.598   7.843  69.045  1.00  0.00    -0.333 NA 
HETATM   33  H   UNL     1     -10.266   6.984  68.606  1.00  0.00     0.000 HD 
ENDBRANCH  19  20
ENDBRANCH  18  19
ENDBRANCH  15  18
ENDBRANCH  14  15
ENDBRANCH  12  14
ENDBRANCH  11  12
ENDBRANCH  10  11
ENDBRANCH   9  10
ENDBRANCH   8   9
ENDBRANCH   2   3
TORSDOF 10
ENDMDL
MODEL      144
REMARK 921   NORMALIZED FREE ENERGY PREDICTED BY IDOCK:   -5.24 KCAL/MOL
REMARK 922        TOTAL FREE ENERGY PREDICTED BY IDOCK:  -10.15 KCAL/MOL
REMARK 923 INTER-LIGAND FREE ENERGY PREDICTED BY IDOCK:   -7.86 KCAL/MOL
REMARK 924 INTRA-LIGAND FREE ENERGY PREDICTED BY IDOCK:   -2.29 KCAL/MOL
REMARK 927      BINDING AFFINITY PREDICTED BY RF-SCORE:    0.00 PKD
ROOT
HETATM    1  C   UNL     1     -11.186  13.438  64.153  1.00  0.00    -0.350 C  
HETATM    2  O   UNL     1     -11.851  12.356  64.801  1.00  0.00    -0.356 OA 
ENDROOT
BRANCH   2   3
HETATM    3  C   UNL     1     -11.045  11.413  65.387  1.00  0.00    -0.128 A  
HETATM    4  C   UNL     1     -10.185  10.609  64.621  1.00  0.00    -0.404 A  
HETATM    5  C   UNL     1      -9.332   9.689  65.229  1.00  0.00    -0.322 A  
HETATM    6  C   UNL     1      -9.345   9.538  66.609  1.00  0.00    -0.207 A  
HETATM    7  C   UNL     1     -10.230  10.293  67.376  1.00  0.00    -0.265 A  
HETATM    8  C   UNL     1     -11.094  11.226  66.783  1.00  0.00    -0.250 A  
BRANCH   8   9
HETATM    9  O   UNL     1     -11.880  11.863  67.714  1.00  0.00    -0.518 OA 
BRANCH   9  10
HETATM   10  C   UNL     1     -11.254  12.269  68.924  1.00  0.00    -0.273 C  
BRANCH  10  11
HETATM   11  C   UNL     1     -12.186  12.004  70.119  1.00  0.00    -0.231 C  
BRANCH  11  12
HETATM   12  N   UNL     1     -12.396  10.573  70.405  1.00  0.00    -0.351 NA 
HETATM   13  H   UNL     1     -11.519  10.054  70.353  1.00  0.00     0.000 HD 
BRANCH  12  14
HETATM   14  C   UNL     1     -13.069  10.353  71.704  1.00  0.00    -0.448 C  
BRANCH  14  15
HETATM   15  C   UNL     1     -13.436   8.871  71.932  1.00  0.00    -0.414 C  
HETATM   16  O   UNL     1     -14.018   8.336  70.739  1.00  0.00    -0.404 OA 
HETATM   17  H   UNL     1     -14.243   7.424  70.880  1.00  0.00     0.000 HD 
BRANCH  15  18
HETATM   18  C   UNL     1     -12.191   8.071  72.336  1.00  0.00    -0.287 C  
BRANCH  18  19
HETATM   19  O   UNL     1     -11.442   7.682  71.190  1.00  0.00    -0.266 OA 
BRANCH  19  20
HETATM   20  C   UNL     1     -10.077   7.804  71.297  1.00  0.00    -0.179 A  
HETATM   21  C   UNL     1      -9.411   8.369  72.400  1.00  0.00    -0.356 A  
HETATM   22  C   UNL     1      -8.022   8.434  72.454  1.00  0.00    -0.164 A  
HETATM   23  C   UNL     1      -7.237   7.938  71.415  1.00  0.00    -0.065 A  
HETATM   24  C   UNL     1      -7.904   7.384  70.314  1.00  0.00    -0.095 A  
HETATM   25  C   UNL     1      -9.295   7.309  70.224  1.00  0.00    -0.158 A  
HETATM   26  C   UNL     1      -9.605   6.706  68.959  1.00  0.00    -0.133 A  
HETATM   27  C   UNL     1     -10.808   6.385  68.293  1.00  0.00    -0.384 A  
HETATM   28  C   UNL     1     -10.762   5.779  67.033  1.00  0.00    -0.369 A  
HETATM   29  C   UNL     1      -9.538   5.490  66.434  1.00  0.00    -0.174 A  
HETATM   30  C   UNL     1      -8.332   5.801  67.069  1.00  0.00    -0.108 A  
HETATM   31  C   UNL     1      -8.401   6.412  68.328  1.00  0.00    -0.116 A  
HETATM   32  N   UNL     1      -7.395   6.830  69.162  1.00  0.00    -0.091 NA 
HETATM   33  H   UNL     1      -6.400   6.741  68.955  1.00  0.00     0.000 HD 
ENDBRANCH  19  20
ENDBRANCH  18  19
ENDBRANCH  15  18
ENDBRANCH  14  15
ENDBRANCH  12  14
ENDBRANCH  11  12
ENDBRANCH  10  11
ENDBRANCH   9  10
ENDBRANCH   8   9
ENDBRANCH   2   3
TORSDOF 10
ENDMDL
MODEL      145
REMARK 921   NORMALIZED FREE ENERGY PREDICTED BY IDOCK:   -5.24 KCAL/MOL
REMARK 922        TOTAL FREE ENERGY PREDICTED BY IDOCK:  -10.15 KCAL/MOL
REMARK 923 INTER-LIGAND FREE ENERGY PREDICTED BY IDOCK:   -7.46 KCAL/MOL
REMARK 924 INTRA-LIGAND FREE ENERGY PREDICTED BY IDOCK:   -2.69 KCAL/MOL
REMARK 927      BINDING AFFINITY PREDICTED BY RF-SCORE:    0.00 PKD
ROOT
HETATM    1  C   UNL     1      -5.981   8.446  64.378  1.00  0.00    -0.065 C  
HETATM    2  O   UNL     1      -7.272   9.002  64.141  1.00  0.00    -0.093 OA 
ENDROOT
BRANCH   2   3
HETATM    3  C   UNL     1      -8.270   8.600  64.993  1.00  0.00    -0.157 A  
HETATM    4  C   UNL     1      -8.281   7.309  65.547  1.00  0.00    -0.139 A  
HETATM    5  C   UNL     1      -9.270   6.924  66.451  1.00  0.00    -0.186 A  
HETATM    6  C   UNL     1     -10.279   7.814  66.794  1.00  0.00    -0.346 A  
HETATM    7  C   UNL     1     -10.309   9.080  66.212  1.00  0.00    -0.130 A  
HETATM    8  C   UNL     1      -9.321   9.486  65.303  1.00  0.00    -0.253 A  
BRANCH   8   9
HETATM    9  O   UNL     1      -9.534  10.766  64.850  1.00  0.00    -0.209 OA 
BRANCH   9  10
HETATM   10  C   UNL     1     -10.119  10.912  63.562  1.00  0.00    -0.347 C  
BRANCH  10  11
HETATM   11  C   UNL     1     -11.361  11.814  63.642  1.00  0.00    -0.436 C  
BRANCH  11  12
HETATM   12  N   UNL     1     -11.223  12.936  64.588  1.00  0.00    -0.306 NA 
HETATM   13  H   UNL     1     -11.420  13.828  64.135  1.00  0.00     0.000 HD 
BRANCH  12  14
HETATM   14  C   UNL     1     -12.055  12.757  65.798  1.00  0.00    -0.448 C  
BRANCH  14  15
HETATM   15  C   UNL     1     -11.229  12.290  67.016  1.00  0.00    -0.310 C  
HETATM   16  O   UNL     1      -9.942  12.916  66.986  1.00  0.00    -0.235 OA 
HETATM   17  H   UNL     1      -9.434  12.628  67.736  1.00  0.00     0.000 HD 
BRANCH  15  18
HETATM   18  C   UNL     1     -11.967  12.624  68.319  1.00  0.00    -0.222 C  
BRANCH  18  19
HETATM   19  O   UNL     1     -11.153  12.339  69.452  1.00  0.00    -0.198 OA 
BRANCH  19  20
HETATM   20  C   UNL     1     -11.572  11.294  70.241  1.00  0.00    -0.275 A  
HETATM   21  C   UNL     1     -12.780  11.275  70.963  1.00  0.00    -0.457 A  
HETATM   22  C   UNL     1     -13.155  10.169  71.720  1.00  0.00    -0.568 A  
HETATM   23  C   UNL     1     -12.346   9.037  71.789  1.00  0.00    -0.438 A  
HETATM   24  C   UNL     1     -11.141   9.063  71.077  1.00  0.00    -0.289 A  
HETATM   25  C   UNL     1     -10.731  10.157  70.313  1.00  0.00    -0.352 A  
HETATM   26  C   UNL     1      -9.451   9.827  69.754  1.00  0.00    -0.253 A  
HETATM   27  C   UNL     1      -8.533  10.513  68.929  1.00  0.00    -0.152 A  
HETATM   28  C   UNL     1      -7.341   9.887  68.548  1.00  0.00    -0.078 A  
HETATM   29  C   UNL     1      -7.056   8.593  68.978  1.00  0.00    -0.065 A  
HETATM   30  C   UNL     1      -7.944   7.893  69.800  1.00  0.00    -0.114 A  
HETATM   31  C   UNL     1      -9.130   8.540  70.173  1.00  0.00    -0.152 A  
HETATM   32  N   UNL     1     -10.160   8.104  70.966  1.00  0.00    -0.186 NA 
HETATM   33  H   UNL     1     -10.195   7.189  71.415  1.00  0.00     0.000 HD 
ENDBRANCH  19  20
ENDBRANCH  18  19
ENDBRANCH  15  18
ENDBRANCH  14  15
ENDBRANCH  12  14
ENDBRANCH  11  12
ENDBRANCH  10  11
ENDBRANCH   9  10
ENDBRANCH   8   9
ENDBRANCH   2   3
TORSDOF 10
ENDMDL
MODEL      146
REMARK 921   NORMALIZED FREE ENERGY PREDICTED BY IDOCK:   -5.23 KCAL/MOL
REMARK 922        TOTAL FREE ENERGY PREDICTED BY IDOCK:  -10.14 KCAL/MOL
REMARK 923 INTER-LIGAND FREE ENERGY PREDICTED BY IDOCK:   -8.19 KCAL/MOL
REMARK 924 INTRA-LIGAND FREE ENERGY PREDICTED BY IDOCK:   -1.95 KCAL/MOL
REMARK 927      BINDING AFFINITY PREDICTED BY RF-SCORE:    0.00 PKD
ROOT
HETATM    1  C   UNL     1      -8.383  14.300  68.624  1.00  0.00    -0.135 C  
HETATM    2  O   UNL     1      -8.579  13.534  67.437  1.00  0.00    -0.186 OA 
ENDROOT
BRANCH   2   3
HETATM    3  C   UNL     1      -7.640  12.568  67.179  1.00  0.00    -0.085 A  
HETATM    4  C   UNL     1      -6.374  12.599  67.786  1.00  0.00    -0.130 A  
HETATM    5  C   UNL     1      -5.444  11.585  67.558  1.00  0.00    -0.061 A  
HETATM    6  C   UNL     1      -5.754  10.540  66.698  1.00  0.00    -0.060 A  
HETATM    7  C   UNL     1      -6.987  10.525  66.049  1.00  0.00    -0.134 A  
HETATM    8  C   UNL     1      -7.937  11.534  66.268  1.00  0.00     0.019 A  
BRANCH   8   9
HETATM    9  O   UNL     1      -9.082  11.330  65.536  1.00  0.00    -0.209 OA 
BRANCH   9  10
HETATM   10  C   UNL     1      -8.925  10.920  64.183  1.00  0.00    -0.101 C  
BRANCH  10  11
HETATM   11  C   UNL     1     -10.172  11.296  63.366  1.00  0.00    -0.403 C  
BRANCH  11  12
HETATM   12  N   UNL     1     -11.444  11.031  64.063  1.00  0.00    -0.115 NA 
HETATM   13  H   UNL     1     -11.285  10.796  65.043  1.00  0.00     0.000 HD 
BRANCH  12  14
HETATM   14  C   UNL     1     -12.401  12.150  63.931  1.00  0.00    -0.487 C  
BRANCH  14  15
HETATM   15  C   UNL     1     -11.728  13.526  64.130  1.00  0.00    -0.411 C  
HETATM   16  O   UNL     1     -12.425  14.511  63.362  1.00  0.00    -1.080 OA 
HETATM   17  H   UNL     1     -12.011  15.358  63.485  1.00  0.00     0.000 HD 
BRANCH  15  18
HETATM   18  C   UNL     1     -11.717  13.902  65.617  1.00  0.00    -0.354 C  
BRANCH  18  19
HETATM   19  O   UNL     1     -11.750  12.738  66.436  1.00  0.00    -0.363 OA 
BRANCH  19  20
HETATM   20  C   UNL     1     -11.844  12.961  67.789  1.00  0.00    -0.339 A  
HETATM   21  C   UNL     1     -12.200  14.191  68.372  1.00  0.00    -0.200 A  
HETATM   22  C   UNL     1     -12.304  14.337  69.751  1.00  0.00    -0.342 A  
HETATM   23  C   UNL     1     -12.060  13.266  70.609  1.00  0.00    -0.361 A  
HETATM   24  C   UNL     1     -11.697  12.046  70.026  1.00  0.00    -0.267 A  
HETATM   25  C   UNL     1     -11.577  11.865  68.647  1.00  0.00    -0.366 A  
HETATM   26  C   UNL     1     -11.173  10.505  68.432  1.00  0.00    -0.339 A  
HETATM   27  C   UNL     1     -10.874   9.740  67.284  1.00  0.00    -0.247 A  
HETATM   28  C   UNL     1     -10.506   8.397  67.423  1.00  0.00    -0.354 A  
HETATM   29  C   UNL     1     -10.433   7.813  68.685  1.00  0.00    -0.199 A  
HETATM   30  C   UNL     1     -10.718   8.549  69.839  1.00  0.00    -0.224 A  
HETATM   31  C   UNL     1     -11.081   9.893  69.678  1.00  0.00    -0.241 A  
HETATM   32  N   UNL     1     -11.400  10.840  70.618  1.00  0.00    -0.421 NA 
HETATM   33  H   UNL     1     -11.414  10.672  71.624  1.00  0.00     0.000 HD 
ENDBRANCH  19  20
ENDBRANCH  18  19
ENDBRANCH  15  18
ENDBRANCH  14  15
ENDBRANCH  12  14
ENDBRANCH  11  12
ENDBRANCH  10  11
ENDBRANCH   9  10
ENDBRANCH   8   9
ENDBRANCH   2   3
TORSDOF 10
ENDMDL
MODEL      147
REMARK 921   NORMALIZED FREE ENERGY PREDICTED BY IDOCK:   -5.22 KCAL/MOL
REMARK 922        TOTAL FREE ENERGY PREDICTED BY IDOCK:  -10.12 KCAL/MOL
REMARK 923 INTER-LIGAND FREE ENERGY PREDICTED BY IDOCK:   -9.23 KCAL/MOL
REMARK 924 INTRA-LIGAND FREE ENERGY PREDICTED BY IDOCK:   -0.90 KCAL/MOL
REMARK 927      BINDING AFFINITY PREDICTED BY RF-SCORE:    0.00 PKD
ROOT
HETATM    1  C   UNL     1     -10.563   5.992  68.656  1.00  0.00    -0.266 C  
HETATM    2  O   UNL     1     -11.573   6.219  69.637  1.00  0.00    -0.430 OA 
ENDROOT
BRANCH   2   3
HETATM    3  C   UNL     1     -11.134   6.550  70.893  1.00  0.00    -0.292 A  
HETATM    4  C   UNL     1     -10.410   5.636  71.678  1.00  0.00    -0.270 A  
HETATM    5  C   UNL     1      -9.922   5.997  72.933  1.00  0.00    -0.187 A  
HETATM    6  C   UNL     1     -10.175   7.266  73.436  1.00  0.00    -0.394 A  
HETATM    7  C   UNL     1     -10.936   8.164  72.690  1.00  0.00    -0.440 A  
HETATM    8  C   UNL     1     -11.432   7.821  71.424  1.00  0.00    -0.260 A  
BRANCH   8   9
HETATM    9  O   UNL     1     -12.152   8.846  70.858  1.00  0.00    -0.270 OA 
BRANCH   9  10
HETATM   10  C   UNL     1     -11.679  10.169  71.075  1.00  0.00    -0.382 C  
BRANCH  10  11
HETATM   11  C   UNL     1     -12.267  11.123  70.022  1.00  0.00    -0.326 C  
BRANCH  11  12
HETATM   12  N   UNL     1     -11.380  12.248  69.675  1.00  0.00    -0.471 NA 
HETATM   13  H   UNL     1     -10.469  11.916  69.359  1.00  0.00     0.000 HD 
BRANCH  12  14
HETATM   14  C   UNL     1     -11.990  13.159  68.681  1.00  0.00    -0.284 C  
BRANCH  14  15
HETATM   15  C   UNL     1     -11.337  13.030  67.288  1.00  0.00    -0.306 C  
HETATM   16  O   UNL     1     -12.359  12.962  66.289  1.00  0.00    -0.477 OA 
HETATM   17  H   UNL     1     -11.958  12.883  65.431  1.00  0.00     0.000 HD 
BRANCH  15  18
HETATM   18  C   UNL     1     -10.400  14.217  67.028  1.00  0.00    -0.267 C  
BRANCH  18  19
HETATM   19  O   UNL     1     -10.349  15.081  68.158  1.00  0.00    -0.235 OA 
BRANCH  19  20
HETATM   20  C   UNL     1      -9.092  15.355  68.645  1.00  0.00    -0.195 A  
HETATM   21  C   UNL     1      -8.224  14.394  69.197  1.00  0.00     0.037 A  
HETATM   22  C   UNL     1      -6.952  14.737  69.644  1.00  0.00    -0.172 A  
HETATM   23  C   UNL     1      -6.490  16.049  69.560  1.00  0.00    -0.187 A  
HETATM   24  C   UNL     1      -7.360  17.004  69.019  1.00  0.00    -0.225 A  
HETATM   25  C   UNL     1      -8.644  16.696  68.566  1.00  0.00    -0.234 A  
HETATM   26  C   UNL     1      -9.235  17.919  68.105  1.00  0.00    -0.278 A  
HETATM   27  C   UNL     1     -10.495  18.259  67.564  1.00  0.00    -0.431 A  
HETATM   28  C   UNL     1     -10.758  19.584  67.200  1.00  0.00    -0.599 A  
HETATM   29  C   UNL     1      -9.787  20.568  67.368  1.00  0.00    -0.574 A  
HETATM   30  C   UNL     1      -8.533  20.261  67.906  1.00  0.00    -0.201 A  
HETATM   31  C   UNL     1      -8.292  18.929  68.268  1.00  0.00    -0.330 A  
HETATM   32  N   UNL     1      -7.176  18.353  68.819  1.00  0.00    -0.281 NA 
HETATM   33  H   UNL     1      -6.320  18.859  69.050  1.00  0.00     0.000 HD 
ENDBRANCH  19  20
ENDBRANCH  18  19
ENDBRANCH  15  18
ENDBRANCH  14  15
ENDBRANCH  12  14
ENDBRANCH  11  12
ENDBRANCH  10  11
ENDBRANCH   9  10
ENDBRANCH   8   9
ENDBRANCH   2   3
TORSDOF 10
ENDMDL
MODEL      148
REMARK 921   NORMALIZED FREE ENERGY PREDICTED BY IDOCK:   -5.22 KCAL/MOL
REMARK 922        TOTAL FREE ENERGY PREDICTED BY IDOCK:  -10.12 KCAL/MOL
REMARK 923 INTER-LIGAND FREE ENERGY PREDICTED BY IDOCK:   -7.70 KCAL/MOL
REMARK 924 INTRA-LIGAND FREE ENERGY PREDICTED BY IDOCK:   -2.42 KCAL/MOL
REMARK 927      BINDING AFFINITY PREDICTED BY RF-SCORE:    0.00 PKD
ROOT
HETATM    1  C   UNL     1      -9.166  11.005  62.716  1.00  0.00    -0.351 C  
HETATM    2  O   UNL     1      -9.335  12.267  63.359  1.00  0.00    -0.096 OA 
ENDROOT
BRANCH   2   3
HETATM    3  C   UNL     1     -10.585  12.530  63.858  1.00  0.00    -0.440 A  
HETATM    4  C   UNL     1     -11.703  11.777  63.461  1.00  0.00    -0.485 A  
HETATM    5  C   UNL     1     -12.962  12.017  64.011  1.00  0.00    -0.251 A  
HETATM    6  C   UNL     1     -13.128  13.030  64.945  1.00  0.00    -0.023 A  
HETATM    7  C   UNL     1     -12.038  13.817  65.310  1.00  0.00    -0.425 A  
HETATM    8  C   UNL     1     -10.763  13.589  64.770  1.00  0.00    -0.401 A  
BRANCH   8   9
HETATM    9  O   UNL     1      -9.831  14.472  65.262  1.00  0.00    -0.325 OA 
BRANCH   9  10
HETATM   10  C   UNL     1     -10.251  15.815  65.465  1.00  0.00    -0.378 C  
BRANCH  10  11
HETATM   11  C   UNL     1     -10.004  16.233  66.924  1.00  0.00    -0.260 C  
BRANCH  11  12
HETATM   12  N   UNL     1     -11.239  16.424  67.707  1.00  0.00    -0.197 NA 
HETATM   13  H   UNL     1     -11.973  15.786  67.399  1.00  0.00     0.000 HD 
BRANCH  12  14
HETATM   14  C   UNL     1     -11.005  16.307  69.163  1.00  0.00    -0.324 C  
BRANCH  14  15
HETATM   15  C   UNL     1     -11.940  15.272  69.827  1.00  0.00    -0.347 C  
HETATM   16  O   UNL     1     -13.233  15.854  70.017  1.00  0.00    -0.615 OA 
HETATM   17  H   UNL     1     -13.808  15.217  70.426  1.00  0.00     0.000 HD 
BRANCH  15  18
HETATM   18  C   UNL     1     -12.033  14.009  68.963  1.00  0.00    -0.357 C  
BRANCH  18  19
HETATM   19  O   UNL     1     -11.167  12.991  69.455  1.00  0.00    -0.226 OA 
BRANCH  19  20
HETATM   20  C   UNL     1     -10.676  12.117  68.515  1.00  0.00    -0.232 A  
HETATM   21  C   UNL     1     -11.390  11.022  67.993  1.00  0.00    -0.374 A  
HETATM   22  C   UNL     1     -10.840  10.194  67.020  1.00  0.00    -0.221 A  
HETATM   23  C   UNL     1      -9.558  10.421  66.523  1.00  0.00    -0.224 A  
HETATM   24  C   UNL     1      -8.847  11.506  67.051  1.00  0.00    -0.173 A  
HETATM   25  C   UNL     1      -9.365  12.353  68.032  1.00  0.00    -0.204 A  
HETATM   26  C   UNL     1      -8.351  13.322  68.333  1.00  0.00    -0.131 A  
HETATM   27  C   UNL     1      -8.265  14.407  69.233  1.00  0.00     0.124 A  
HETATM   28  C   UNL     1      -7.102  15.182  69.275  1.00  0.00    -0.172 A  
HETATM   29  C   UNL     1      -6.030  14.892  68.434  1.00  0.00    -0.104 A  
HETATM   30  C   UNL     1      -6.085  13.821  67.537  1.00  0.00    -0.002 A  
HETATM   31  C   UNL     1      -7.258  13.054  67.514  1.00  0.00    -0.151 A  
HETATM   32  N   UNL     1      -7.581  11.959  66.755  1.00  0.00    -0.337 NA 
HETATM   33  H   UNL     1      -6.964  11.534  66.062  1.00  0.00     0.000 HD 
ENDBRANCH  19  20
ENDBRANCH  18  19
ENDBRANCH  15  18
ENDBRANCH  14  15
ENDBRANCH  12  14
ENDBRANCH  11  12
ENDBRANCH  10  11
ENDBRANCH   9  10
ENDBRANCH   8   9
ENDBRANCH   2   3
TORSDOF 10
ENDMDL
MODEL      149
REMARK 921   NORMALIZED FREE ENERGY PREDICTED BY IDOCK:   -5.22 KCAL/MOL
REMARK 922        TOTAL FREE ENERGY PREDICTED BY IDOCK:  -10.11 KCAL/MOL
REMARK 923 INTER-LIGAND FREE ENERGY PREDICTED BY IDOCK:   -8.60 KCAL/MOL
REMARK 924 INTRA-LIGAND FREE ENERGY PREDICTED BY IDOCK:   -1.51 KCAL/MOL
REMARK 927      BINDING AFFINITY PREDICTED BY RF-SCORE:    0.00 PKD
ROOT
HETATM    1  C   UNL     1     -12.883  12.100  63.449  1.00  0.00    -0.272 C  
HETATM    2  O   UNL     1     -13.250  12.802  64.634  1.00  0.00    -0.776 OA 
ENDROOT
BRANCH   2   3
HETATM    3  C   UNL     1     -12.277  13.588  65.198  1.00  0.00    -0.428 A  
HETATM    4  C   UNL     1     -11.806  14.743  64.551  1.00  0.00    -0.428 A  
HETATM    5  C   UNL     1     -10.853  15.565  65.153  1.00  0.00    -0.452 A  
HETATM    6  C   UNL     1     -10.337  15.230  66.397  1.00  0.00    -0.296 A  
HETATM    7  C   UNL     1     -10.758  14.061  67.027  1.00  0.00    -0.284 A  
HETATM    8  C   UNL     1     -11.718  13.223  66.438  1.00  0.00    -0.373 A  
BRANCH   8   9
HETATM    9  O   UNL     1     -11.994  12.128  67.221  1.00  0.00    -0.573 OA 
BRANCH   9  10
HETATM   10  C   UNL     1     -11.856  12.283  68.628  1.00  0.00    -0.305 C  
BRANCH  10  11
HETATM   11  C   UNL     1     -12.534  11.113  69.361  1.00  0.00    -0.017 C  
BRANCH  11  12
HETATM   12  N   UNL     1     -11.991  10.858  70.707  1.00  0.00    -0.344 NA 
HETATM   13  H   UNL     1     -11.870  11.727  71.227  1.00  0.00     0.000 HD 
BRANCH  12  14
HETATM   14  C   UNL     1     -12.809   9.889  71.469  1.00  0.00    -0.421 C  
BRANCH  14  15
HETATM   15  C   UNL     1     -11.957   8.760  72.089  1.00  0.00    -0.366 C  
HETATM   16  O   UNL     1     -12.736   7.562  72.161  1.00  0.00    -0.458 OA 
HETATM   17  H   UNL     1     -12.212   6.867  72.542  1.00  0.00     0.000 HD 
BRANCH  15  18
HETATM   18  C   UNL     1     -10.687   8.535  71.259  1.00  0.00    -0.240 C  
BRANCH  18  19
HETATM   19  O   UNL     1     -11.010   8.261  69.900  1.00  0.00    -0.239 OA 
BRANCH  19  20
HETATM   20  C   UNL     1     -10.449   7.124  69.370  1.00  0.00    -0.222 A  
HETATM   21  C   UNL     1     -10.598   5.834  69.912  1.00  0.00    -0.388 A  
HETATM   22  C   UNL     1     -10.025   4.721  69.304  1.00  0.00    -0.254 A  
HETATM   23  C   UNL     1      -9.281   4.844  68.132  1.00  0.00    -0.151 A  
HETATM   24  C   UNL     1      -9.128   6.130  67.601  1.00  0.00    -0.109 A  
HETATM   25  C   UNL     1      -9.683   7.269  68.187  1.00  0.00    -0.155 A  
HETATM   26  C   UNL     1      -9.298   8.391  67.380  1.00  0.00    -0.178 A  
HETATM   27  C   UNL     1      -9.525   9.782  67.460  1.00  0.00    -0.170 A  
HETATM   28  C   UNL     1      -8.999  10.628  66.478  1.00  0.00    -0.169 A  
HETATM   29  C   UNL     1      -8.254  10.106  65.423  1.00  0.00    -0.151 A  
HETATM   30  C   UNL     1      -8.010   8.733  65.321  1.00  0.00    -0.118 A  
HETATM   31  C   UNL     1      -8.542   7.904  66.318  1.00  0.00    -0.149 A  
HETATM   32  N   UNL     1      -8.454   6.545  66.475  1.00  0.00    -0.116 NA 
HETATM   33  H   UNL     1      -7.955   5.922  65.840  1.00  0.00     0.000 HD 
ENDBRANCH  19  20
ENDBRANCH  18  19
ENDBRANCH  15  18
ENDBRANCH  14  15
ENDBRANCH  12  14
ENDBRANCH  11  12
ENDBRANCH  10  11
ENDBRANCH   9  10
ENDBRANCH   8   9
ENDBRANCH   2   3
TORSDOF 10
ENDMDL
MODEL      150
REMARK 921   NORMALIZED FREE ENERGY PREDICTED BY IDOCK:   -5.21 KCAL/MOL
REMARK 922        TOTAL FREE ENERGY PREDICTED BY IDOCK:  -10.10 KCAL/MOL
REMARK 923 INTER-LIGAND FREE ENERGY PREDICTED BY IDOCK:   -8.37 KCAL/MOL
REMARK 924 INTRA-LIGAND FREE ENERGY PREDICTED BY IDOCK:   -1.73 KCAL/MOL
REMARK 927      BINDING AFFINITY PREDICTED BY RF-SCORE:    0.00 PKD
ROOT
HETATM    1  C   UNL     1     -12.750  12.010  63.458  1.00  0.00    -0.443 C  
HETATM    2  O   UNL     1     -13.047  12.595  64.724  1.00  0.00    -0.852 OA 
ENDROOT
BRANCH   2   3
HETATM    3  C   UNL     1     -12.053  13.353  65.290  1.00  0.00    -0.413 A  
HETATM    4  C   UNL     1     -11.363  14.325  64.546  1.00  0.00    -0.341 A  
HETATM    5  C   UNL     1     -10.389  15.126  65.141  1.00  0.00    -0.416 A  
HETATM    6  C   UNL     1     -10.071  14.951  66.481  1.00  0.00    -0.279 A  
HETATM    7  C   UNL     1     -10.711  13.956  67.217  1.00  0.00    -0.286 A  
HETATM    8  C   UNL     1     -11.696  13.141  66.636  1.00  0.00    -0.375 A  
BRANCH   8   9
HETATM    9  O   UNL     1     -12.202  12.229  67.532  1.00  0.00    -0.457 OA 
BRANCH   9  10
HETATM   10  C   UNL     1     -11.889  12.424  68.905  1.00  0.00    -0.301 C  
BRANCH  10  11
HETATM   11  C   UNL     1     -12.198  11.148  69.706  1.00  0.00    -0.300 C  
BRANCH  11  12
HETATM   12  N   UNL     1     -11.086  10.700  70.565  1.00  0.00    -0.441 NA 
HETATM   13  H   UNL     1     -10.919  11.358  71.325  1.00  0.00     0.000 HD 
BRANCH  12  14
HETATM   14  C   UNL     1     -11.293   9.329  71.081  1.00  0.00    -0.342 C  
BRANCH  14  15
HETATM   15  C   UNL     1      -9.978   8.522  71.149  1.00  0.00    -0.207 C  
HETATM   16  O   UNL     1     -10.266   7.178  71.548  1.00  0.00    -0.198 OA 
HETATM   17  H   UNL     1      -9.457   6.681  71.590  1.00  0.00     0.000 HD 
BRANCH  15  18
HETATM   18  C   UNL     1      -9.269   8.546  69.789  1.00  0.00    -0.157 C  
BRANCH  18  19
HETATM   19  O   UNL     1     -10.206   8.417  68.725  1.00  0.00    -0.199 OA 
BRANCH  19  20
HETATM   20  C   UNL     1      -9.753   8.788  67.481  1.00  0.00    -0.167 A  
HETATM   21  C   UNL     1      -9.644  10.118  67.036  1.00  0.00    -0.209 A  
HETATM   22  C   UNL     1      -9.149  10.423  65.772  1.00  0.00    -0.197 A  
HETATM   23  C   UNL     1      -8.740   9.417  64.898  1.00  0.00    -0.220 A  
HETATM   24  C   UNL     1      -8.859   8.094  65.341  1.00  0.00    -0.044 A  
HETATM   25  C   UNL     1      -9.357   7.752  66.600  1.00  0.00    -0.238 A  
HETATM   26  C   UNL     1      -9.347   6.320  66.684  1.00  0.00    -0.167 A  
HETATM   27  C   UNL     1      -9.739   5.392  67.674  1.00  0.00    -0.155 A  
HETATM   28  C   UNL     1      -9.588   4.022  67.438  1.00  0.00    -0.222 A  
HETATM   29  C   UNL     1      -9.053   3.568  66.235  1.00  0.00    -0.161 A  
HETATM   30  C   UNL     1      -8.660   4.464  65.236  1.00  0.00    -0.124 A  
HETATM   31  C   UNL     1      -8.825   5.832  65.491  1.00  0.00    -0.113 A  
HETATM   32  N   UNL     1      -8.541   6.917  64.701  1.00  0.00    -0.346 NA 
HETATM   33  H   UNL     1      -8.145   6.860  63.763  1.00  0.00     0.000 HD 
ENDBRANCH  19  20
ENDBRANCH  18  19
ENDBRANCH  15  18
ENDBRANCH  14  15
ENDBRANCH  12  14
ENDBRANCH  11  12
ENDBRANCH  10  11
ENDBRANCH   9  10
ENDBRANCH   8   9
ENDBRANCH   2   3
TORSDOF 10
ENDMDL
MODEL      151
REMARK 921   NORMALIZED FREE ENERGY PREDICTED BY IDOCK:   -5.20 KCAL/MOL
REMARK 922        TOTAL FREE ENERGY PREDICTED BY IDOCK:  -10.09 KCAL/MOL
REMARK 923 INTER-LIGAND FREE ENERGY PREDICTED BY IDOCK:   -9.01 KCAL/MOL
REMARK 924 INTRA-LIGAND FREE ENERGY PREDICTED BY IDOCK:   -1.08 KCAL/MOL
REMARK 927      BINDING AFFINITY PREDICTED BY RF-SCORE:    0.00 PKD
ROOT
HETATM    1  C   UNL     1      -6.086  20.130  70.454  1.00  0.00    -0.348 C  
HETATM    2  O   UNL     1      -5.684  19.568  69.206  1.00  0.00    -0.218 OA 
ENDROOT
BRANCH   2   3
HETATM    3  C   UNL     1      -5.949  18.234  69.029  1.00  0.00    -0.218 A  
HETATM    4  C   UNL     1      -5.288  17.252  69.787  1.00  0.00    -0.194 A  
HETATM    5  C   UNL     1      -5.599  15.901  69.637  1.00  0.00    -0.127 A  
HETATM    6  C   UNL     1      -6.554  15.508  68.710  1.00  0.00    -0.108 A  
HETATM    7  C   UNL     1      -7.180  16.467  67.917  1.00  0.00    -0.153 A  
HETATM    8  C   UNL     1      -6.883  17.832  68.054  1.00  0.00    -0.191 A  
BRANCH   8   9
HETATM    9  O   UNL     1      -7.609  18.607  67.182  1.00  0.00    -0.220 OA 
BRANCH   9  10
HETATM   10  C   UNL     1      -8.876  19.074  67.628  1.00  0.00    -0.289 C  
BRANCH  10  11
HETATM   11  C   UNL     1      -9.956  18.768  66.576  1.00  0.00    -0.380 C  
BRANCH  11  12
HETATM   12  N   UNL     1     -10.591  17.448  66.742  1.00  0.00    -0.249 NA 
HETATM   13  H   UNL     1     -11.609  17.526  66.740  1.00  0.00     0.000 HD 
BRANCH  12  14
HETATM   14  C   UNL     1     -10.129  16.471  65.732  1.00  0.00    -0.303 C  
BRANCH  14  15
HETATM   15  C   UNL     1     -11.302  15.763  65.019  1.00  0.00    -0.220 C  
HETATM   16  O   UNL     1     -11.499  16.351  63.730  1.00  0.00    -1.590 OA 
HETATM   17  H   UNL     1     -12.221  15.915  63.291  1.00  0.00     0.000 HD 
BRANCH  15  18
HETATM   18  C   UNL     1     -11.018  14.260  64.895  1.00  0.00    -0.404 C  
BRANCH  18  19
HETATM   19  O   UNL     1     -10.155  13.818  65.938  1.00  0.00    -0.299 OA 
BRANCH  19  20
HETATM   20  C   UNL     1     -10.769  13.198  67.000  1.00  0.00    -0.262 A  
HETATM   21  C   UNL     1     -11.534  13.861  67.977  1.00  0.00    -0.339 A  
HETATM   22  C   UNL     1     -12.153  13.164  69.010  1.00  0.00    -0.240 A  
HETATM   23  C   UNL     1     -12.038  11.779  69.114  1.00  0.00    -0.290 A  
HETATM   24  C   UNL     1     -11.269  11.124  68.145  1.00  0.00    -0.292 A  
HETATM   25  C   UNL     1     -10.629  11.792  67.099  1.00  0.00    -0.267 A  
HETATM   26  C   UNL     1      -9.929  10.803  66.331  1.00  0.00    -0.264 A  
HETATM   27  C   UNL     1      -9.100  10.852  65.189  1.00  0.00    -0.216 A  
HETATM   28  C   UNL     1      -8.563   9.669  64.671  1.00  0.00    -0.201 A  
HETATM   29  C   UNL     1      -8.840   8.444  65.274  1.00  0.00    -0.113 A  
HETATM   30  C   UNL     1      -9.654   8.367  66.409  1.00  0.00    -0.307 A  
HETATM   31  C   UNL     1     -10.178   9.564  66.914  1.00  0.00    -0.249 A  
HETATM   32  N   UNL     1     -10.984   9.785  68.001  1.00  0.00    -0.458 NA 
HETATM   33  H   UNL     1     -11.328   9.053  68.623  1.00  0.00     0.000 HD 
ENDBRANCH  19  20
ENDBRANCH  18  19
ENDBRANCH  15  18
ENDBRANCH  14  15
ENDBRANCH  12  14
ENDBRANCH  11  12
ENDBRANCH  10  11
ENDBRANCH   9  10
ENDBRANCH   8   9
ENDBRANCH   2   3
TORSDOF 10
ENDMDL
MODEL      152
REMARK 921   NORMALIZED FREE ENERGY PREDICTED BY IDOCK:   -5.20 KCAL/MOL
REMARK 922        TOTAL FREE ENERGY PREDICTED BY IDOCK:  -10.09 KCAL/MOL
REMARK 923 INTER-LIGAND FREE ENERGY PREDICTED BY IDOCK:   -8.98 KCAL/MOL
REMARK 924 INTRA-LIGAND FREE ENERGY PREDICTED BY IDOCK:   -1.11 KCAL/MOL
REMARK 927      BINDING AFFINITY PREDICTED BY RF-SCORE:    0.00 PKD
ROOT
HETATM    1  C   UNL     1      -9.045   9.563  64.865  1.00  0.00    -0.223 C  
HETATM    2  O   UNL     1     -10.158   9.345  65.728  1.00  0.00    -0.288 OA 
ENDROOT
BRANCH   2   3
HETATM    3  C   UNL     1      -9.893   9.355  67.074  1.00  0.00    -0.201 A  
HETATM    4  C   UNL     1      -8.845   8.592  67.617  1.00  0.00    -0.138 A  
HETATM    5  C   UNL     1      -8.549   8.646  68.979  1.00  0.00    -0.129 A  
HETATM    6  C   UNL     1      -9.312   9.442  69.823  1.00  0.00    -0.217 A  
HETATM    7  C   UNL     1     -10.386  10.164  69.305  1.00  0.00    -0.242 A  
HETATM    8  C   UNL     1     -10.698  10.124  67.938  1.00  0.00    -0.269 A  
BRANCH   8   9
HETATM    9  O   UNL     1     -11.788  10.905  67.636  1.00  0.00    -0.572 OA 
BRANCH   9  10
HETATM   10  C   UNL     1     -11.532  12.211  67.135  1.00  0.00    -0.346 C  
BRANCH  10  11
HETATM   11  C   UNL     1     -12.080  12.347  65.704  1.00  0.00    -0.329 C  
BRANCH  11  12
HETATM   12  N   UNL     1     -12.240  13.743  65.257  1.00  0.00    -0.412 NA 
HETATM   13  H   UNL     1     -12.436  14.362  66.044  1.00  0.00     0.000 HD 
BRANCH  12  14
HETATM   14  C   UNL     1     -11.076  14.221  64.479  1.00  0.00    -0.312 C  
BRANCH  14  15
HETATM   15  C   UNL     1     -10.743  15.701  64.768  1.00  0.00    -0.276 C  
HETATM   16  O   UNL     1     -11.434  16.534  63.833  1.00  0.00    -1.608 OA 
HETATM   17  H   UNL     1     -11.230  17.445  64.011  1.00  0.00     0.000 HD 
BRANCH  15  18
HETATM   18  C   UNL     1     -11.130  16.061  66.209  1.00  0.00     0.037 C  
BRANCH  18  19
HETATM   19  O   UNL     1     -10.148  16.904  66.803  1.00  0.00    -0.275 OA 
BRANCH  19  20
HETATM   20  C   UNL     1      -9.304  16.297  67.703  1.00  0.00    -0.218 A  
HETATM   21  C   UNL     1      -9.430  14.966  68.141  1.00  0.00    -0.202 A  
HETATM   22  C   UNL     1      -8.520  14.407  69.033  1.00  0.00    -0.001 A  
HETATM   23  C   UNL     1      -7.447  15.148  69.526  1.00  0.00    -0.213 A  
HETATM   24  C   UNL     1      -7.331  16.475  69.094  1.00  0.00    -0.220 A  
HETATM   25  C   UNL     1      -8.229  17.069  68.205  1.00  0.00    -0.217 A  
HETATM   26  C   UNL     1      -7.802  18.427  68.017  1.00  0.00    -0.286 A  
HETATM   27  C   UNL     1      -8.296  19.517  67.268  1.00  0.00    -0.327 A  
HETATM   28  C   UNL     1      -7.620  20.741  67.297  1.00  0.00    -0.356 A  
HETATM   29  C   UNL     1      -6.464  20.891  68.059  1.00  0.00    -0.354 A  
HETATM   30  C   UNL     1      -5.955  19.829  68.814  1.00  0.00    -0.280 A  
HETATM   31  C   UNL     1      -6.649  18.613  68.774  1.00  0.00    -0.265 A  
HETATM   32  N   UNL     1      -6.389  17.427  69.412  1.00  0.00    -0.242 NA 
HETATM   33  H   UNL     1      -5.600  17.270  70.039  1.00  0.00     0.000 HD 
ENDBRANCH  19  20
ENDBRANCH  18  19
ENDBRANCH  15  18
ENDBRANCH  14  15
ENDBRANCH  12  14
ENDBRANCH  11  12
ENDBRANCH  10  11
ENDBRANCH   9  10
ENDBRANCH   8   9
ENDBRANCH   2   3
TORSDOF 10
ENDMDL
MODEL      153
REMARK 921   NORMALIZED FREE ENERGY PREDICTED BY IDOCK:   -5.19 KCAL/MOL
REMARK 922        TOTAL FREE ENERGY PREDICTED BY IDOCK:  -10.07 KCAL/MOL
REMARK 923 INTER-LIGAND FREE ENERGY PREDICTED BY IDOCK:   -8.94 KCAL/MOL
REMARK 924 INTRA-LIGAND FREE ENERGY PREDICTED BY IDOCK:   -1.13 KCAL/MOL
REMARK 927      BINDING AFFINITY PREDICTED BY RF-SCORE:    0.00 PKD
ROOT
HETATM    1  C   UNL     1     -10.768  16.445  65.421  1.00  0.00    -0.296 C  
HETATM    2  O   UNL     1      -9.558  17.186  65.567  1.00  0.00    -0.508 OA 
ENDROOT
BRANCH   2   3
HETATM    3  C   UNL     1      -9.515  18.075  66.611  1.00  0.00    -0.297 A  
HETATM    4  C   UNL     1     -10.617  18.890  66.921  1.00  0.00    -0.495 A  
HETATM    5  C   UNL     1     -10.584  19.755  68.015  1.00  0.00    -0.439 A  
HETATM    6  C   UNL     1      -9.441  19.840  68.797  1.00  0.00    -0.344 A  
HETATM    7  C   UNL     1      -8.323  19.075  68.469  1.00  0.00    -0.387 A  
HETATM    8  C   UNL     1      -8.338  18.197  67.375  1.00  0.00    -0.239 A  
BRANCH   8   9
HETATM    9  O   UNL     1      -7.140  17.538  67.228  1.00  0.00    -0.159 OA 
BRANCH   9  10
HETATM   10  C   UNL     1      -6.772  16.622  68.251  1.00  0.00    -0.142 C  
BRANCH  10  11
HETATM   11  C   UNL     1      -6.645  15.203  67.672  1.00  0.00    -0.171 C  
BRANCH  11  12
HETATM   12  N   UNL     1      -7.881  14.702  67.045  1.00  0.00    -0.343 NA 
HETATM   13  H   UNL     1      -7.739  13.779  66.636  1.00  0.00     0.000 HD 
BRANCH  12  14
HETATM   14  C   UNL     1      -9.026  14.701  67.982  1.00  0.00    -0.174 C  
BRANCH  14  15
HETATM   15  C   UNL     1      -9.705  13.317  68.078  1.00  0.00    -0.223 C  
HETATM   16  O   UNL     1      -8.765  12.360  68.575  1.00  0.00    -0.298 OA 
HETATM   17  H   UNL     1      -9.183  11.508  68.634  1.00  0.00     0.000 HD 
BRANCH  15  18
HETATM   18  C   UNL     1     -10.938  13.393  68.987  1.00  0.00    -0.224 C  
BRANCH  18  19
HETATM   19  O   UNL     1     -11.834  12.319  68.719  1.00  0.00    -0.309 OA 
BRANCH  19  20
HETATM   20  C   UNL     1     -12.009  11.416  69.741  1.00  0.00    -0.353 A  
HETATM   21  C   UNL     1     -12.636  11.709  70.966  1.00  0.00    -0.431 A  
HETATM   22  C   UNL     1     -12.805  10.736  71.946  1.00  0.00    -0.460 A  
HETATM   23  C   UNL     1     -12.358   9.431  71.748  1.00  0.00    -0.471 A  
HETATM   24  C   UNL     1     -11.726   9.146  70.532  1.00  0.00    -0.152 A  
HETATM   25  C   UNL     1     -11.535  10.098  69.529  1.00  0.00    -0.227 A  
HETATM   26  C   UNL     1     -10.842   9.448  68.454  1.00  0.00    -0.156 A  
HETATM   27  C   UNL     1     -10.356   9.874  67.199  1.00  0.00    -0.304 A  
HETATM   28  C   UNL     1      -9.711   8.961  66.358  1.00  0.00    -0.332 A  
HETATM   29  C   UNL     1      -9.546   7.635  66.752  1.00  0.00    -0.269 A  
HETATM   30  C   UNL     1     -10.013   7.186  67.992  1.00  0.00    -0.184 A  
HETATM   31  C   UNL     1     -10.652   8.119  68.820  1.00  0.00    -0.121 A  
HETATM   32  N   UNL     1     -11.191   7.964  70.071  1.00  0.00    -0.429 NA 
HETATM   33  H   UNL     1     -11.195   7.087  70.593  1.00  0.00     0.000 HD 
ENDBRANCH  19  20
ENDBRANCH  18  19
ENDBRANCH  15  18
ENDBRANCH  14  15
ENDBRANCH  12  14
ENDBRANCH  11  12
ENDBRANCH  10  11
ENDBRANCH   9  10
ENDBRANCH   8   9
ENDBRANCH   2   3
TORSDOF 10
ENDMDL
MODEL      154
REMARK 921   NORMALIZED FREE ENERGY PREDICTED BY IDOCK:   -5.19 KCAL/MOL
REMARK 922        TOTAL FREE ENERGY PREDICTED BY IDOCK:  -10.06 KCAL/MOL
REMARK 923 INTER-LIGAND FREE ENERGY PREDICTED BY IDOCK:   -8.90 KCAL/MOL
REMARK 924 INTRA-LIGAND FREE ENERGY PREDICTED BY IDOCK:   -1.17 KCAL/MOL
REMARK 927      BINDING AFFINITY PREDICTED BY RF-SCORE:    0.00 PKD
ROOT
HETATM    1  C   UNL     1      -9.059   3.344  69.327  1.00  0.00    -0.134 C  
HETATM    2  O   UNL     1      -9.513   3.162  67.988  1.00  0.00    -0.200 OA 
ENDROOT
BRANCH   2   3
HETATM    3  C   UNL     1      -8.925   3.956  67.036  1.00  0.00    -0.138 A  
HETATM    4  C   UNL     1      -7.697   3.606  66.451  1.00  0.00    -0.085 A  
HETATM    5  C   UNL     1      -7.130   4.392  65.448  1.00  0.00    -0.067 A  
HETATM    6  C   UNL     1      -7.769   5.553  65.033  1.00  0.00    -0.093 A  
HETATM    7  C   UNL     1      -8.962   5.938  65.641  1.00  0.00    -0.099 A  
HETATM    8  C   UNL     1      -9.549   5.159  66.650  1.00  0.00    -0.154 A  
BRANCH   8   9
HETATM    9  O   UNL     1     -10.719   5.713  67.112  1.00  0.00    -0.264 OA 
BRANCH   9  10
HETATM   10  C   UNL     1     -10.612   6.705  68.126  1.00  0.00    -0.241 C  
BRANCH  10  11
HETATM   11  C   UNL     1     -11.296   6.222  69.416  1.00  0.00    -0.378 C  
BRANCH  11  12
HETATM   12  N   UNL     1     -11.870   7.310  70.229  1.00  0.00    -0.537 NA 
HETATM   13  H   UNL     1     -12.870   7.172  70.376  1.00  0.00     0.000 HD 
BRANCH  12  14
HETATM   14  C   UNL     1     -11.160   7.483  71.515  1.00  0.00    -0.236 C  
BRANCH  14  15
HETATM   15  C   UNL     1     -10.666   8.932  71.724  1.00  0.00    -0.362 C  
HETATM   16  O   UNL     1      -9.468   8.917  72.506  1.00  0.00    -0.287 OA 
HETATM   17  H   UNL     1      -9.164   9.809  72.634  1.00  0.00     0.000 HD 
BRANCH  15  18
HETATM   18  C   UNL     1     -10.424   9.610  70.369  1.00  0.00    -0.293 C  
BRANCH  18  19
HETATM   19  O   UNL     1     -11.574  10.341  69.954  1.00  0.00    -0.254 OA 
BRANCH  19  20
HETATM   20  C   UNL     1     -11.346  11.352  69.051  1.00  0.00    -0.280 A  
HETATM   21  C   UNL     1     -10.687  11.187  67.819  1.00  0.00    -0.267 A  
HETATM   22  C   UNL     1     -10.517  12.252  66.939  1.00  0.00    -0.240 A  
HETATM   23  C   UNL     1     -10.995  13.524  67.247  1.00  0.00    -0.293 A  
HETATM   24  C   UNL     1     -11.642  13.686  68.479  1.00  0.00    -0.335 A  
HETATM   25  C   UNL     1     -11.825  12.642  69.388  1.00  0.00    -0.356 A  
HETATM   26  C   UNL     1     -12.501  13.189  70.529  1.00  0.00    -0.322 A  
HETATM   27  C   UNL     1     -12.937  12.654  71.761  1.00  0.00    -0.417 A  
HETATM   28  C   UNL     1     -13.590  13.479  72.683  1.00  0.00    -0.572 A  
HETATM   29  C   UNL     1     -13.811  14.823  72.392  1.00  0.00    -0.578 A  
HETATM   30  C   UNL     1     -13.386  15.381  71.183  1.00  0.00    -0.580 A  
HETATM   31  C   UNL     1     -12.730  14.537  70.276  1.00  0.00    -0.272 A  
HETATM   32  N   UNL     1     -12.204  14.810  69.039  1.00  0.00    -0.564 NA 
HETATM   33  H   UNL     1     -12.226  15.727  68.592  1.00  0.00     0.000 HD 
ENDBRANCH  19  20
ENDBRANCH  18  19
ENDBRANCH  15  18
ENDBRANCH  14  15
ENDBRANCH  12  14
ENDBRANCH  11  12
ENDBRANCH  10  11
ENDBRANCH   9  10
ENDBRANCH   8   9
ENDBRANCH   2   3
TORSDOF 10
ENDMDL
MODEL      155
REMARK 921   NORMALIZED FREE ENERGY PREDICTED BY IDOCK:   -5.18 KCAL/MOL
REMARK 922        TOTAL FREE ENERGY PREDICTED BY IDOCK:  -10.06 KCAL/MOL
REMARK 923 INTER-LIGAND FREE ENERGY PREDICTED BY IDOCK:   -9.27 KCAL/MOL
REMARK 924 INTRA-LIGAND FREE ENERGY PREDICTED BY IDOCK:   -0.78 KCAL/MOL
REMARK 927      BINDING AFFINITY PREDICTED BY RF-SCORE:    0.00 PKD
ROOT
HETATM    1  C   UNL     1      -5.490  19.032  70.424  1.00  0.00    -0.234 C  
HETATM    2  O   UNL     1      -6.708  19.613  69.966  1.00  0.00    -0.266 OA 
ENDROOT
BRANCH   2   3
HETATM    3  C   UNL     1      -6.828  19.777  68.609  1.00  0.00    -0.322 A  
HETATM    4  C   UNL     1      -5.837  20.436  67.863  1.00  0.00    -0.263 A  
HETATM    5  C   UNL     1      -5.941  20.555  66.478  1.00  0.00    -0.230 A  
HETATM    6  C   UNL     1      -7.051  20.041  65.820  1.00  0.00    -0.324 A  
HETATM    7  C   UNL     1      -8.065  19.430  66.554  1.00  0.00    -0.315 A  
HETATM    8  C   UNL     1      -7.977  19.299  67.948  1.00  0.00    -0.292 A  
BRANCH   8   9
HETATM    9  O   UNL     1      -9.078  18.667  68.476  1.00  0.00    -0.316 OA 
BRANCH   9  10
HETATM   10  C   UNL     1      -9.108  17.247  68.407  1.00  0.00    -0.265 C  
BRANCH  10  11
HETATM   11  C   UNL     1     -10.323  16.780  67.588  1.00  0.00    -0.309 C  
BRANCH  11  12
HETATM   12  N   UNL     1     -10.295  15.346  67.247  1.00  0.00    -0.266 NA 
HETATM   13  H   UNL     1     -10.592  14.774  68.037  1.00  0.00     0.000 HD 
BRANCH  12  14
HETATM   14  C   UNL     1     -11.092  15.041  66.038  1.00  0.00    -0.329 C  
BRANCH  14  15
HETATM   15  C   UNL     1     -12.272  14.090  66.336  1.00  0.00    -0.460 C  
HETATM   16  O   UNL     1     -13.157  14.065  65.213  1.00  0.00    -0.782 OA 
HETATM   17  H   UNL     1     -13.883  13.480  65.396  1.00  0.00     0.000 HD 
BRANCH  15  18
HETATM   18  C   UNL     1     -11.752  12.682  66.652  1.00  0.00    -0.398 C  
BRANCH  18  19
HETATM   19  O   UNL     1     -10.845  12.708  67.749  1.00  0.00    -0.212 OA 
BRANCH  19  20
HETATM   20  C   UNL     1     -11.264  12.062  68.888  1.00  0.00    -0.261 A  
HETATM   21  C   UNL     1     -11.940  12.684  69.953  1.00  0.00    -0.365 A  
HETATM   22  C   UNL     1     -12.362  11.962  71.065  1.00  0.00    -0.362 A  
HETATM   23  C   UNL     1     -12.131  10.591  71.163  1.00  0.00    -0.473 A  
HETATM   24  C   UNL     1     -11.449   9.978  70.104  1.00  0.00    -0.277 A  
HETATM   25  C   UNL     1     -11.007  10.673  68.977  1.00  0.00    -0.295 A  
HETATM   26  C   UNL     1     -10.341   9.725  68.130  1.00  0.00    -0.241 A  
HETATM   27  C   UNL     1      -9.677   9.815  66.887  1.00  0.00    -0.243 A  
HETATM   28  C   UNL     1      -9.126   8.666  66.310  1.00  0.00    -0.233 A  
HETATM   29  C   UNL     1      -9.227   7.436  66.954  1.00  0.00    -0.183 A  
HETATM   30  C   UNL     1      -9.875   7.318  68.188  1.00  0.00    -0.165 A  
HETATM   31  C   UNL     1     -10.417   8.482  68.750  1.00  0.00    -0.184 A  
HETATM   32  N   UNL     1     -11.086   8.661  69.933  1.00  0.00    -0.410 NA 
HETATM   33  H   UNL     1     -11.288   7.916  70.601  1.00  0.00     0.000 HD 
ENDBRANCH  19  20
ENDBRANCH  18  19
ENDBRANCH  15  18
ENDBRANCH  14  15
ENDBRANCH  12  14
ENDBRANCH  11  12
ENDBRANCH  10  11
ENDBRANCH   9  10
ENDBRANCH   8   9
ENDBRANCH   2   3
TORSDOF 10
ENDMDL
MODEL      156
REMARK 921   NORMALIZED FREE ENERGY PREDICTED BY IDOCK:   -5.15 KCAL/MOL
REMARK 922        TOTAL FREE ENERGY PREDICTED BY IDOCK:  -10.01 KCAL/MOL
REMARK 923 INTER-LIGAND FREE ENERGY PREDICTED BY IDOCK:   -8.92 KCAL/MOL
REMARK 924 INTRA-LIGAND FREE ENERGY PREDICTED BY IDOCK:   -1.09 KCAL/MOL
REMARK 927      BINDING AFFINITY PREDICTED BY RF-SCORE:    0.00 PKD
ROOT
HETATM    1  C   UNL     1      -5.127  21.204  70.244  1.00  0.00    -0.228 C  
HETATM    2  O   UNL     1      -6.213  20.542  69.600  1.00  0.00    -0.318 OA 
ENDROOT
BRANCH   2   3
HETATM    3  C   UNL     1      -6.165  19.170  69.588  1.00  0.00    -0.265 A  
HETATM    4  C   UNL     1      -5.210  18.467  70.342  1.00  0.00    -0.241 A  
HETATM    5  C   UNL     1      -5.199  17.073  70.365  1.00  0.00    -0.227 A  
HETATM    6  C   UNL     1      -6.124  16.360  69.614  1.00  0.00    -0.205 A  
HETATM    7  C   UNL     1      -7.044  17.046  68.822  1.00  0.00    -0.219 A  
HETATM    8  C   UNL     1      -7.072  18.448  68.788  1.00  0.00    -0.283 A  
BRANCH   8   9
HETATM    9  O   UNL     1      -8.052  18.922  67.950  1.00  0.00    -0.262 OA 
BRANCH   9  10
HETATM   10  C   UNL     1      -9.372  18.430  68.148  1.00  0.00    -0.317 C  
BRANCH  10  11
HETATM   11  C   UNL     1     -10.008  18.056  66.798  1.00  0.00    -0.346 C  
BRANCH  11  12
HETATM   12  N   UNL     1     -10.692  16.750  66.804  1.00  0.00    -0.187 NA 
HETATM   13  H   UNL     1     -10.191  16.069  66.235  1.00  0.00     0.000 HD 
BRANCH  12  14
HETATM   14  C   UNL     1     -10.917  16.240  68.174  1.00  0.00    -0.343 C  
BRANCH  14  15
HETATM   15  C   UNL     1     -10.690  14.716  68.278  1.00  0.00    -0.239 C  
HETATM   16  O   UNL     1      -9.528  14.461  69.074  1.00  0.00    -0.353 OA 
HETATM   17  H   UNL     1      -9.389  13.523  69.138  1.00  0.00     0.000 HD 
BRANCH  15  18
HETATM   18  C   UNL     1     -11.925  14.035  68.883  1.00  0.00    -0.352 C  
BRANCH  18  19
HETATM   19  O   UNL     1     -12.285  12.878  68.137  1.00  0.00    -0.211 OA 
BRANCH  19  20
HETATM   20  C   UNL     1     -11.603  11.727  68.452  1.00  0.00    -0.318 A  
HETATM   21  C   UNL     1     -11.540  11.165  69.740  1.00  0.00    -0.409 A  
HETATM   22  C   UNL     1     -10.855   9.978  69.982  1.00  0.00    -0.352 A  
HETATM   23  C   UNL     1     -10.204   9.301  68.953  1.00  0.00    -0.217 A  
HETATM   24  C   UNL     1     -10.261   9.868  67.673  1.00  0.00    -0.208 A  
HETATM   25  C   UNL     1     -10.934  11.059  67.397  1.00  0.00    -0.349 A  
HETATM   26  C   UNL     1     -10.756  11.331  65.999  1.00  0.00    -0.301 A  
HETATM   27  C   UNL     1     -11.169  12.374  65.141  1.00  0.00    -0.356 A  
HETATM   28  C   UNL     1     -10.823  12.334  63.786  1.00  0.00    -0.495 A  
HETATM   29  C   UNL     1     -10.076  11.274  63.280  1.00  0.00    -0.428 A  
HETATM   30  C   UNL     1      -9.650  10.230  64.107  1.00  0.00    -0.376 A  
HETATM   31  C   UNL     1     -10.003  10.292  65.462  1.00  0.00    -0.296 A  
HETATM   32  N   UNL     1      -9.718   9.427  66.488  1.00  0.00    -0.216 NA 
HETATM   33  H   UNL     1      -9.175   8.570  66.386  1.00  0.00     0.000 HD 
ENDBRANCH  19  20
ENDBRANCH  18  19
ENDBRANCH  15  18
ENDBRANCH  14  15
ENDBRANCH  12  14
ENDBRANCH  11  12
ENDBRANCH  10  11
ENDBRANCH   9  10
ENDBRANCH   8   9
ENDBRANCH   2   3
TORSDOF 10
ENDMDL
MODEL      157
REMARK 921   NORMALIZED FREE ENERGY PREDICTED BY IDOCK:   -5.14 KCAL/MOL
REMARK 922        TOTAL FREE ENERGY PREDICTED BY IDOCK:   -9.99 KCAL/MOL
REMARK 923 INTER-LIGAND FREE ENERGY PREDICTED BY IDOCK:   -8.77 KCAL/MOL
REMARK 924 INTRA-LIGAND FREE ENERGY PREDICTED BY IDOCK:   -1.22 KCAL/MOL
REMARK 927      BINDING AFFINITY PREDICTED BY RF-SCORE:    0.00 PKD
ROOT
HETATM    1  C   UNL     1     -12.983  10.989  71.738  1.00  0.00    -0.438 C  
HETATM    2  O   UNL     1     -11.961  10.692  70.789  1.00  0.00    -0.320 OA 
ENDROOT
BRANCH   2   3
HETATM    3  C   UNL     1     -11.403   9.442  70.870  1.00  0.00    -0.319 A  
HETATM    4  C   UNL     1     -11.514   8.667  72.037  1.00  0.00    -0.437 A  
HETATM    5  C   UNL     1     -10.989   7.377  72.095  1.00  0.00    -0.284 A  
HETATM    6  C   UNL     1     -10.321   6.851  70.997  1.00  0.00    -0.224 A  
HETATM    7  C   UNL     1     -10.159   7.628  69.851  1.00  0.00    -0.198 A  
HETATM    8  C   UNL     1     -10.683   8.927  69.773  1.00  0.00    -0.225 A  
BRANCH   8   9
HETATM    9  O   UNL     1     -10.417   9.517  68.561  1.00  0.00    -0.204 OA 
BRANCH   9  10
HETATM   10  C   UNL     1     -10.616   8.727  67.396  1.00  0.00    -0.233 C  
BRANCH  10  11
HETATM   11  C   UNL     1      -9.881   9.353  66.198  1.00  0.00    -0.285 C  
BRANCH  11  12
HETATM   12  N   UNL     1     -10.432  10.652  65.773  1.00  0.00    -0.205 NA 
HETATM   13  H   UNL     1     -10.566  11.274  66.571  1.00  0.00     0.000 HD 
BRANCH  12  14
HETATM   14  C   UNL     1      -9.609  11.297  64.727  1.00  0.00    -0.235 C  
BRANCH  14  15
HETATM   15  C   UNL     1     -10.236  12.611  64.212  1.00  0.00    -0.332 C  
HETATM   16  O   UNL     1     -11.155  12.317  63.155  1.00  0.00    -0.669 OA 
HETATM   17  H   UNL     1     -11.541  13.125  62.838  1.00  0.00     0.000 HD 
BRANCH  15  18
HETATM   18  C   UNL     1     -10.942  13.347  65.357  1.00  0.00    -0.286 C  
BRANCH  18  19
HETATM   19  O   UNL     1     -10.152  13.320  66.542  1.00  0.00    -0.262 OA 
BRANCH  19  20
HETATM   20  C   UNL     1     -10.754  13.817  67.674  1.00  0.00    -0.249 A  
HETATM   21  C   UNL     1     -11.773  13.160  68.389  1.00  0.00    -0.386 A  
HETATM   22  C   UNL     1     -12.317  13.708  69.545  1.00  0.00    -0.232 A  
HETATM   23  C   UNL     1     -11.872  14.933  70.040  1.00  0.00    -0.353 A  
HETATM   24  C   UNL     1     -10.864  15.588  69.320  1.00  0.00    -0.252 A  
HETATM   25  C   UNL     1     -10.300  15.069  68.154  1.00  0.00    -0.239 A  
HETATM   26  C   UNL     1      -9.328  16.020  67.695  1.00  0.00    -0.214 A  
HETATM   27  C   UNL     1      -8.459  16.078  66.584  1.00  0.00    -0.323 A  
HETATM   28  C   UNL     1      -7.606  17.176  66.427  1.00  0.00    -0.347 A  
HETATM   29  C   UNL     1      -7.609  18.210  67.360  1.00  0.00    -0.220 A  
HETATM   30  C   UNL     1      -8.462  18.181  68.468  1.00  0.00    -0.312 A  
HETATM   31  C   UNL     1      -9.311  17.074  68.603  1.00  0.00    -0.270 A  
HETATM   32  N   UNL     1     -10.243  16.790  69.568  1.00  0.00    -0.217 NA 
HETATM   33  H   UNL     1     -10.449  17.392  70.366  1.00  0.00     0.000 HD 
ENDBRANCH  19  20
ENDBRANCH  18  19
ENDBRANCH  15  18
ENDBRANCH  14  15
ENDBRANCH  12  14
ENDBRANCH  11  12
ENDBRANCH  10  11
ENDBRANCH   9  10
ENDBRANCH   8   9
ENDBRANCH   2   3
TORSDOF 10
ENDMDL
MODEL      158
REMARK 921   NORMALIZED FREE ENERGY PREDICTED BY IDOCK:   -5.14 KCAL/MOL
REMARK 922        TOTAL FREE ENERGY PREDICTED BY IDOCK:   -9.99 KCAL/MOL
REMARK 923 INTER-LIGAND FREE ENERGY PREDICTED BY IDOCK:   -8.84 KCAL/MOL
REMARK 924 INTRA-LIGAND FREE ENERGY PREDICTED BY IDOCK:   -1.16 KCAL/MOL
REMARK 927      BINDING AFFINITY PREDICTED BY RF-SCORE:    0.00 PKD
ROOT
HETATM    1  C   UNL     1     -11.981  13.315  67.823  1.00  0.00    -0.314 C  
HETATM    2  O   UNL     1     -11.871  12.031  67.212  1.00  0.00    -0.556 OA 
ENDROOT
BRANCH   2   3
HETATM    3  C   UNL     1     -11.465  12.016  65.902  1.00  0.00    -0.333 A  
HETATM    4  C   UNL     1     -12.100  12.810  64.932  1.00  0.00    -0.490 A  
HETATM    5  C   UNL     1     -11.649  12.828  63.612  1.00  0.00    -0.572 A  
HETATM    6  C   UNL     1     -10.575  12.032  63.236  1.00  0.00    -0.399 A  
HETATM    7  C   UNL     1      -9.969  11.202  64.177  1.00  0.00    -0.369 A  
HETATM    8  C   UNL     1     -10.407  11.173  65.510  1.00  0.00    -0.268 A  
BRANCH   8   9
HETATM    9  O   UNL     1      -9.676  10.292  66.271  1.00  0.00    -0.189 OA 
BRANCH   9  10
HETATM   10  C   UNL     1      -8.289  10.564  66.427  1.00  0.00    -0.145 C  
BRANCH  10  11
HETATM   11  C   UNL     1      -8.088  11.831  67.274  1.00  0.00    -0.164 C  
BRANCH  11  12
HETATM   12  N   UNL     1      -8.289  11.620  68.720  1.00  0.00    -0.325 NA 
HETATM   13  H   UNL     1      -8.919  10.837  68.894  1.00  0.00     0.000 HD 
BRANCH  12  14
HETATM   14  C   UNL     1      -7.011  11.449  69.446  1.00  0.00    -0.092 C  
BRANCH  14  15
HETATM   15  C   UNL     1      -6.610   9.965  69.589  1.00  0.00    -0.056 C  
HETATM   16  O   UNL     1      -5.229   9.879  69.952  1.00  0.00    -0.036 OA 
HETATM   17  H   UNL     1      -4.982   8.966  70.041  1.00  0.00     0.000 HD 
BRANCH  15  18
HETATM   18  C   UNL     1      -7.493   9.275  70.638  1.00  0.00    -0.136 C  
BRANCH  18  19
HETATM   19  O   UNL     1      -8.429   8.400  70.018  1.00  0.00    -0.120 OA 
BRANCH  19  20
HETATM   20  C   UNL     1      -9.076   7.525  70.857  1.00  0.00    -0.153 A  
HETATM   21  C   UNL     1      -8.572   6.269  71.243  1.00  0.00    -0.124 A  
HETATM   22  C   UNL     1      -9.268   5.445  72.121  1.00  0.00    -0.157 A  
HETATM   23  C   UNL     1     -10.496   5.836  72.654  1.00  0.00    -0.243 A  
HETATM   24  C   UNL     1     -10.999   7.083  72.261  1.00  0.00    -0.245 A  
HETATM   25  C   UNL     1     -10.329   7.931  71.377  1.00  0.00    -0.234 A  
HETATM   26  C   UNL     1     -11.154   9.093  71.200  1.00  0.00    -0.393 A  
HETATM   27  C   UNL     1     -11.038  10.271  70.430  1.00  0.00    -0.391 A  
HETATM   28  C   UNL     1     -12.046  11.239  70.489  1.00  0.00    -0.481 A  
HETATM   29  C   UNL     1     -13.161  11.048  71.302  1.00  0.00    -0.381 A  
HETATM   30  C   UNL     1     -13.304   9.889  72.071  1.00  0.00    -0.532 A  
HETATM   31  C   UNL     1     -12.285   8.930  71.994  1.00  0.00    -0.377 A  
HETATM   32  N   UNL     1     -12.167   7.715  72.619  1.00  0.00    -0.566 NA 
HETATM   33  H   UNL     1     -12.856   7.330  73.266  1.00  0.00     0.000 HD 
ENDBRANCH  19  20
ENDBRANCH  18  19
ENDBRANCH  15  18
ENDBRANCH  14  15
ENDBRANCH  12  14
ENDBRANCH  11  12
ENDBRANCH  10  11
ENDBRANCH   9  10
ENDBRANCH   8   9
ENDBRANCH   2   3
TORSDOF 10
ENDMDL
MODEL      159
REMARK 921   NORMALIZED FREE ENERGY PREDICTED BY IDOCK:   -5.11 KCAL/MOL
REMARK 922        TOTAL FREE ENERGY PREDICTED BY IDOCK:   -9.94 KCAL/MOL
REMARK 923 INTER-LIGAND FREE ENERGY PREDICTED BY IDOCK:   -9.03 KCAL/MOL
REMARK 924 INTRA-LIGAND FREE ENERGY PREDICTED BY IDOCK:   -0.91 KCAL/MOL
REMARK 927      BINDING AFFINITY PREDICTED BY RF-SCORE:    0.00 PKD
ROOT
HETATM    1  C   UNL     1      -7.818   4.975  69.534  1.00  0.00    -0.068 C  
HETATM    2  O   UNL     1      -9.239   4.881  69.454  1.00  0.00    -0.097 OA 
ENDROOT
BRANCH   2   3
HETATM    3  C   UNL     1      -9.917   4.936  70.645  1.00  0.00    -0.235 A  
HETATM    4  C   UNL     1      -9.639   4.034  71.686  1.00  0.00    -0.230 A  
HETATM    5  C   UNL     1     -10.297   4.128  72.912  1.00  0.00    -0.241 A  
HETATM    6  C   UNL     1     -11.262   5.106  73.107  1.00  0.00    -0.398 A  
HETATM    7  C   UNL     1     -11.585   5.974  72.065  1.00  0.00    -0.333 A  
HETATM    8  C   UNL     1     -10.932   5.897  70.826  1.00  0.00    -0.273 A  
BRANCH   8   9
HETATM    9  O   UNL     1     -11.395   6.841  69.941  1.00  0.00    -0.315 OA 
BRANCH   9  10
HETATM   10  C   UNL     1     -10.708   8.086  69.900  1.00  0.00    -0.242 C  
BRANCH  10  11
HETATM   11  C   UNL     1      -9.826   8.164  68.642  1.00  0.00    -0.183 C  
BRANCH  11  12
HETATM   12  N   UNL     1      -9.600   9.538  68.158  1.00  0.00    -0.137 NA 
HETATM   13  H   UNL     1      -8.678   9.632  67.732  1.00  0.00     0.000 HD 
BRANCH  12  14
HETATM   14  C   UNL     1     -10.663   9.990  67.235  1.00  0.00    -0.244 C  
BRANCH  14  15
HETATM   15  C   UNL     1     -10.914  11.511  67.327  1.00  0.00    -0.271 C  
HETATM   16  O   UNL     1     -11.936  11.881  66.396  1.00  0.00    -0.572 OA 
HETATM   17  H   UNL     1     -12.090  12.817  66.453  1.00  0.00     0.000 HD 
BRANCH  15  18
HETATM   18  C   UNL     1     -11.314  11.898  68.756  1.00  0.00    -0.274 C  
BRANCH  18  19
HETATM   19  O   UNL     1     -12.272  12.952  68.749  1.00  0.00    -0.204 OA 
BRANCH  19  20
HETATM   20  C   UNL     1     -12.098  13.925  69.704  1.00  0.00    -0.349 A  
HETATM   21  C   UNL     1     -12.381  13.760  71.072  1.00  0.00    -0.452 A  
HETATM   22  C   UNL     1     -12.152  14.780  71.990  1.00  0.00    -0.403 A  
HETATM   23  C   UNL     1     -11.631  16.008  71.585  1.00  0.00    -0.538 A  
HETATM   24  C   UNL     1     -11.359  16.172  70.221  1.00  0.00    -0.353 A  
HETATM   25  C   UNL     1     -11.582  15.172  69.273  1.00  0.00    -0.344 A  
HETATM   26  C   UNL     1     -11.208  15.708  67.996  1.00  0.00    -0.339 A  
HETATM   27  C   UNL     1     -11.221  15.204  66.677  1.00  0.00    -0.274 A  
HETATM   28  C   UNL     1     -10.771  16.007  65.623  1.00  0.00    -0.341 A  
HETATM   29  C   UNL     1     -10.309  17.298  65.868  1.00  0.00    -0.287 A  
HETATM   30  C   UNL     1     -10.288  17.824  67.164  1.00  0.00    -0.354 A  
HETATM   31  C   UNL     1     -10.749  17.005  68.203  1.00  0.00    -0.374 A  
HETATM   32  N   UNL     1     -10.851  17.259  69.547  1.00  0.00    -0.303 NA 
HETATM   33  H   UNL     1     -10.585  18.139  69.990  1.00  0.00     0.000 HD 
ENDBRANCH  19  20
ENDBRANCH  18  19
ENDBRANCH  15  18
ENDBRANCH  14  15
ENDBRANCH  12  14
ENDBRANCH  11  12
ENDBRANCH  10  11
ENDBRANCH   9  10
ENDBRANCH   8   9
ENDBRANCH   2   3
TORSDOF 10
ENDMDL
MODEL      160
REMARK 921   NORMALIZED FREE ENERGY PREDICTED BY IDOCK:   -5.08 KCAL/MOL
REMARK 922        TOTAL FREE ENERGY PREDICTED BY IDOCK:   -9.89 KCAL/MOL
REMARK 923 INTER-LIGAND FREE ENERGY PREDICTED BY IDOCK:   -8.35 KCAL/MOL
REMARK 924 INTRA-LIGAND FREE ENERGY PREDICTED BY IDOCK:   -1.54 KCAL/MOL
REMARK 927      BINDING AFFINITY PREDICTED BY RF-SCORE:    0.00 PKD
ROOT
HETATM    1  C   UNL     1     -10.869   7.202  73.063  1.00  0.00    -0.328 C  
HETATM    2  O   UNL     1     -11.215   7.411  71.695  1.00  0.00    -0.241 OA 
ENDROOT
BRANCH   2   3
HETATM    3  C   UNL     1     -11.552   8.693  71.344  1.00  0.00    -0.293 A  
HETATM    4  C   UNL     1     -12.664   9.337  71.911  1.00  0.00    -0.474 A  
HETATM    5  C   UNL     1     -12.971  10.659  71.588  1.00  0.00    -0.582 A  
HETATM    6  C   UNL     1     -12.187  11.348  70.672  1.00  0.00    -0.484 A  
HETATM    7  C   UNL     1     -11.111  10.704  70.063  1.00  0.00    -0.359 A  
HETATM    8  C   UNL     1     -10.786   9.376  70.378  1.00  0.00    -0.263 A  
BRANCH   8   9
HETATM    9  O   UNL     1      -9.693   8.933  69.671  1.00  0.00    -0.168 OA 
BRANCH   9  10
HETATM   10  C   UNL     1      -9.932   8.012  68.614  1.00  0.00    -0.189 C  
BRANCH  10  11
HETATM   11  C   UNL     1      -8.728   7.070  68.447  1.00  0.00    -0.125 C  
BRANCH  11  12
HETATM   12  N   UNL     1      -8.227   6.984  67.063  1.00  0.00    -0.116 NA 
HETATM   13  H   UNL     1      -8.124   6.013  66.769  1.00  0.00     0.000 HD 
BRANCH  12  14
HETATM   14  C   UNL     1      -9.068   7.743  66.113  1.00  0.00    -0.153 C  
BRANCH  14  15
HETATM   15  C   UNL     1      -8.230   8.616  65.153  1.00  0.00    -0.151 C  
HETATM   16  O   UNL     1      -8.963   8.830  63.943  1.00  0.00    -0.419 OA 
HETATM   17  H   UNL     1      -8.447   9.367  63.352  1.00  0.00     0.000 HD 
BRANCH  15  18
HETATM   18  C   UNL     1      -7.877   9.951  65.820  1.00  0.00    -0.121 C  
BRANCH  18  19
HETATM   19  O   UNL     1      -8.982  10.456  66.563  1.00  0.00    -0.143 OA 
BRANCH  19  20
HETATM   20  C   UNL     1      -8.848  11.740  67.035  1.00  0.00    -0.182 A  
HETATM   21  C   UNL     1      -7.984  12.120  68.079  1.00  0.00    -0.152 A  
HETATM   22  C   UNL     1      -7.878  13.446  68.487  1.00  0.00    -0.115 A  
HETATM   23  C   UNL     1      -8.625  14.449  67.874  1.00  0.00    -0.165 A  
HETATM   24  C   UNL     1      -9.491  14.066  66.842  1.00  0.00    -0.265 A  
HETATM   25  C   UNL     1      -9.627  12.745  66.411  1.00  0.00    -0.254 A  
HETATM   26  C   UNL     1     -10.609  12.740  65.365  1.00  0.00    -0.309 A  
HETATM   27  C   UNL     1     -11.184  11.731  64.562  1.00  0.00    -0.368 A  
HETATM   28  C   UNL     1     -12.139  12.071  63.599  1.00  0.00    -0.627 A  
HETATM   29  C   UNL     1     -12.525  13.398  63.427  1.00  0.00    -0.229 A  
HETATM   30  C   UNL     1     -11.976  14.418  64.210  1.00  0.00    -0.433 A  
HETATM   31  C   UNL     1     -11.024  14.054  65.172  1.00  0.00    -0.353 A  
HETATM   32  N   UNL     1     -10.339  14.830  66.072  1.00  0.00    -0.290 NA 
HETATM   33  H   UNL     1     -10.443  15.841  66.160  1.00  0.00     0.000 HD 
ENDBRANCH  19  20
ENDBRANCH  18  19
ENDBRANCH  15  18
ENDBRANCH  14  15
ENDBRANCH  12  14
ENDBRANCH  11  12
ENDBRANCH  10  11
ENDBRANCH   9  10
ENDBRANCH   8   9
ENDBRANCH   2   3
TORSDOF 10
ENDMDL
MODEL      161
REMARK 921   NORMALIZED FREE ENERGY PREDICTED BY IDOCK:   -5.06 KCAL/MOL
REMARK 922        TOTAL FREE ENERGY PREDICTED BY IDOCK:   -9.87 KCAL/MOL
REMARK 923 INTER-LIGAND FREE ENERGY PREDICTED BY IDOCK:   -7.79 KCAL/MOL
REMARK 924 INTRA-LIGAND FREE ENERGY PREDICTED BY IDOCK:   -2.08 KCAL/MOL
REMARK 927      BINDING AFFINITY PREDICTED BY RF-SCORE:    0.00 PKD
ROOT
HETATM    1  C   UNL     1     -12.727   8.344  72.265  1.00  0.00    -0.329 C  
HETATM    2  O   UNL     1     -12.832   7.124  71.534  1.00  0.00    -0.369 OA 
ENDROOT
BRANCH   2   3
HETATM    3  C   UNL     1     -11.697   6.357  71.468  1.00  0.00    -0.313 A  
HETATM    4  C   UNL     1     -11.040   5.925  72.632  1.00  0.00    -0.322 A  
HETATM    5  C   UNL     1      -9.915   5.104  72.558  1.00  0.00    -0.214 A  
HETATM    6  C   UNL     1      -9.414   4.725  71.320  1.00  0.00    -0.216 A  
HETATM    7  C   UNL     1     -10.026   5.189  70.157  1.00  0.00    -0.324 A  
HETATM    8  C   UNL     1     -11.160   6.013  70.211  1.00  0.00    -0.345 A  
BRANCH   8   9
HETATM    9  O   UNL     1     -11.607   6.356  68.957  1.00  0.00    -0.276 OA 
BRANCH   9  10
HETATM   10  C   UNL     1     -10.794   5.982  67.853  1.00  0.00    -0.290 C  
BRANCH  10  11
HETATM   11  C   UNL     1     -10.327   7.233  67.090  1.00  0.00    -0.297 C  
BRANCH  11  12
HETATM   12  N   UNL     1      -9.614   6.934  65.834  1.00  0.00    -0.384 NA 
HETATM   13  H   UNL     1     -10.173   7.195  65.022  1.00  0.00     0.000 HD 
BRANCH  12  14
HETATM   14  C   UNL     1      -8.276   7.561  65.784  1.00  0.00    -0.137 C  
BRANCH  14  15
HETATM   15  C   UNL     1      -8.174   8.643  64.687  1.00  0.00    -0.165 C  
HETATM   16  O   UNL     1      -8.539   8.076  63.426  1.00  0.00    -0.400 OA 
HETATM   17  H   UNL     1      -8.476   8.743  62.750  1.00  0.00     0.000 HD 
BRANCH  15  18
HETATM   18  C   UNL     1      -9.077   9.835  65.031  1.00  0.00    -0.231 C  
BRANCH  18  19
HETATM   19  O   UNL     1      -8.716  10.401  66.287  1.00  0.00    -0.146 OA 
BRANCH  19  20
HETATM   20  C   UNL     1      -9.752  10.914  67.031  1.00  0.00    -0.176 A  
HETATM   21  C   UNL     1     -10.726  11.801  66.536  1.00  0.00    -0.304 A  
HETATM   22  C   UNL     1     -11.766  12.259  67.340  1.00  0.00    -0.405 A  
HETATM   23  C   UNL     1     -11.881  11.853  68.668  1.00  0.00    -0.365 A  
HETATM   24  C   UNL     1     -10.904  10.978  69.159  1.00  0.00    -0.237 A  
HETATM   25  C   UNL     1      -9.845  10.504  68.383  1.00  0.00    -0.171 A  
HETATM   26  C   UNL     1      -9.049   9.657  69.226  1.00  0.00    -0.174 A  
HETATM   27  C   UNL     1      -7.862   8.918  69.033  1.00  0.00    -0.091 A  
HETATM   28  C   UNL     1      -7.333   8.168  70.090  1.00  0.00    -0.060 A  
HETATM   29  C   UNL     1      -7.971   8.147  71.328  1.00  0.00    -0.107 A  
HETATM   30  C   UNL     1      -9.145   8.874  71.548  1.00  0.00    -0.299 A  
HETATM   31  C   UNL     1      -9.655   9.621  70.478  1.00  0.00    -0.199 A  
HETATM   32  N   UNL     1     -10.766  10.423  70.411  1.00  0.00    -0.441 NA 
HETATM   33  H   UNL     1     -11.406  10.587  71.188  1.00  0.00     0.000 HD 
ENDBRANCH  19  20
ENDBRANCH  18  19
ENDBRANCH  15  18
ENDBRANCH  14  15
ENDBRANCH  12  14
ENDBRANCH  11  12
ENDBRANCH  10  11
ENDBRANCH   9  10
ENDBRANCH   8   9
ENDBRANCH   2   3
TORSDOF 10
ENDMDL
MODEL      162
REMARK 921   NORMALIZED FREE ENERGY PREDICTED BY IDOCK:   -5.06 KCAL/MOL
REMARK 922        TOTAL FREE ENERGY PREDICTED BY IDOCK:   -9.87 KCAL/MOL
REMARK 923 INTER-LIGAND FREE ENERGY PREDICTED BY IDOCK:   -8.71 KCAL/MOL
REMARK 924 INTRA-LIGAND FREE ENERGY PREDICTED BY IDOCK:   -1.16 KCAL/MOL
REMARK 927      BINDING AFFINITY PREDICTED BY RF-SCORE:    0.00 PKD
ROOT
HETATM    1  C   UNL     1     -10.237  16.138  65.290  1.00  0.00    -0.170 C  
HETATM    2  O   UNL     1     -10.660  16.765  66.500  1.00  0.00    -0.287 OA 
ENDROOT
BRANCH   2   3
HETATM    3  C   UNL     1     -10.025  17.935  66.830  1.00  0.00    -0.339 A  
HETATM    4  C   UNL     1     -10.595  19.184  66.530  1.00  0.00    -0.523 A  
HETATM    5  C   UNL     1      -9.968  20.369  66.913  1.00  0.00    -0.549 A  
HETATM    6  C   UNL     1      -8.750  20.326  67.578  1.00  0.00    -0.401 A  
HETATM    7  C   UNL     1      -8.149  19.095  67.836  1.00  0.00    -0.323 A  
HETATM    8  C   UNL     1      -8.766  17.892  67.460  1.00  0.00    -0.243 A  
BRANCH   8   9
HETATM    9  O   UNL     1      -8.011  16.797  67.808  1.00  0.00    -0.172 OA 
BRANCH   9  10
HETATM   10  C   UNL     1      -8.353  16.128  69.016  1.00  0.00    -0.247 C  
BRANCH  10  11
HETATM   11  C   UNL     1      -7.513  14.850  69.172  1.00  0.00    -0.158 C  
BRANCH  11  12
HETATM   12  N   UNL     1      -8.163  13.641  68.633  1.00  0.00    -0.296 NA 
HETATM   13  H   UNL     1      -8.057  12.851  69.269  1.00  0.00     0.000 HD 
BRANCH  12  14
HETATM   14  C   UNL     1      -9.585  13.870  68.297  1.00  0.00    -0.218 C  
BRANCH  14  15
HETATM   15  C   UNL     1     -10.068  12.972  67.137  1.00  0.00    -0.244 C  
HETATM   16  O   UNL     1      -9.069  12.941  66.113  1.00  0.00    -0.441 OA 
HETATM   17  H   UNL     1      -9.366  12.388  65.399  1.00  0.00     0.000 HD 
BRANCH  15  18
HETATM   18  C   UNL     1     -10.366  11.557  67.649  1.00  0.00    -0.186 C  
BRANCH  18  19
HETATM   19  O   UNL     1      -9.633  11.281  68.838  1.00  0.00    -0.183 OA 
BRANCH  19  20
HETATM   20  C   UNL     1      -9.321   9.960  69.056  1.00  0.00    -0.174 A  
HETATM   21  C   UNL     1      -8.241   9.287  68.456  1.00  0.00    -0.114 A  
HETATM   22  C   UNL     1      -7.965   7.954  68.746  1.00  0.00    -0.124 A  
HETATM   23  C   UNL     1      -8.752   7.236  69.644  1.00  0.00    -0.141 A  
HETATM   24  C   UNL     1      -9.831   7.907  70.233  1.00  0.00    -0.184 A  
HETATM   25  C   UNL     1     -10.140   9.241  69.960  1.00  0.00    -0.240 A  
HETATM   26  C   UNL     1     -11.310   9.569  70.724  1.00  0.00    -0.387 A  
HETATM   27  C   UNL     1     -12.101  10.730  70.858  1.00  0.00    -0.475 A  
HETATM   28  C   UNL     1     -13.206  10.721  71.717  1.00  0.00    -0.523 A  
HETATM   29  C   UNL     1     -13.528   9.575  72.439  1.00  0.00    -0.475 A  
HETATM   30  C   UNL     1     -12.765   8.409  72.322  1.00  0.00    -0.376 A  
HETATM   31  C   UNL     1     -11.666   8.439  71.453  1.00  0.00    -0.287 A  
HETATM   32  N   UNL     1     -10.762   7.455  71.139  1.00  0.00    -0.230 NA 
HETATM   33  H   UNL     1     -10.779   6.512  71.527  1.00  0.00     0.000 HD 
ENDBRANCH  19  20
ENDBRANCH  18  19
ENDBRANCH  15  18
ENDBRANCH  14  15
ENDBRANCH  12  14
ENDBRANCH  11  12
ENDBRANCH  10  11
ENDBRANCH   9  10
ENDBRANCH   8   9
ENDBRANCH   2   3
TORSDOF 10
ENDMDL
MODEL      163
REMARK 921   NORMALIZED FREE ENERGY PREDICTED BY IDOCK:   -5.06 KCAL/MOL
REMARK 922        TOTAL FREE ENERGY PREDICTED BY IDOCK:   -9.86 KCAL/MOL
REMARK 923 INTER-LIGAND FREE ENERGY PREDICTED BY IDOCK:   -8.27 KCAL/MOL
REMARK 924 INTRA-LIGAND FREE ENERGY PREDICTED BY IDOCK:   -1.60 KCAL/MOL
REMARK 927      BINDING AFFINITY PREDICTED BY RF-SCORE:    0.00 PKD
ROOT
HETATM    1  C   UNL     1      -9.007  11.045  63.075  1.00  0.00    -0.238 C  
HETATM    2  O   UNL     1      -9.602  12.334  62.941  1.00  0.00    -0.125 OA 
ENDROOT
BRANCH   2   3
HETATM    3  C   UNL     1     -10.815  12.509  63.558  1.00  0.00    -0.397 A  
HETATM    4  C   UNL     1     -11.865  11.594  63.374  1.00  0.00    -0.317 A  
HETATM    5  C   UNL     1     -13.078  11.751  64.044  1.00  0.00     0.089 A  
HETATM    6  C   UNL     1     -13.269  12.838  64.887  1.00  0.00     0.322 A  
HETATM    7  C   UNL     1     -12.253  13.780  65.037  1.00  0.00    -0.448 A  
HETATM    8  C   UNL     1     -11.025  13.638  64.374  1.00  0.00    -0.366 A  
BRANCH   8   9
HETATM    9  O   UNL     1     -10.164  14.670  64.660  1.00  0.00    -0.298 OA 
BRANCH   9  10
HETATM   10  C   UNL     1     -10.734  15.959  64.849  1.00  0.00    -0.341 C  
BRANCH  10  11
HETATM   11  C   UNL     1      -9.803  16.831  65.708  1.00  0.00    -0.180 C  
BRANCH  11  12
HETATM   12  N   UNL     1     -10.471  17.997  66.315  1.00  0.00    -0.366 NA 
HETATM   13  H   UNL     1     -11.303  17.716  66.833  1.00  0.00     0.000 HD 
BRANCH  12  14
HETATM   14  C   UNL     1      -9.555  18.789  67.165  1.00  0.00    -0.300 C  
BRANCH  14  15
HETATM   15  C   UNL     1      -9.636  18.384  68.653  1.00  0.00    -0.340 C  
HETATM   16  O   UNL     1     -10.055  19.511  69.430  1.00  0.00    -0.579 OA 
HETATM   17  H   UNL     1     -10.105  19.262  70.346  1.00  0.00     0.000 HD 
BRANCH  15  18
HETATM   18  C   UNL     1     -10.605  17.209  68.832  1.00  0.00    -0.314 C  
BRANCH  18  19
HETATM   19  O   UNL     1     -10.200  16.376  69.913  1.00  0.00    -0.189 OA 
BRANCH  19  20
HETATM   20  C   UNL     1     -11.197  15.640  70.508  1.00  0.00    -0.362 A  
HETATM   21  C   UNL     1     -12.001  16.098  71.569  1.00  0.00    -0.490 A  
HETATM   22  C   UNL     1     -13.015  15.309  72.104  1.00  0.00    -0.452 A  
HETATM   23  C   UNL     1     -13.271  14.032  71.606  1.00  0.00    -0.442 A  
HETATM   24  C   UNL     1     -12.463  13.577  70.557  1.00  0.00    -0.302 A  
HETATM   25  C   UNL     1     -11.435  14.340  70.001  1.00  0.00    -0.280 A  
HETATM   26  C   UNL     1     -10.824  13.542  68.976  1.00  0.00    -0.227 A  
HETATM   27  C   UNL     1      -9.744  13.743  68.088  1.00  0.00    -0.227 A  
HETATM   28  C   UNL     1      -9.397  12.737  67.180  1.00  0.00    -0.216 A  
HETATM   29  C   UNL     1     -10.110  11.540  67.147  1.00  0.00    -0.223 A  
HETATM   30  C   UNL     1     -11.180  11.313  68.018  1.00  0.00    -0.351 A  
HETATM   31  C   UNL     1     -11.508  12.332  68.922  1.00  0.00    -0.304 A  
HETATM   32  N   UNL     1     -12.487  12.378  69.882  1.00  0.00    -0.003 NA 
HETATM   33  H   UNL     1     -13.146  11.623  70.071  1.00  0.00     0.000 HD 
ENDBRANCH  19  20
ENDBRANCH  18  19
ENDBRANCH  15  18
ENDBRANCH  14  15
ENDBRANCH  12  14
ENDBRANCH  11  12
ENDBRANCH  10  11
ENDBRANCH   9  10
ENDBRANCH   8   9
ENDBRANCH   2   3
TORSDOF 10
ENDMDL
MODEL      164
REMARK 921   NORMALIZED FREE ENERGY PREDICTED BY IDOCK:   -5.05 KCAL/MOL
REMARK 922        TOTAL FREE ENERGY PREDICTED BY IDOCK:   -9.84 KCAL/MOL
REMARK 923 INTER-LIGAND FREE ENERGY PREDICTED BY IDOCK:   -8.13 KCAL/MOL
REMARK 924 INTRA-LIGAND FREE ENERGY PREDICTED BY IDOCK:   -1.71 KCAL/MOL
REMARK 927      BINDING AFFINITY PREDICTED BY RF-SCORE:    0.00 PKD
ROOT
HETATM    1  C   UNL     1     -14.200  15.411  72.441  1.00  0.00    -0.492 C  
HETATM    2  O   UNL     1     -13.154  15.128  71.513  1.00  0.00    -0.339 OA 
ENDROOT
BRANCH   2   3
HETATM    3  C   UNL     1     -12.901  13.802  71.271  1.00  0.00    -0.357 A  
HETATM    4  C   UNL     1     -13.352  12.801  72.148  1.00  0.00    -0.593 A  
HETATM    5  C   UNL     1     -13.135  11.452  71.869  1.00  0.00    -0.505 A  
HETATM    6  C   UNL     1     -12.440  11.083  70.725  1.00  0.00    -0.491 A  
HETATM    7  C   UNL     1     -11.943  12.068  69.874  1.00  0.00    -0.391 A  
HETATM    8  C   UNL     1     -12.153  13.431  70.136  1.00  0.00    -0.344 A  
BRANCH   8   9
HETATM    9  O   UNL     1     -11.585  14.233  69.176  1.00  0.00    -0.266 OA 
BRANCH   9  10
HETATM   10  C   UNL     1     -10.537  15.100  69.590  1.00  0.00    -0.263 C  
BRANCH  10  11
HETATM   11  C   UNL     1      -9.305  14.913  68.688  1.00  0.00    -0.194 C  
BRANCH  11  12
HETATM   12  N   UNL     1      -8.920  13.504  68.490  1.00  0.00    -0.329 NA 
HETATM   13  H   UNL     1      -9.600  12.873  68.913  1.00  0.00     0.000 HD 
BRANCH  12  14
HETATM   14  C   UNL     1      -8.703  13.176  67.064  1.00  0.00    -0.189 C  
BRANCH  14  15
HETATM   15  C   UNL     1     -10.018  12.824  66.335  1.00  0.00    -0.265 C  
HETATM   16  O   UNL     1      -9.851  13.025  64.929  1.00  0.00    -0.522 OA 
HETATM   17  H   UNL     1     -10.660  12.807  64.480  1.00  0.00     0.000 HD 
BRANCH  15  18
HETATM   18  C   UNL     1     -10.419  11.374  66.634  1.00  0.00    -0.243 C  
BRANCH  18  19
HETATM   19  O   UNL     1      -9.380  10.692  67.329  1.00  0.00    -0.150 OA 
BRANCH  19  20
HETATM   20  C   UNL     1      -9.075   9.434  66.865  1.00  0.00    -0.135 A  
HETATM   21  C   UNL     1      -8.843   9.117  65.514  1.00  0.00    -0.229 A  
HETATM   22  C   UNL     1      -8.509   7.826  65.118  1.00  0.00    -0.075 A  
HETATM   23  C   UNL     1      -8.391   6.796  66.050  1.00  0.00    -0.134 A  
HETATM   24  C   UNL     1      -8.632   7.113  67.392  1.00  0.00    -0.121 A  
HETATM   25  C   UNL     1      -8.975   8.396  67.823  1.00  0.00    -0.140 A  
HETATM   26  C   UNL     1      -9.161   8.329  69.245  1.00  0.00    -0.151 A  
HETATM   27  C   UNL     1      -9.527   9.270  70.232  1.00  0.00    -0.277 A  
HETATM   28  C   UNL     1      -9.616   8.871  71.570  1.00  0.00    -0.362 A  
HETATM   29  C   UNL     1      -9.344   7.553  71.933  1.00  0.00    -0.171 A  
HETATM   30  C   UNL     1      -8.984   6.600  70.975  1.00  0.00    -0.146 A  
HETATM   31  C   UNL     1      -8.906   7.020  69.640  1.00  0.00    -0.141 A  
HETATM   32  N   UNL     1      -8.592   6.311  68.509  1.00  0.00    -0.114 NA 
HETATM   33  H   UNL     1      -8.358   5.317  68.498  1.00  0.00     0.000 HD 
ENDBRANCH  19  20
ENDBRANCH  18  19
ENDBRANCH  15  18
ENDBRANCH  14  15
ENDBRANCH  12  14
ENDBRANCH  11  12
ENDBRANCH  10  11
ENDBRANCH   9  10
ENDBRANCH   8   9
ENDBRANCH   2   3
TORSDOF 10
ENDMDL
MODEL      165
REMARK 921   NORMALIZED FREE ENERGY PREDICTED BY IDOCK:   -5.04 KCAL/MOL
REMARK 922        TOTAL FREE ENERGY PREDICTED BY IDOCK:   -9.84 KCAL/MOL
REMARK 923 INTER-LIGAND FREE ENERGY PREDICTED BY IDOCK:   -8.63 KCAL/MOL
REMARK 924 INTRA-LIGAND FREE ENERGY PREDICTED BY IDOCK:   -1.21 KCAL/MOL
REMARK 927      BINDING AFFINITY PREDICTED BY RF-SCORE:    0.00 PKD
ROOT
HETATM    1  C   UNL     1     -10.064  16.854  66.699  1.00  0.00    -0.304 C  
HETATM    2  O   UNL     1      -9.400  15.617  66.948  1.00  0.00    -0.216 OA 
ENDROOT
BRANCH   2   3
HETATM    3  C   UNL     1     -10.056  14.484  66.540  1.00  0.00    -0.274 A  
HETATM    4  C   UNL     1     -10.122  14.128  65.182  1.00  0.00    -0.348 A  
HETATM    5  C   UNL     1     -10.747  12.948  64.779  1.00  0.00    -0.354 A  
HETATM    6  C   UNL     1     -11.340  12.121  65.723  1.00  0.00    -0.402 A  
HETATM    7  C   UNL     1     -11.326  12.488  67.068  1.00  0.00    -0.386 A  
HETATM    8  C   UNL     1     -10.700  13.670  67.492  1.00  0.00    -0.259 A  
BRANCH   8   9
HETATM    9  O   UNL     1     -10.799  13.844  68.852  1.00  0.00    -0.251 OA 
BRANCH   9  10
HETATM   10  C   UNL     1     -11.699  14.842  69.316  1.00  0.00    -0.316 C  
BRANCH  10  11
HETATM   11  C   UNL     1     -12.613  14.265  70.411  1.00  0.00    -0.343 C  
BRANCH  11  12
HETATM   12  N   UNL     1     -12.517  12.801  70.558  1.00  0.00    -0.253 NA 
HETATM   13  H   UNL     1     -11.548  12.488  70.496  1.00  0.00     0.000 HD 
BRANCH  12  14
HETATM   14  C   UNL     1     -13.156  12.318  71.801  1.00  0.00    -0.344 C  
BRANCH  14  15
HETATM   15  C   UNL     1     -12.934  10.806  72.027  1.00  0.00    -0.339 C  
HETATM   16  O   UNL     1     -14.149  10.212  72.493  1.00  0.00    -0.397 OA 
HETATM   17  H   UNL     1     -14.013   9.282  72.632  1.00  0.00     0.000 HD 
BRANCH  15  18
HETATM   18  C   UNL     1     -12.465  10.138  70.728  1.00  0.00    -0.326 C  
BRANCH  18  19
HETATM   19  O   UNL     1     -11.128   9.664  70.854  1.00  0.00    -0.296 OA 
BRANCH  19  20
HETATM   20  C   UNL     1     -10.991   8.374  71.310  1.00  0.00    -0.252 A  
HETATM   21  C   UNL     1     -11.151   7.982  72.652  1.00  0.00    -0.453 A  
HETATM   22  C   UNL     1     -11.027   6.651  73.039  1.00  0.00    -0.279 A  
HETATM   23  C   UNL     1     -10.739   5.655  72.107  1.00  0.00    -0.287 A  
HETATM   24  C   UNL     1     -10.572   6.051  70.774  1.00  0.00    -0.255 A  
HETATM   25  C   UNL     1     -10.683   7.377  70.353  1.00  0.00    -0.250 A  
HETATM   26  C   UNL     1     -10.429   7.395  68.941  1.00  0.00    -0.213 A  
HETATM   27  C   UNL     1     -10.376   8.415  67.965  1.00  0.00    -0.270 A  
HETATM   28  C   UNL     1     -10.101   8.087  66.634  1.00  0.00    -0.329 A  
HETATM   29  C   UNL     1      -9.879   6.762  66.265  1.00  0.00    -0.011 A  
HETATM   30  C   UNL     1      -9.920   5.733  67.211  1.00  0.00    -0.178 A  
HETATM   31  C   UNL     1     -10.193   6.084  68.540  1.00  0.00    -0.184 A  
HETATM   32  N   UNL     1     -10.284   5.297  69.660  1.00  0.00    -0.259 NA 
HETATM   33  H   UNL     1     -10.155   4.285  69.666  1.00  0.00     0.000 HD 
ENDBRANCH  19  20
ENDBRANCH  18  19
ENDBRANCH  15  18
ENDBRANCH  14  15
ENDBRANCH  12  14
ENDBRANCH  11  12
ENDBRANCH  10  11
ENDBRANCH   9  10
ENDBRANCH   8   9
ENDBRANCH   2   3
TORSDOF 10
ENDMDL
MODEL      166
REMARK 921   NORMALIZED FREE ENERGY PREDICTED BY IDOCK:   -5.04 KCAL/MOL
REMARK 922        TOTAL FREE ENERGY PREDICTED BY IDOCK:   -9.83 KCAL/MOL
REMARK 923 INTER-LIGAND FREE ENERGY PREDICTED BY IDOCK:   -8.73 KCAL/MOL
REMARK 924 INTRA-LIGAND FREE ENERGY PREDICTED BY IDOCK:   -1.10 KCAL/MOL
REMARK 927      BINDING AFFINITY PREDICTED BY RF-SCORE:    0.00 PKD
ROOT
HETATM    1  C   UNL     1     -12.092   6.348  72.205  1.00  0.00    -0.268 C  
HETATM    2  O   UNL     1     -10.677   6.172  72.203  1.00  0.00    -0.219 OA 
ENDROOT
BRANCH   2   3
HETATM    3  C   UNL     1     -10.201   5.089  71.508  1.00  0.00    -0.204 A  
HETATM    4  C   UNL     1      -9.946   3.865  72.149  1.00  0.00    -0.243 A  
HETATM    5  C   UNL     1      -9.512   2.754  71.428  1.00  0.00    -0.216 A  
HETATM    6  C   UNL     1      -9.299   2.856  70.060  1.00  0.00    -0.212 A  
HETATM    7  C   UNL     1      -9.499   4.078  69.420  1.00  0.00    -0.259 A  
HETATM    8  C   UNL     1      -9.938   5.206  70.129  1.00  0.00    -0.253 A  
BRANCH   8   9
HETATM    9  O   UNL     1     -10.074   6.304  69.314  1.00  0.00    -0.161 OA 
BRANCH   9  10
HETATM   10  C   UNL     1      -9.732   6.143  67.943  1.00  0.00    -0.116 C  
BRANCH  10  11
HETATM   11  C   UNL     1     -10.656   6.999  67.060  1.00  0.00    -0.341 C  
BRANCH  11  12
HETATM   12  N   UNL     1     -10.614   8.439  67.375  1.00  0.00    -0.426 NA 
HETATM   13  H   UNL     1     -10.226   8.602  68.304  1.00  0.00     0.000 HD 
BRANCH  12  14
HETATM   14  C   UNL     1      -9.887   9.217  66.349  1.00  0.00    -0.277 C  
BRANCH  14  15
HETATM   15  C   UNL     1      -8.789  10.114  66.960  1.00  0.00    -0.135 C  
HETATM   16  O   UNL     1      -8.072  10.769  65.910  1.00  0.00    -0.158 OA 
HETATM   17  H   UNL     1      -7.396  11.321  66.286  1.00  0.00     0.000 HD 
BRANCH  15  18
HETATM   18  C   UNL     1      -9.411  11.139  67.917  1.00  0.00    -0.161 C  
BRANCH  18  19
HETATM   19  O   UNL     1     -10.630  11.651  67.390  1.00  0.00    -0.206 OA 
BRANCH  19  20
HETATM   20  C   UNL     1     -10.748  13.021  67.378  1.00  0.00    -0.245 A  
HETATM   21  C   UNL     1     -10.253  13.855  66.359  1.00  0.00    -0.292 A  
HETATM   22  C   UNL     1     -10.434  15.234  66.397  1.00  0.00    -0.307 A  
HETATM   23  C   UNL     1     -11.116  15.841  67.450  1.00  0.00    -0.235 A  
HETATM   24  C   UNL     1     -11.600  15.008  68.467  1.00  0.00    -0.326 A  
HETATM   25  C   UNL     1     -11.431  13.623  68.463  1.00  0.00    -0.347 A  
HETATM   26  C   UNL     1     -12.035  13.120  69.664  1.00  0.00    -0.370 A  
HETATM   27  C   UNL     1     -12.171  11.834  70.231  1.00  0.00    -0.381 A  
HETATM   28  C   UNL     1     -12.841  11.680  71.449  1.00  0.00    -0.461 A  
HETATM   29  C   UNL     1     -13.375  12.787  72.104  1.00  0.00    -0.593 A  
HETATM   30  C   UNL     1     -13.251  14.073  71.569  1.00  0.00    -0.431 A  
HETATM   31  C   UNL     1     -12.572  14.205  70.350  1.00  0.00    -0.332 A  
HETATM   32  N   UNL     1     -12.296  15.326  69.610  1.00  0.00    -0.555 NA 
HETATM   33  H   UNL     1     -12.572  16.273  69.873  1.00  0.00     0.000 HD 
ENDBRANCH  19  20
ENDBRANCH  18  19
ENDBRANCH  15  18
ENDBRANCH  14  15
ENDBRANCH  12  14
ENDBRANCH  11  12
ENDBRANCH  10  11
ENDBRANCH   9  10
ENDBRANCH   8   9
ENDBRANCH   2   3
TORSDOF 10
ENDMDL
MODEL      167
REMARK 921   NORMALIZED FREE ENERGY PREDICTED BY IDOCK:   -4.98 KCAL/MOL
REMARK 922        TOTAL FREE ENERGY PREDICTED BY IDOCK:   -9.74 KCAL/MOL
REMARK 923 INTER-LIGAND FREE ENERGY PREDICTED BY IDOCK:   -7.94 KCAL/MOL
REMARK 924 INTRA-LIGAND FREE ENERGY PREDICTED BY IDOCK:   -1.79 KCAL/MOL
REMARK 927      BINDING AFFINITY PREDICTED BY RF-SCORE:    0.00 PKD
ROOT
HETATM    1  C   UNL     1     -10.243   4.719  66.346  1.00  0.00    -0.275 C  
HETATM    2  O   UNL     1      -9.521   5.237  67.462  1.00  0.00    -0.117 OA 
ENDROOT
BRANCH   2   3
HETATM    3  C   UNL     1      -8.652   6.265  67.197  1.00  0.00    -0.107 A  
HETATM    4  C   UNL     1      -8.603   6.871  65.930  1.00  0.00    -0.152 A  
HETATM    5  C   UNL     1      -7.753   7.949  65.683  1.00  0.00    -0.096 A  
HETATM    6  C   UNL     1      -6.921   8.420  66.689  1.00  0.00    -0.072 A  
HETATM    7  C   UNL     1      -6.923   7.795  67.935  1.00  0.00    -0.077 A  
HETATM    8  C   UNL     1      -7.773   6.711  68.203  1.00  0.00    -0.105 A  
BRANCH   8   9
HETATM    9  O   UNL     1      -7.621   6.245  69.487  1.00  0.00    -0.090 OA 
BRANCH   9  10
HETATM   10  C   UNL     1      -7.807   7.177  70.544  1.00  0.00    -0.100 C  
BRANCH  10  11
HETATM   11  C   UNL     1      -8.958   6.722  71.458  1.00  0.00    -0.137 C  
BRANCH  11  12
HETATM   12  N   UNL     1     -10.170   7.554  71.347  1.00  0.00    -0.187 NA 
HETATM   13  H   UNL     1      -9.973   8.431  70.864  1.00  0.00     0.000 HD 
BRANCH  12  14
HETATM   14  C   UNL     1     -11.290   6.831  70.704  1.00  0.00    -0.334 C  
BRANCH  14  15
HETATM   15  C   UNL     1     -12.659   7.207  71.312  1.00  0.00    -0.380 C  
HETATM   16  O   UNL     1     -12.922   6.372  72.443  1.00  0.00    -0.537 OA 
HETATM   17  H   UNL     1     -13.765   6.604  72.817  1.00  0.00     0.000 HD 
BRANCH  15  18
HETATM   18  C   UNL     1     -12.673   8.688  71.713  1.00  0.00    -0.359 C  
BRANCH  18  19
HETATM   19  O   UNL     1     -12.364   9.520  70.600  1.00  0.00    -0.210 OA 
BRANCH  19  20
HETATM   20  C   UNL     1     -12.523  10.870  70.799  1.00  0.00    -0.394 A  
HETATM   21  C   UNL     1     -13.147  11.442  71.924  1.00  0.00    -0.505 A  
HETATM   22  C   UNL     1     -13.247  12.821  72.075  1.00  0.00    -0.538 A  
HETATM   23  C   UNL     1     -12.731  13.690  71.115  1.00  0.00    -0.432 A  
HETATM   24  C   UNL     1     -12.119  13.117  69.993  1.00  0.00    -0.305 A  
HETATM   25  C   UNL     1     -12.007  11.738  69.807  1.00  0.00    -0.392 A  
HETATM   26  C   UNL     1     -11.348  11.534  68.548  1.00  0.00    -0.337 A  
HETATM   27  C   UNL     1     -10.973  10.390  67.810  1.00  0.00    -0.369 A  
HETATM   28  C   UNL     1     -10.320  10.541  66.582  1.00  0.00    -0.295 A  
HETATM   29  C   UNL     1     -10.038  11.811  66.084  1.00  0.00    -0.255 A  
HETATM   30  C   UNL     1     -10.403  12.961  66.791  1.00  0.00    -0.250 A  
HETATM   31  C   UNL     1     -11.060  12.787  68.017  1.00  0.00    -0.250 A  
HETATM   32  N   UNL     1     -11.534  13.720  68.904  1.00  0.00    -0.282 NA 
HETATM   33  H   UNL     1     -11.462  14.729  68.772  1.00  0.00     0.000 HD 
ENDBRANCH  19  20
ENDBRANCH  18  19
ENDBRANCH  15  18
ENDBRANCH  14  15
ENDBRANCH  12  14
ENDBRANCH  11  12
ENDBRANCH  10  11
ENDBRANCH   9  10
ENDBRANCH   8   9
ENDBRANCH   2   3
TORSDOF 10
ENDMDL
MODEL      168
REMARK 921   NORMALIZED FREE ENERGY PREDICTED BY IDOCK:   -4.97 KCAL/MOL
REMARK 922        TOTAL FREE ENERGY PREDICTED BY IDOCK:   -9.72 KCAL/MOL
REMARK 923 INTER-LIGAND FREE ENERGY PREDICTED BY IDOCK:   -8.85 KCAL/MOL
REMARK 924 INTRA-LIGAND FREE ENERGY PREDICTED BY IDOCK:   -0.87 KCAL/MOL
REMARK 927      BINDING AFFINITY PREDICTED BY RF-SCORE:    0.00 PKD
ROOT
HETATM    1  C   UNL     1      -9.829  19.723  68.257  1.00  0.00    -0.428 C  
HETATM    2  O   UNL     1      -9.392  19.868  66.907  1.00  0.00    -0.338 OA 
ENDROOT
BRANCH   2   3
HETATM    3  C   UNL     1      -8.065  19.611  66.670  1.00  0.00    -0.309 A  
HETATM    4  C   UNL     1      -7.074  20.562  66.965  1.00  0.00    -0.351 A  
HETATM    5  C   UNL     1      -5.723  20.275  66.768  1.00  0.00    -0.197 A  
HETATM    6  C   UNL     1      -5.345  19.045  66.248  1.00  0.00    -0.171 A  
HETATM    7  C   UNL     1      -6.322  18.112  65.903  1.00  0.00    -0.293 A  
HETATM    8  C   UNL     1      -7.685  18.382  66.096  1.00  0.00    -0.218 A  
BRANCH   8   9
HETATM    9  O   UNL     1      -8.478  17.333  65.694  1.00  0.00    -0.475 OA 
BRANCH   9  10
HETATM   10  C   UNL     1      -8.284  16.085  66.347  1.00  0.00    -0.274 C  
BRANCH  10  11
HETATM   11  C   UNL     1      -9.128  16.020  67.631  1.00  0.00    -0.199 C  
BRANCH  11  12
HETATM   12  N   UNL     1     -10.468  16.619  67.495  1.00  0.00    -0.312 NA 
HETATM   13  H   UNL     1     -10.408  17.591  67.192  1.00  0.00     0.000 HD 
BRANCH  12  14
HETATM   14  C   UNL     1     -11.346  15.834  66.600  1.00  0.00     0.109 C  
BRANCH  14  15
HETATM   15  C   UNL     1     -11.473  14.361  67.045  1.00  0.00    -0.361 C  
HETATM   16  O   UNL     1     -12.170  14.301  68.294  1.00  0.00    -0.562 OA 
HETATM   17  H   UNL     1     -12.248  13.394  68.568  1.00  0.00     0.000 HD 
BRANCH  15  18
HETATM   18  C   UNL     1     -12.204  13.542  65.974  1.00  0.00    -0.445 C  
BRANCH  18  19
HETATM   19  O   UNL     1     -11.926  12.153  66.116  1.00  0.00    -0.593 OA 
BRANCH  19  20
HETATM   20  C   UNL     1     -11.140  11.597  65.136  1.00  0.00    -0.237 A  
HETATM   21  C   UNL     1     -11.043  12.084  63.819  1.00  0.00    -0.510 A  
HETATM   22  C   UNL     1     -10.203  11.487  62.885  1.00  0.00    -0.188 A  
HETATM   23  C   UNL     1      -9.423  10.382  63.220  1.00  0.00    -0.361 A  
HETATM   24  C   UNL     1      -9.530   9.894  64.529  1.00  0.00    -0.264 A  
HETATM   25  C   UNL     1     -10.367  10.464  65.490  1.00  0.00    -0.265 A  
HETATM   26  C   UNL     1     -10.224   9.689  66.689  1.00  0.00    -0.302 A  
HETATM   27  C   UNL     1     -10.809   9.749  67.972  1.00  0.00    -0.276 A  
HETATM   28  C   UNL     1     -10.437   8.818  68.948  1.00  0.00    -0.217 A  
HETATM   29  C   UNL     1      -9.494   7.834  68.661  1.00  0.00    -0.152 A  
HETATM   30  C   UNL     1      -8.903   7.748  67.397  1.00  0.00    -0.128 A  
HETATM   31  C   UNL     1      -9.293   8.687  66.433  1.00  0.00    -0.211 A  
HETATM   32  N   UNL     1      -8.892   8.832  65.129  1.00  0.00    -0.326 NA 
HETATM   33  H   UNL     1      -8.211   8.231  64.665  1.00  0.00     0.000 HD 
ENDBRANCH  19  20
ENDBRANCH  18  19
ENDBRANCH  15  18
ENDBRANCH  14  15
ENDBRANCH  12  14
ENDBRANCH  11  12
ENDBRANCH  10  11
ENDBRANCH   9  10
ENDBRANCH   8   9
ENDBRANCH   2   3
TORSDOF 10
ENDMDL
MODEL      169
REMARK 921   NORMALIZED FREE ENERGY PREDICTED BY IDOCK:   -4.96 KCAL/MOL
REMARK 922        TOTAL FREE ENERGY PREDICTED BY IDOCK:   -9.70 KCAL/MOL
REMARK 923 INTER-LIGAND FREE ENERGY PREDICTED BY IDOCK:   -8.28 KCAL/MOL
REMARK 924 INTRA-LIGAND FREE ENERGY PREDICTED BY IDOCK:   -1.42 KCAL/MOL
REMARK 927      BINDING AFFINITY PREDICTED BY RF-SCORE:    0.00 PKD
ROOT
HETATM    1  C   UNL     1     -11.965  15.706  70.327  1.00  0.00    -0.374 C  
HETATM    2  O   UNL     1     -11.086  14.917  69.530  1.00  0.00    -0.260 OA 
ENDROOT
BRANCH   2   3
HETATM    3  C   UNL     1     -10.557  15.531  68.423  1.00  0.00    -0.252 A  
HETATM    4  C   UNL     1     -10.867  16.865  68.110  1.00  0.00    -0.351 A  
HETATM    5  C   UNL     1     -10.287  17.499  67.012  1.00  0.00    -0.324 A  
HETATM    6  C   UNL     1      -9.408  16.801  66.194  1.00  0.00    -0.288 A  
HETATM    7  C   UNL     1      -9.132  15.462  66.464  1.00  0.00    -0.334 A  
HETATM    8  C   UNL     1      -9.704  14.808  67.565  1.00  0.00    -0.213 A  
BRANCH   8   9
HETATM    9  O   UNL     1      -9.300  13.497  67.652  1.00  0.00    -0.201 OA 
BRANCH   9  10
HETATM   10  C   UNL     1      -8.152  13.222  68.444  1.00  0.00    -0.134 C  
BRANCH  10  11
HETATM   11  C   UNL     1      -7.339  12.075  67.821  1.00  0.00    -0.113 C  
BRANCH  11  12
HETATM   12  N   UNL     1      -7.677  11.802  66.412  1.00  0.00    -0.383 NA 
HETATM   13  H   UNL     1      -6.853  11.873  65.814  1.00  0.00     0.000 HD 
BRANCH  12  14
HETATM   14  C   UNL     1      -8.351  10.497  66.238  1.00  0.00    -0.152 C  
BRANCH  14  15
HETATM   15  C   UNL     1      -9.879  10.643  66.062  1.00  0.00    -0.228 C  
HETATM   16  O   UNL     1     -10.227  10.379  64.700  1.00  0.00    -0.346 OA 
HETATM   17  H   UNL     1     -11.167  10.469  64.592  1.00  0.00     0.000 HD 
BRANCH  15  18
HETATM   18  C   UNL     1     -10.616   9.686  67.008  1.00  0.00    -0.197 C  
BRANCH  18  19
HETATM   19  O   UNL     1     -10.033   9.706  68.307  1.00  0.00    -0.147 OA 
BRANCH  19  20
HETATM   20  C   UNL     1     -10.872  10.072  69.333  1.00  0.00    -0.239 A  
HETATM   21  C   UNL     1     -11.443  11.350  69.479  1.00  0.00    -0.381 A  
HETATM   22  C   UNL     1     -12.308  11.643  70.528  1.00  0.00    -0.410 A  
HETATM   23  C   UNL     1     -12.643  10.677  71.476  1.00  0.00    -0.517 A  
HETATM   24  C   UNL     1     -12.066   9.409  71.332  1.00  0.00    -0.363 A  
HETATM   25  C   UNL     1     -11.189   9.083  70.296  1.00  0.00    -0.232 A  
HETATM   26  C   UNL     1     -10.794   7.717  70.490  1.00  0.00    -0.245 A  
HETATM   27  C   UNL     1      -9.928   6.838  69.803  1.00  0.00    -0.189 A  
HETATM   28  C   UNL     1      -9.763   5.528  70.263  1.00  0.00    -0.242 A  
HETATM   29  C   UNL     1     -10.447   5.085  71.393  1.00  0.00    -0.213 A  
HETATM   30  C   UNL     1     -11.307   5.935  72.095  1.00  0.00    -0.344 A  
HETATM   31  C   UNL     1     -11.455   7.245  71.620  1.00  0.00    -0.265 A  
HETATM   32  N   UNL     1     -12.211   8.281  72.107  1.00  0.00    -0.344 NA 
HETATM   33  H   UNL     1     -12.803   8.222  72.935  1.00  0.00     0.000 HD 
ENDBRANCH  19  20
ENDBRANCH  18  19
ENDBRANCH  15  18
ENDBRANCH  14  15
ENDBRANCH  12  14
ENDBRANCH  11  12
ENDBRANCH  10  11
ENDBRANCH   9  10
ENDBRANCH   8   9
ENDBRANCH   2   3
TORSDOF 10
ENDMDL
MODEL      170
REMARK 921   NORMALIZED FREE ENERGY PREDICTED BY IDOCK:   -4.95 KCAL/MOL
REMARK 922        TOTAL FREE ENERGY PREDICTED BY IDOCK:   -9.69 KCAL/MOL
REMARK 923 INTER-LIGAND FREE ENERGY PREDICTED BY IDOCK:   -8.69 KCAL/MOL
REMARK 924 INTRA-LIGAND FREE ENERGY PREDICTED BY IDOCK:   -1.01 KCAL/MOL
REMARK 927      BINDING AFFINITY PREDICTED BY RF-SCORE:    0.00 PKD
ROOT
HETATM    1  C   UNL     1     -13.499   7.250  71.561  1.00  0.00    -0.363 C  
HETATM    2  O   UNL     1     -12.287   6.852  70.924  1.00  0.00    -0.386 OA 
ENDROOT
BRANCH   2   3
HETATM    3  C   UNL     1     -11.282   6.418  71.751  1.00  0.00    -0.277 A  
HETATM    4  C   UNL     1     -11.507   5.416  72.710  1.00  0.00    -0.333 A  
HETATM    5  C   UNL     1     -10.469   4.944  73.512  1.00  0.00    -0.278 A  
HETATM    6  C   UNL     1      -9.197   5.486  73.389  1.00  0.00    -0.131 A  
HETATM    7  C   UNL     1      -8.972   6.516  72.478  1.00  0.00    -0.136 A  
HETATM    8  C   UNL     1     -10.003   7.002  71.660  1.00  0.00    -0.178 A  
BRANCH   8   9
HETATM    9  O   UNL     1      -9.572   8.013  70.834  1.00  0.00    -0.160 OA 
BRANCH   9  10
HETATM   10  C   UNL     1      -9.862   9.346  71.233  1.00  0.00    -0.175 C  
BRANCH  10  11
HETATM   11  C   UNL     1     -10.399  10.153  70.039  1.00  0.00    -0.250 C  
BRANCH  11  12
HETATM   12  N   UNL     1     -11.250   9.369  69.125  1.00  0.00    -0.446 NA 
HETATM   13  H   UNL     1     -12.224   9.380  69.428  1.00  0.00     0.000 HD 
BRANCH  12  14
HETATM   14  C   UNL     1     -11.123   9.812  67.720  1.00  0.00    -0.075 C  
BRANCH  14  15
HETATM   15  C   UNL     1      -9.995   9.072  66.969  1.00  0.00    -0.230 C  
HETATM   16  O   UNL     1     -10.532   7.907  66.334  1.00  0.00    -0.464 OA 
HETATM   17  H   UNL     1      -9.838   7.451  65.872  1.00  0.00     0.000 HD 
BRANCH  15  18
HETATM   18  C   UNL     1      -9.343  10.002  65.939  1.00  0.00    -0.185 C  
BRANCH  18  19
HETATM   19  O   UNL     1      -9.707  11.358  66.175  1.00  0.00    -0.205 OA 
BRANCH  19  20
HETATM   20  C   UNL     1     -10.505  11.939  65.219  1.00  0.00    -0.275 A  
HETATM   21  C   UNL     1     -11.221  11.227  64.238  1.00  0.00    -0.214 A  
HETATM   22  C   UNL     1     -12.035  11.879  63.318  1.00  0.00    -0.441 A  
HETATM   23  C   UNL     1     -12.173  13.266  63.335  1.00  0.00    -0.476 A  
HETATM   24  C   UNL     1     -11.453  13.971  64.307  1.00  0.00    -0.297 A  
HETATM   25  C   UNL     1     -10.622  13.350  65.241  1.00  0.00    -0.333 A  
HETATM   26  C   UNL     1     -10.044  14.386  66.048  1.00  0.00    -0.338 A  
HETATM   27  C   UNL     1      -9.128  14.398  67.123  1.00  0.00    -0.238 A  
HETATM   28  C   UNL     1      -8.765  15.614  67.711  1.00  0.00    -0.173 A  
HETATM   29  C   UNL     1      -9.301  16.811  67.243  1.00  0.00    -0.234 A  
HETATM   30  C   UNL     1     -10.207  16.830  66.178  1.00  0.00    -0.363 A  
HETATM   31  C   UNL     1     -10.554  15.601  65.600  1.00  0.00    -0.378 A  
HETATM   32  N   UNL     1     -11.396  15.324  64.554  1.00  0.00    -0.653 NA 
HETATM   33  H   UNL     1     -11.912  16.029  64.027  1.00  0.00     0.000 HD 
ENDBRANCH  19  20
ENDBRANCH  18  19
ENDBRANCH  15  18
ENDBRANCH  14  15
ENDBRANCH  12  14
ENDBRANCH  11  12
ENDBRANCH  10  11
ENDBRANCH   9  10
ENDBRANCH   8   9
ENDBRANCH   2   3
TORSDOF 10
ENDMDL
MODEL      171
REMARK 921   NORMALIZED FREE ENERGY PREDICTED BY IDOCK:   -4.94 KCAL/MOL
REMARK 922        TOTAL FREE ENERGY PREDICTED BY IDOCK:   -9.67 KCAL/MOL
REMARK 923 INTER-LIGAND FREE ENERGY PREDICTED BY IDOCK:   -8.45 KCAL/MOL
REMARK 924 INTRA-LIGAND FREE ENERGY PREDICTED BY IDOCK:   -1.23 KCAL/MOL
REMARK 927      BINDING AFFINITY PREDICTED BY RF-SCORE:    0.00 PKD
ROOT
HETATM    1  C   UNL     1      -7.486  16.137  67.885  1.00  0.00    -0.128 C  
HETATM    2  O   UNL     1      -8.900  16.197  68.053  1.00  0.00    -0.178 OA 
ENDROOT
BRANCH   2   3
HETATM    3  C   UNL     1      -9.511  17.354  67.638  1.00  0.00    -0.251 A  
HETATM    4  C   UNL     1      -9.777  18.401  68.535  1.00  0.00    -0.386 A  
HETATM    5  C   UNL     1     -10.351  19.594  68.097  1.00  0.00    -0.561 A  
HETATM    6  C   UNL     1     -10.693  19.748  66.760  1.00  0.00    -0.526 A  
HETATM    7  C   UNL     1     -10.481  18.697  65.869  1.00  0.00    -0.395 A  
HETATM    8  C   UNL     1      -9.902  17.491  66.291  1.00  0.00    -0.285 A  
BRANCH   8   9
HETATM    9  O   UNL     1      -9.780  16.591  65.260  1.00  0.00    -0.440 OA 
BRANCH   9  10
HETATM   10  C   UNL     1     -10.846  15.669  65.071  1.00  0.00    -0.450 C  
BRANCH  10  11
HETATM   11  C   UNL     1     -10.308  14.228  65.066  1.00  0.00    -0.421 C  
BRANCH  11  12
HETATM   12  N   UNL     1      -9.499  13.890  66.252  1.00  0.00    -0.435 NA 
HETATM   13  H   UNL     1      -9.892  14.305  67.097  1.00  0.00     0.000 HD 
BRANCH  12  14
HETATM   14  C   UNL     1      -9.317  12.430  66.410  1.00  0.00    -0.219 C  
BRANCH  14  15
HETATM   15  C   UNL     1      -9.010  12.031  67.870  1.00  0.00    -0.182 C  
HETATM   16  O   UNL     1      -9.236  13.154  68.727  1.00  0.00    -0.388 OA 
HETATM   17  H   UNL     1      -9.048  12.908  69.626  1.00  0.00     0.000 HD 
BRANCH  15  18
HETATM   18  C   UNL     1      -9.882  10.841  68.289  1.00  0.00    -0.166 C  
BRANCH  18  19
HETATM   19  O   UNL     1      -9.107   9.649  68.378  1.00  0.00    -0.123 OA 
BRANCH  19  20
HETATM   20  C   UNL     1      -9.804   8.472  68.244  1.00  0.00    -0.169 A  
HETATM   21  C   UNL     1     -10.453   8.058  67.066  1.00  0.00    -0.410 A  
HETATM   22  C   UNL     1     -11.116   6.837  66.993  1.00  0.00    -0.369 A  
HETATM   23  C   UNL     1     -11.159   5.975  68.087  1.00  0.00    -0.246 A  
HETATM   24  C   UNL     1     -10.520   6.394  69.261  1.00  0.00    -0.231 A  
HETATM   25  C   UNL     1      -9.851   7.615  69.371  1.00  0.00    -0.171 A  
HETATM   26  C   UNL     1      -9.347   7.701  70.712  1.00  0.00    -0.162 A  
HETATM   27  C   UNL     1      -8.620   8.678  71.426  1.00  0.00    -0.247 A  
HETATM   28  C   UNL     1      -8.269   8.443  72.760  1.00  0.00    -0.186 A  
HETATM   29  C   UNL     1      -8.632   7.253  73.386  1.00  0.00    -0.175 A  
HETATM   30  C   UNL     1      -9.356   6.270  72.704  1.00  0.00    -0.145 A  
HETATM   31  C   UNL     1      -9.701   6.527  71.370  1.00  0.00    -0.172 A  
HETATM   32  N   UNL     1     -10.405   5.761  70.477  1.00  0.00    -0.229 NA 
HETATM   33  H   UNL     1     -10.793   4.841  70.687  1.00  0.00     0.000 HD 
ENDBRANCH  19  20
ENDBRANCH  18  19
ENDBRANCH  15  18
ENDBRANCH  14  15
ENDBRANCH  12  14
ENDBRANCH  11  12
ENDBRANCH  10  11
ENDBRANCH   9  10
ENDBRANCH   8   9
ENDBRANCH   2   3
TORSDOF 10
ENDMDL
MODEL      172
REMARK 921   NORMALIZED FREE ENERGY PREDICTED BY IDOCK:   -4.92 KCAL/MOL
REMARK 922        TOTAL FREE ENERGY PREDICTED BY IDOCK:   -9.65 KCAL/MOL
REMARK 923 INTER-LIGAND FREE ENERGY PREDICTED BY IDOCK:   -8.65 KCAL/MOL
REMARK 924 INTRA-LIGAND FREE ENERGY PREDICTED BY IDOCK:   -1.00 KCAL/MOL
REMARK 927      BINDING AFFINITY PREDICTED BY RF-SCORE:    0.00 PKD
ROOT
HETATM    1  C   UNL     1     -12.553  12.340  63.997  1.00  0.00    -0.420 C  
HETATM    2  O   UNL     1     -11.198  12.775  63.911  1.00  0.00    -0.386 OA 
ENDROOT
BRANCH   2   3
HETATM    3  C   UNL     1     -10.819  13.753  64.796  1.00  0.00    -0.401 A  
HETATM    4  C   UNL     1     -11.152  15.101  64.581  1.00  0.00    -0.338 A  
HETATM    5  C   UNL     1     -10.807  16.082  65.510  1.00  0.00    -0.301 A  
HETATM    6  C   UNL     1     -10.100  15.736  66.653  1.00  0.00    -0.287 A  
HETATM    7  C   UNL     1      -9.718  14.410  66.853  1.00  0.00    -0.266 A  
HETATM    8  C   UNL     1     -10.059  13.409  65.931  1.00  0.00    -0.293 A  
BRANCH   8   9
HETATM    9  O   UNL     1      -9.590  12.175  66.316  1.00  0.00    -0.229 OA 
BRANCH   9  10
HETATM   10  C   UNL     1      -9.982  11.702  67.598  1.00  0.00    -0.188 C  
BRANCH  10  11
HETATM   11  C   UNL     1     -11.504  11.488  67.643  1.00  0.00    -0.285 C  
BRANCH  11  12
HETATM   12  N   UNL     1     -11.927  10.400  68.545  1.00  0.00    -0.759 NA 
HETATM   13  H   UNL     1     -11.837   9.490  68.092  1.00  0.00     0.000 HD 
BRANCH  12  14
HETATM   14  C   UNL     1     -11.203  10.428  69.835  1.00  0.00    -0.306 C  
BRANCH  14  15
HETATM   15  C   UNL     1     -12.146  10.230  71.042  1.00  0.00    -0.386 C  
HETATM   16  O   UNL     1     -13.505  10.327  70.603  1.00  0.00    -0.429 OA 
HETATM   17  H   UNL     1     -14.086  10.205  71.346  1.00  0.00     0.000 HD 
BRANCH  15  18
HETATM   18  C   UNL     1     -11.883   8.872  71.705  1.00  0.00    -0.345 C  
BRANCH  18  19
HETATM   19  O   UNL     1     -10.570   8.409  71.410  1.00  0.00    -0.213 OA 
BRANCH  19  20
HETATM   20  C   UNL     1     -10.277   7.133  71.831  1.00  0.00    -0.190 A  
HETATM   21  C   UNL     1     -10.132   6.751  73.178  1.00  0.00    -0.227 A  
HETATM   22  C   UNL     1      -9.864   5.433  73.534  1.00  0.00    -0.173 A  
HETATM   23  C   UNL     1      -9.731   4.439  72.565  1.00  0.00    -0.204 A  
HETATM   24  C   UNL     1      -9.867   4.825  71.226  1.00  0.00    -0.187 A  
HETATM   25  C   UNL     1     -10.130   6.139  70.833  1.00  0.00    -0.237 A  
HETATM   26  C   UNL     1     -10.180   6.150  69.399  1.00  0.00    -0.248 A  
HETATM   27  C   UNL     1     -10.383   7.158  68.432  1.00  0.00    -0.220 A  
HETATM   28  C   UNL     1     -10.379   6.825  67.073  1.00  0.00    -0.338 A  
HETATM   29  C   UNL     1     -10.175   5.507  66.670  1.00  0.00    -0.279 A  
HETATM   30  C   UNL     1      -9.966   4.490  67.606  1.00  0.00    -0.138 A  
HETATM   31  C   UNL     1      -9.970   4.846  68.962  1.00  0.00    -0.167 A  
HETATM   32  N   UNL     1      -9.784   4.071  70.078  1.00  0.00    -0.207 NA 
HETATM   33  H   UNL     1      -9.608   3.066  70.060  1.00  0.00     0.000 HD 
ENDBRANCH  19  20
ENDBRANCH  18  19
ENDBRANCH  15  18
ENDBRANCH  14  15
ENDBRANCH  12  14
ENDBRANCH  11  12
ENDBRANCH  10  11
ENDBRANCH   9  10
ENDBRANCH   8   9
ENDBRANCH   2   3
TORSDOF 10
ENDMDL
MODEL      173
REMARK 921   NORMALIZED FREE ENERGY PREDICTED BY IDOCK:   -4.92 KCAL/MOL
REMARK 922        TOTAL FREE ENERGY PREDICTED BY IDOCK:   -9.64 KCAL/MOL
REMARK 923 INTER-LIGAND FREE ENERGY PREDICTED BY IDOCK:   -8.50 KCAL/MOL
REMARK 924 INTRA-LIGAND FREE ENERGY PREDICTED BY IDOCK:   -1.14 KCAL/MOL
REMARK 927      BINDING AFFINITY PREDICTED BY RF-SCORE:    0.00 PKD
ROOT
HETATM    1  C   UNL     1     -10.972  10.682  67.048  1.00  0.00    -0.208 C  
HETATM    2  O   UNL     1     -11.915  11.747  67.142  1.00  0.00    -0.617 OA 
ENDROOT
BRANCH   2   3
HETATM    3  C   UNL     1     -11.864  12.690  66.147  1.00  0.00    -0.418 A  
HETATM    4  C   UNL     1     -12.414  12.443  64.878  1.00  0.00    -0.439 A  
HETATM    5  C   UNL     1     -12.404  13.425  63.888  1.00  0.00    -0.410 A  
HETATM    6  C   UNL     1     -11.820  14.659  64.141  1.00  0.00    -0.263 A  
HETATM    7  C   UNL     1     -11.226  14.899  65.379  1.00  0.00    -0.359 A  
HETATM    8  C   UNL     1     -11.229  13.924  66.388  1.00  0.00    -0.315 A  
BRANCH   8   9
HETATM    9  O   UNL     1     -10.595  14.362  67.527  1.00  0.00    -0.261 OA 
BRANCH   9  10
HETATM   10  C   UNL     1      -9.186  14.543  67.458  1.00  0.00    -0.194 C  
BRANCH  10  11
HETATM   11  C   UNL     1      -8.493  13.745  68.576  1.00  0.00    -0.117 C  
BRANCH  11  12
HETATM   12  N   UNL     1      -7.315  12.984  68.121  1.00  0.00    -0.105 NA 
HETATM   13  H   UNL     1      -6.550  13.053  68.792  1.00  0.00     0.000 HD 
BRANCH  12  14
HETATM   14  C   UNL     1      -7.639  11.572  67.824  1.00  0.00    -0.111 C  
BRANCH  14  15
HETATM   15  C   UNL     1      -6.946  10.592  68.796  1.00  0.00    -0.068 C  
HETATM   16  O   UNL     1      -7.051  11.095  70.132  1.00  0.00    -0.441 OA 
HETATM   17  H   UNL     1      -6.625  10.492  70.730  1.00  0.00     0.000 HD 
BRANCH  15  18
HETATM   18  C   UNL     1      -7.577   9.199  68.687  1.00  0.00    -0.084 C  
BRANCH  18  19
HETATM   19  O   UNL     1      -8.744   9.104  69.496  1.00  0.00    -0.129 OA 
BRANCH  19  20
HETATM   20  C   UNL     1      -9.281   7.845  69.626  1.00  0.00    -0.153 A  
HETATM   21  C   UNL     1      -8.653   6.662  69.198  1.00  0.00    -0.130 A  
HETATM   22  C   UNL     1      -9.243   5.416  69.389  1.00  0.00    -0.150 A  
HETATM   23  C   UNL     1     -10.483   5.296  70.014  1.00  0.00    -0.351 A  
HETATM   24  C   UNL     1     -11.109   6.477  70.431  1.00  0.00    -0.332 A  
HETATM   25  C   UNL     1     -10.549   7.743  70.250  1.00  0.00    -0.231 A  
HETATM   26  C   UNL     1     -11.480   8.697  70.779  1.00  0.00    -0.293 A  
HETATM   27  C   UNL     1     -11.497  10.106  70.871  1.00  0.00    -0.444 A  
HETATM   28  C   UNL     1     -12.586  10.749  71.469  1.00  0.00    -0.500 A  
HETATM   29  C   UNL     1     -13.652  10.008  71.974  1.00  0.00    -0.366 A  
HETATM   30  C   UNL     1     -13.664   8.612  71.892  1.00  0.00    -0.462 A  
HETATM   31  C   UNL     1     -12.566   7.989  71.285  1.00  0.00    -0.239 A  
HETATM   32  N   UNL     1     -12.318   6.658  71.063  1.00  0.00    -0.309 NA 
HETATM   33  H   UNL     1     -12.948   5.902  71.330  1.00  0.00     0.000 HD 
ENDBRANCH  19  20
ENDBRANCH  18  19
ENDBRANCH  15  18
ENDBRANCH  14  15
ENDBRANCH  12  14
ENDBRANCH  11  12
ENDBRANCH  10  11
ENDBRANCH   9  10
ENDBRANCH   8   9
ENDBRANCH   2   3
TORSDOF 10
ENDMDL
MODEL      174
REMARK 921   NORMALIZED FREE ENERGY PREDICTED BY IDOCK:   -4.92 KCAL/MOL
REMARK 922        TOTAL FREE ENERGY PREDICTED BY IDOCK:   -9.64 KCAL/MOL
REMARK 923 INTER-LIGAND FREE ENERGY PREDICTED BY IDOCK:   -8.47 KCAL/MOL
REMARK 924 INTRA-LIGAND FREE ENERGY PREDICTED BY IDOCK:   -1.17 KCAL/MOL
REMARK 927      BINDING AFFINITY PREDICTED BY RF-SCORE:    0.00 PKD
ROOT
HETATM    1  C   UNL     1      -9.077   8.744  65.699  1.00  0.00    -0.191 C  
HETATM    2  O   UNL     1      -8.787   8.011  66.887  1.00  0.00    -0.125 OA 
ENDROOT
BRANCH   2   3
HETATM    3  C   UNL     1      -8.991   6.656  66.828  1.00  0.00    -0.133 A  
HETATM    4  C   UNL     1      -8.833   5.946  65.626  1.00  0.00    -0.126 A  
HETATM    5  C   UNL     1      -8.993   4.561  65.584  1.00  0.00    -0.134 A  
HETATM    6  C   UNL     1      -9.339   3.868  66.737  1.00  0.00    -0.203 A  
HETATM    7  C   UNL     1      -9.548   4.567  67.924  1.00  0.00    -0.208 A  
HETATM    8  C   UNL     1      -9.390   5.960  67.986  1.00  0.00    -0.111 A  
BRANCH   8   9
HETATM    9  O   UNL     1      -9.640   6.450  69.246  1.00  0.00    -0.138 OA 
BRANCH   9  10
HETATM   10  C   UNL     1     -10.206   5.552  70.192  1.00  0.00    -0.263 C  
BRANCH  10  11
HETATM   11  C   UNL     1     -11.531   6.117  70.734  1.00  0.00    -0.251 C  
BRANCH  11  12
HETATM   12  N   UNL     1     -11.405   6.774  72.048  1.00  0.00    -0.261 NA 
HETATM   13  H   UNL     1     -10.440   6.755  72.378  1.00  0.00     0.000 HD 
BRANCH  12  14
HETATM   14  C   UNL     1     -11.940   8.153  72.040  1.00  0.00    -0.340 C  
BRANCH  14  15
HETATM   15  C   UNL     1     -10.828   9.214  71.897  1.00  0.00    -0.283 C  
HETATM   16  O   UNL     1      -9.552   8.594  72.087  1.00  0.00    -0.287 OA 
HETATM   17  H   UNL     1      -8.868   9.248  71.999  1.00  0.00     0.000 HD 
BRANCH  15  18
HETATM   18  C   UNL     1     -10.908   9.886  70.520  1.00  0.00    -0.326 C  
BRANCH  18  19
HETATM   19  O   UNL     1     -12.232  10.331  70.248  1.00  0.00    -0.267 OA 
BRANCH  19  20
HETATM   20  C   UNL     1     -12.519  11.621  70.628  1.00  0.00    -0.295 A  
HETATM   21  C   UNL     1     -13.030  11.987  71.887  1.00  0.00    -0.428 A  
HETATM   22  C   UNL     1     -13.270  13.318  72.214  1.00  0.00    -0.567 A  
HETATM   23  C   UNL     1     -13.011  14.340  71.304  1.00  0.00    -0.422 A  
HETATM   24  C   UNL     1     -12.511  13.972  70.049  1.00  0.00    -0.281 A  
HETATM   25  C   UNL     1     -12.264  12.647  69.685  1.00  0.00    -0.177 A  
HETATM   26  C   UNL     1     -11.783  12.662  68.333  1.00  0.00    -0.377 A  
HETATM   27  C   UNL     1     -11.389  11.659  67.420  1.00  0.00    -0.367 A  
HETATM   28  C   UNL     1     -10.951  12.020  66.141  1.00  0.00    -0.343 A  
HETATM   29  C   UNL     1     -10.900  13.360  65.765  1.00  0.00    -0.283 A  
HETATM   30  C   UNL     1     -11.288  14.373  66.648  1.00  0.00    -0.359 A  
HETATM   31  C   UNL     1     -11.728  13.990  67.921  1.00  0.00    -0.362 A  
HETATM   32  N   UNL     1     -12.171  14.755  68.969  1.00  0.00    -0.564 NA 
HETATM   33  H   UNL     1     -12.241  15.773  68.951  1.00  0.00     0.000 HD 
ENDBRANCH  19  20
ENDBRANCH  18  19
ENDBRANCH  15  18
ENDBRANCH  14  15
ENDBRANCH  12  14
ENDBRANCH  11  12
ENDBRANCH  10  11
ENDBRANCH   9  10
ENDBRANCH   8   9
ENDBRANCH   2   3
TORSDOF 10
ENDMDL
MODEL      175
REMARK 921   NORMALIZED FREE ENERGY PREDICTED BY IDOCK:   -4.91 KCAL/MOL
REMARK 922        TOTAL FREE ENERGY PREDICTED BY IDOCK:   -9.63 KCAL/MOL
REMARK 923 INTER-LIGAND FREE ENERGY PREDICTED BY IDOCK:   -8.55 KCAL/MOL
REMARK 924 INTRA-LIGAND FREE ENERGY PREDICTED BY IDOCK:   -1.08 KCAL/MOL
REMARK 927      BINDING AFFINITY PREDICTED BY RF-SCORE:    0.00 PKD
ROOT
HETATM    1  C   UNL     1     -10.726  19.539  66.688  1.00  0.00    -0.445 C  
HETATM    2  O   UNL     1     -10.231  19.174  67.974  1.00  0.00    -0.363 OA 
ENDROOT
BRANCH   2   3
HETATM    3  C   UNL     1      -8.867  19.173  68.120  1.00  0.00    -0.319 A  
HETATM    4  C   UNL     1      -8.112  20.344  67.939  1.00  0.00    -0.154 A  
HETATM    5  C   UNL     1      -6.732  20.346  68.138  1.00  0.00    -0.326 A  
HETATM    6  C   UNL     1      -6.082  19.173  68.496  1.00  0.00    -0.242 A  
HETATM    7  C   UNL     1      -6.812  17.993  68.629  1.00  0.00    -0.249 A  
HETATM    8  C   UNL     1      -8.201  17.972  68.435  1.00  0.00    -0.298 A  
BRANCH   8   9
HETATM    9  O   UNL     1      -8.726  16.714  68.616  1.00  0.00    -0.230 OA 
BRANCH   9  10
HETATM   10  C   UNL     1      -7.982  15.619  68.099  1.00  0.00    -0.128 C  
BRANCH  10  11
HETATM   11  C   UNL     1      -8.709  15.007  66.889  1.00  0.00    -0.256 C  
BRANCH  11  12
HETATM   12  N   UNL     1     -10.078  14.546  67.188  1.00  0.00    -0.250 NA 
HETATM   13  H   UNL     1     -10.625  15.282  67.634  1.00  0.00     0.000 HD 
BRANCH  12  14
HETATM   14  C   UNL     1     -10.767  14.021  65.989  1.00  0.00    -0.294 C  
BRANCH  14  15
HETATM   15  C   UNL     1     -11.941  13.085  66.349  1.00  0.00    -0.402 C  
HETATM   16  O   UNL     1     -12.780  12.912  65.202  1.00  0.00    -0.587 OA 
HETATM   17  H   UNL     1     -13.503  12.336  65.424  1.00  0.00     0.000 HD 
BRANCH  15  18
HETATM   18  C   UNL     1     -11.412  11.734  66.845  1.00  0.00    -0.293 C  
BRANCH  18  19
HETATM   19  O   UNL     1     -10.687  11.887  68.061  1.00  0.00    -0.195 OA 
BRANCH  19  20
HETATM   20  C   UNL     1     -11.368  11.561  69.209  1.00  0.00    -0.288 A  
HETATM   21  C   UNL     1     -12.149  12.463  69.956  1.00  0.00    -0.335 A  
HETATM   22  C   UNL     1     -12.837  12.056  71.095  1.00  0.00    -0.331 A  
HETATM   23  C   UNL     1     -12.779  10.736  71.537  1.00  0.00    -0.536 A  
HETATM   24  C   UNL     1     -11.994   9.844  70.796  1.00  0.00    -0.323 A  
HETATM   25  C   UNL     1     -11.286  10.219  69.653  1.00  0.00    -0.315 A  
HETATM   26  C   UNL     1     -10.591   9.054  69.184  1.00  0.00    -0.219 A  
HETATM   27  C   UNL     1      -9.713   8.801  68.108  1.00  0.00    -0.177 A  
HETATM   28  C   UNL     1      -9.199   7.514  67.920  1.00  0.00    -0.137 A  
HETATM   29  C   UNL     1      -9.549   6.482  68.788  1.00  0.00    -0.126 A  
HETATM   30  C   UNL     1     -10.412   6.705  69.865  1.00  0.00    -0.247 A  
HETATM   31  C   UNL     1     -10.912   8.002  70.037  1.00  0.00    -0.202 A  
HETATM   32  N   UNL     1     -11.755   8.503  70.996  1.00  0.00    -0.283 NA 
HETATM   33  H   UNL     1     -12.152   7.954  71.759  1.00  0.00     0.000 HD 
ENDBRANCH  19  20
ENDBRANCH  18  19
ENDBRANCH  15  18
ENDBRANCH  14  15
ENDBRANCH  12  14
ENDBRANCH  11  12
ENDBRANCH  10  11
ENDBRANCH   9  10
ENDBRANCH   8   9
ENDBRANCH   2   3
TORSDOF 10
ENDMDL
MODEL      176
REMARK 921   NORMALIZED FREE ENERGY PREDICTED BY IDOCK:   -4.91 KCAL/MOL
REMARK 922        TOTAL FREE ENERGY PREDICTED BY IDOCK:   -9.62 KCAL/MOL
REMARK 923 INTER-LIGAND FREE ENERGY PREDICTED BY IDOCK:   -8.13 KCAL/MOL
REMARK 924 INTRA-LIGAND FREE ENERGY PREDICTED BY IDOCK:   -1.49 KCAL/MOL
REMARK 927      BINDING AFFINITY PREDICTED BY RF-SCORE:    0.00 PKD
ROOT
HETATM    1  C   UNL     1     -10.073  16.982  67.642  1.00  0.00    -0.298 C  
HETATM    2  O   UNL     1      -9.650  15.699  67.188  1.00  0.00    -0.215 OA 
ENDROOT
BRANCH   2   3
HETATM    3  C   UNL     1     -10.613  14.916  66.603  1.00  0.00    -0.305 A  
HETATM    4  C   UNL     1     -11.056  15.160  65.292  1.00  0.00    -0.389 A  
HETATM    5  C   UNL     1     -11.997  14.330  64.686  1.00  0.00    -0.468 A  
HETATM    6  C   UNL     1     -12.532  13.259  65.389  1.00  0.00    -0.543 A  
HETATM    7  C   UNL     1     -12.139  13.036  66.708  1.00  0.00    -0.366 A  
HETATM    8  C   UNL     1     -11.191  13.859  67.334  1.00  0.00    -0.312 A  
BRANCH   8   9
HETATM    9  O   UNL     1     -10.944  13.467  68.628  1.00  0.00    -0.244 OA 
BRANCH   9  10
HETATM   10  C   UNL     1     -11.813  13.967  69.636  1.00  0.00    -0.327 C  
BRANCH  10  11
HETATM   11  C   UNL     1     -12.345  12.811  70.500  1.00  0.00    -0.275 C  
BRANCH  11  12
HETATM   12  N   UNL     1     -11.697  11.515  70.225  1.00  0.00    -0.465 NA 
HETATM   13  H   UNL     1     -10.687  11.573  70.356  1.00  0.00     0.000 HD 
BRANCH  12  14
HETATM   14  C   UNL     1     -12.277  10.416  71.028  1.00  0.00    -0.393 C  
BRANCH  14  15
HETATM   15  C   UNL     1     -11.249   9.305  71.334  1.00  0.00    -0.362 C  
HETATM   16  O   UNL     1     -11.556   8.709  72.597  1.00  0.00    -0.315 OA 
HETATM   17  H   UNL     1     -10.923   8.025  72.786  1.00  0.00     0.000 HD 
BRANCH  15  18
HETATM   18  C   UNL     1     -11.255   8.253  70.218  1.00  0.00    -0.176 C  
BRANCH  18  19
HETATM   19  O   UNL     1      -9.947   7.737  69.997  1.00  0.00    -0.184 OA 
BRANCH  19  20
HETATM   20  C   UNL     1      -9.833   6.804  68.994  1.00  0.00    -0.149 A  
HETATM   21  C   UNL     1      -9.976   5.416  69.177  1.00  0.00    -0.267 A  
HETATM   22  C   UNL     1      -9.877   4.529  68.109  1.00  0.00    -0.152 A  
HETATM   23  C   UNL     1      -9.633   4.986  66.816  1.00  0.00    -0.164 A  
HETATM   24  C   UNL     1      -9.481   6.367  66.639  1.00  0.00    -0.161 A  
HETATM   25  C   UNL     1      -9.569   7.284  67.688  1.00  0.00    -0.160 A  
HETATM   26  C   UNL     1      -9.342   8.587  67.131  1.00  0.00    -0.191 A  
HETATM   27  C   UNL     1      -9.283   9.889  67.673  1.00  0.00    -0.146 A  
HETATM   28  C   UNL     1      -9.042  10.980  66.831  1.00  0.00    -0.165 A  
HETATM   29  C   UNL     1      -8.860  10.788  65.463  1.00  0.00    -0.203 A  
HETATM   30  C   UNL     1      -8.908   9.509  64.901  1.00  0.00    -0.240 A  
HETATM   31  C   UNL     1      -9.147   8.430  65.763  1.00  0.00    -0.139 A  
HETATM   32  N   UNL     1      -9.235   7.088  65.494  1.00  0.00    -0.357 NA 
HETATM   33  H   UNL     1      -9.130   6.678  64.565  1.00  0.00     0.000 HD 
ENDBRANCH  19  20
ENDBRANCH  18  19
ENDBRANCH  15  18
ENDBRANCH  14  15
ENDBRANCH  12  14
ENDBRANCH  11  12
ENDBRANCH  10  11
ENDBRANCH   9  10
ENDBRANCH   8   9
ENDBRANCH   2   3
TORSDOF 10
ENDMDL
MODEL      177
REMARK 921   NORMALIZED FREE ENERGY PREDICTED BY IDOCK:   -4.89 KCAL/MOL
REMARK 922        TOTAL FREE ENERGY PREDICTED BY IDOCK:   -9.59 KCAL/MOL
REMARK 923 INTER-LIGAND FREE ENERGY PREDICTED BY IDOCK:   -7.40 KCAL/MOL
REMARK 924 INTRA-LIGAND FREE ENERGY PREDICTED BY IDOCK:   -2.19 KCAL/MOL
REMARK 927      BINDING AFFINITY PREDICTED BY RF-SCORE:    0.00 PKD
ROOT
HETATM    1  C   UNL     1     -11.124  14.491  65.159  1.00  0.00    -0.370 C  
HETATM    2  O   UNL     1     -10.221  15.512  65.578  1.00  0.00    -0.339 OA 
ENDROOT
BRANCH   2   3
HETATM    3  C   UNL     1     -10.095  15.691  66.933  1.00  0.00    -0.263 A  
HETATM    4  C   UNL     1     -10.955  16.548  67.639  1.00  0.00    -0.207 A  
HETATM    5  C   UNL     1     -10.854  16.686  69.022  1.00  0.00    -0.314 A  
HETATM    6  C   UNL     1      -9.874  15.992  69.718  1.00  0.00    -0.126 A  
HETATM    7  C   UNL     1      -8.981  15.178  69.023  1.00  0.00    -0.219 A  
HETATM    8  C   UNL     1      -9.069  15.025  67.631  1.00  0.00    -0.182 A  
BRANCH   8   9
HETATM    9  O   UNL     1      -8.099  14.180  67.145  1.00  0.00    -0.182 OA 
BRANCH   9  10
HETATM   10  C   UNL     1      -6.749  14.486  67.470  1.00  0.00    -0.116 C  
BRANCH  10  11
HETATM   11  C   UNL     1      -5.930  13.191  67.609  1.00  0.00    -0.134 C  
BRANCH  11  12
HETATM   12  N   UNL     1      -6.291  12.150  66.628  1.00  0.00    -0.473 NA 
HETATM   13  H   UNL     1      -5.529  11.985  65.970  1.00  0.00     0.000 HD 
BRANCH  12  14
HETATM   14  C   UNL     1      -6.719  10.892  67.277  1.00  0.00    -0.082 C  
BRANCH  14  15
HETATM   15  C   UNL     1      -8.243  10.664  67.170  1.00  0.00    -0.121 C  
HETATM   16  O   UNL     1      -8.720  11.219  65.940  1.00  0.00    -0.222 OA 
HETATM   17  H   UNL     1      -9.658  11.079  65.874  1.00  0.00     0.000 HD 
BRANCH  15  18
HETATM   18  C   UNL     1      -8.563   9.167  67.253  1.00  0.00    -0.118 C  
BRANCH  18  19
HETATM   19  O   UNL     1      -9.957   8.955  67.451  1.00  0.00    -0.178 OA 
BRANCH  19  20
HETATM   20  C   UNL     1     -10.321   8.493  68.694  1.00  0.00    -0.198 A  
HETATM   21  C   UNL     1     -10.083   7.187  69.160  1.00  0.00    -0.183 A  
HETATM   22  C   UNL     1     -10.452   6.795  70.443  1.00  0.00    -0.236 A  
HETATM   23  C   UNL     1     -11.074   7.686  71.316  1.00  0.00    -0.268 A  
HETATM   24  C   UNL     1     -11.317   8.983  70.845  1.00  0.00    -0.293 A  
HETATM   25  C   UNL     1     -10.965   9.407  69.563  1.00  0.00    -0.193 A  
HETATM   26  C   UNL     1     -11.388  10.773  69.438  1.00  0.00    -0.351 A  
HETATM   27  C   UNL     1     -11.335  11.726  68.398  1.00  0.00    -0.328 A  
HETATM   28  C   UNL     1     -11.845  13.012  68.609  1.00  0.00    -0.353 A  
HETATM   29  C   UNL     1     -12.405  13.355  69.838  1.00  0.00    -0.259 A  
HETATM   30  C   UNL     1     -12.475  12.430  70.884  1.00  0.00    -0.367 A  
HETATM   31  C   UNL     1     -11.962  11.147  70.650  1.00  0.00    -0.360 A  
HETATM   32  N   UNL     1     -11.908  10.054  71.476  1.00  0.00    -0.364 NA 
HETATM   33  H   UNL     1     -12.259  10.037  72.434  1.00  0.00     0.000 HD 
ENDBRANCH  19  20
ENDBRANCH  18  19
ENDBRANCH  15  18
ENDBRANCH  14  15
ENDBRANCH  12  14
ENDBRANCH  11  12
ENDBRANCH  10  11
ENDBRANCH   9  10
ENDBRANCH   8   9
ENDBRANCH   2   3
TORSDOF 10
ENDMDL
MODEL      178
REMARK 921   NORMALIZED FREE ENERGY PREDICTED BY IDOCK:   -4.89 KCAL/MOL
REMARK 922        TOTAL FREE ENERGY PREDICTED BY IDOCK:   -9.59 KCAL/MOL
REMARK 923 INTER-LIGAND FREE ENERGY PREDICTED BY IDOCK:   -8.45 KCAL/MOL
REMARK 924 INTRA-LIGAND FREE ENERGY PREDICTED BY IDOCK:   -1.14 KCAL/MOL
REMARK 927      BINDING AFFINITY PREDICTED BY RF-SCORE:    0.00 PKD
ROOT
HETATM    1  C   UNL     1     -11.610  15.617  70.134  1.00  0.00    -0.354 C  
HETATM    2  O   UNL     1     -11.977  15.794  68.767  1.00  0.00    -0.374 OA 
ENDROOT
BRANCH   2   3
HETATM    3  C   UNL     1     -11.071  16.457  67.978  1.00  0.00    -0.292 A  
HETATM    4  C   UNL     1     -10.733  17.798  68.224  1.00  0.00    -0.255 A  
HETATM    5  C   UNL     1      -9.774  18.450  67.449  1.00  0.00    -0.307 A  
HETATM    6  C   UNL     1      -9.159  17.780  66.400  1.00  0.00    -0.254 A  
HETATM    7  C   UNL     1      -9.523  16.466  66.114  1.00  0.00    -0.363 A  
HETATM    8  C   UNL     1     -10.483  15.792  66.884  1.00  0.00    -0.315 A  
BRANCH   8   9
HETATM    9  O   UNL     1     -10.693  14.510  66.437  1.00  0.00    -0.299 OA 
BRANCH   9  10
HETATM   10  C   UNL     1      -9.749  13.522  66.829  1.00  0.00    -0.271 C  
BRANCH  10  11
HETATM   11  C   UNL     1     -10.216  12.821  68.116  1.00  0.00    -0.241 C  
BRANCH  11  12
HETATM   12  N   UNL     1     -11.669  12.574  68.165  1.00  0.00    -0.336 NA 
HETATM   13  H   UNL     1     -12.082  12.614  67.233  1.00  0.00     0.000 HD 
BRANCH  12  14
HETATM   14  C   UNL     1     -11.999  11.300  68.841  1.00  0.00    -0.310 C  
BRANCH  14  15
HETATM   15  C   UNL     1     -11.568  11.292  70.324  1.00  0.00    -0.275 C  
HETATM   16  O   UNL     1     -12.732  11.316  71.156  1.00  0.00    -0.384 OA 
HETATM   17  H   UNL     1     -12.466  11.311  72.069  1.00  0.00     0.000 HD 
BRANCH  15  18
HETATM   18  C   UNL     1     -10.711  10.055  70.621  1.00  0.00    -0.254 C  
BRANCH  18  19
HETATM   19  O   UNL     1     -11.468   8.861  70.460  1.00  0.00    -0.258 OA 
BRANCH  19  20
HETATM   20  C   UNL     1     -11.055   7.784  71.209  1.00  0.00    -0.246 A  
HETATM   21  C   UNL     1     -11.010   7.762  72.615  1.00  0.00    -0.422 A  
HETATM   22  C   UNL     1     -10.609   6.625  73.310  1.00  0.00    -0.316 A  
HETATM   23  C   UNL     1     -10.235   5.464  72.636  1.00  0.00    -0.225 A  
HETATM   24  C   UNL     1     -10.272   5.494  71.236  1.00  0.00    -0.222 A  
HETATM   25  C   UNL     1     -10.665   6.618  70.507  1.00  0.00    -0.293 A  
HETATM   26  C   UNL     1     -10.555   6.279  69.117  1.00  0.00    -0.325 A  
HETATM   27  C   UNL     1     -10.784   6.983  67.914  1.00  0.00    -0.274 A  
HETATM   28  C   UNL     1     -10.583   6.342  66.687  1.00  0.00    -0.268 A  
HETATM   29  C   UNL     1     -10.160   5.015  66.646  1.00  0.00    -0.276 A  
HETATM   30  C   UNL     1      -9.921   4.296  67.821  1.00  0.00    -0.066 A  
HETATM   31  C   UNL     1     -10.124   4.959  69.039  1.00  0.00    -0.140 A  
HETATM   32  N   UNL     1      -9.961   4.511  70.325  1.00  0.00    -0.233 NA 
HETATM   33  H   UNL     1      -9.650   3.571  70.573  1.00  0.00     0.000 HD 
ENDBRANCH  19  20
ENDBRANCH  18  19
ENDBRANCH  15  18
ENDBRANCH  14  15
ENDBRANCH  12  14
ENDBRANCH  11  12
ENDBRANCH  10  11
ENDBRANCH   9  10
ENDBRANCH   8   9
ENDBRANCH   2   3
TORSDOF 10
ENDMDL
MODEL      179
REMARK 921   NORMALIZED FREE ENERGY PREDICTED BY IDOCK:   -4.88 KCAL/MOL
REMARK 922        TOTAL FREE ENERGY PREDICTED BY IDOCK:   -9.58 KCAL/MOL
REMARK 923 INTER-LIGAND FREE ENERGY PREDICTED BY IDOCK:   -8.63 KCAL/MOL
REMARK 924 INTRA-LIGAND FREE ENERGY PREDICTED BY IDOCK:   -0.95 KCAL/MOL
REMARK 927      BINDING AFFINITY PREDICTED BY RF-SCORE:    0.00 PKD
ROOT
HETATM    1  C   UNL     1      -8.846  10.450  66.344  1.00  0.00    -0.147 C  
HETATM    2  O   UNL     1      -9.910  11.338  66.676  1.00  0.00    -0.198 OA 
ENDROOT
BRANCH   2   3
HETATM    3  C   UNL     1     -10.623  11.850  65.622  1.00  0.00    -0.268 A  
HETATM    4  C   UNL     1     -10.620  11.222  64.365  1.00  0.00    -0.410 A  
HETATM    5  C   UNL     1     -11.387  11.720  63.312  1.00  0.00    -0.347 A  
HETATM    6  C   UNL     1     -12.147  12.868  63.490  1.00  0.00    -0.633 A  
HETATM    7  C   UNL     1     -12.119  13.529  64.717  1.00  0.00    -0.442 A  
HETATM    8  C   UNL     1     -11.355  13.043  65.789  1.00  0.00    -0.301 A  
BRANCH   8   9
HETATM    9  O   UNL     1     -11.468  13.838  66.904  1.00  0.00    -0.319 OA 
BRANCH   9  10
HETATM   10  C   UNL     1     -12.213  13.321  67.999  1.00  0.00    -0.077 C  
BRANCH  10  11
HETATM   11  C   UNL     1     -11.677  13.892  69.323  1.00  0.00    -0.334 C  
BRANCH  11  12
HETATM   12  N   UNL     1     -11.955  13.041  70.494  1.00  0.00    -0.534 NA 
HETATM   13  H   UNL     1     -12.781  13.364  70.997  1.00  0.00     0.000 HD 
BRANCH  12  14
HETATM   14  C   UNL     1     -12.075  11.611  70.133  1.00  0.00    -0.333 C  
BRANCH  14  15
HETATM   15  C   UNL     1     -12.223  10.702  71.373  1.00  0.00    -0.302 C  
HETATM   16  O   UNL     1     -13.414  11.057  72.083  1.00  0.00    -0.551 OA 
HETATM   17  H   UNL     1     -13.505  10.498  72.845  1.00  0.00     0.000 HD 
BRANCH  15  18
HETATM   18  C   UNL     1     -12.260   9.228  70.950  1.00  0.00    -0.201 C  
BRANCH  18  19
HETATM   19  O   UNL     1     -10.945   8.689  70.872  1.00  0.00    -0.236 OA 
BRANCH  19  20
HETATM   20  C   UNL     1     -10.750   7.724  69.912  1.00  0.00    -0.245 A  
HETATM   21  C   UNL     1     -10.771   7.963  68.525  1.00  0.00    -0.069 A  
HETATM   22  C   UNL     1     -10.536   6.942  67.609  1.00  0.00    -0.290 A  
HETATM   23  C   UNL     1     -10.270   5.642  68.034  1.00  0.00    -0.234 A  
HETATM   24  C   UNL     1     -10.259   5.406  69.414  1.00  0.00    -0.264 A  
HETATM   25  C   UNL     1     -10.497   6.405  70.360  1.00  0.00    -0.269 A  
HETATM   26  C   UNL     1     -10.425   5.787  71.654  1.00  0.00    -0.286 A  
HETATM   27  C   UNL     1     -10.591   6.255  72.976  1.00  0.00    -0.263 A  
HETATM   28  C   UNL     1     -10.443   5.369  74.048  1.00  0.00    -0.317 A  
HETATM   29  C   UNL     1     -10.134   4.031  73.820  1.00  0.00    -0.185 A  
HETATM   30  C   UNL     1      -9.968   3.539  72.521  1.00  0.00    -0.230 A  
HETATM   31  C   UNL     1     -10.125   4.442  71.461  1.00  0.00    -0.151 A  
HETATM   32  N   UNL     1     -10.032   4.240  70.108  1.00  0.00    -0.200 NA 
HETATM   33  H   UNL     1      -9.822   3.341  69.672  1.00  0.00     0.000 HD 
ENDBRANCH  19  20
ENDBRANCH  18  19
ENDBRANCH  15  18
ENDBRANCH  14  15
ENDBRANCH  12  14
ENDBRANCH  11  12
ENDBRANCH  10  11
ENDBRANCH   9  10
ENDBRANCH   8   9
ENDBRANCH   2   3
TORSDOF 10
ENDMDL
MODEL      180
REMARK 921   NORMALIZED FREE ENERGY PREDICTED BY IDOCK:   -4.86 KCAL/MOL
REMARK 922        TOTAL FREE ENERGY PREDICTED BY IDOCK:   -9.55 KCAL/MOL
REMARK 923 INTER-LIGAND FREE ENERGY PREDICTED BY IDOCK:   -8.75 KCAL/MOL
REMARK 924 INTRA-LIGAND FREE ENERGY PREDICTED BY IDOCK:   -0.81 KCAL/MOL
REMARK 927      BINDING AFFINITY PREDICTED BY RF-SCORE:    0.00 PKD
ROOT
HETATM    1  C   UNL     1      -6.072  20.390  70.062  1.00  0.00    -0.301 C  
HETATM    2  O   UNL     1      -7.210  20.096  69.254  1.00  0.00    -0.181 OA 
ENDROOT
BRANCH   2   3
HETATM    3  C   UNL     1      -6.964  19.857  67.926  1.00  0.00    -0.273 A  
HETATM    4  C   UNL     1      -6.403  20.844  67.099  1.00  0.00    -0.371 A  
HETATM    5  C   UNL     1      -6.108  20.578  65.762  1.00  0.00    -0.256 A  
HETATM    6  C   UNL     1      -6.396  19.331  65.224  1.00  0.00    -0.314 A  
HETATM    7  C   UNL     1      -6.999  18.360  66.021  1.00  0.00    -0.310 A  
HETATM    8  C   UNL     1      -7.300  18.608  67.368  1.00  0.00    -0.218 A  
BRANCH   8   9
HETATM    9  O   UNL     1      -7.888  17.522  67.972  1.00  0.00    -0.212 OA 
BRANCH   9  10
HETATM   10  C   UNL     1      -7.182  16.916  69.048  1.00  0.00    -0.232 C  
BRANCH  10  11
HETATM   11  C   UNL     1      -7.316  15.385  68.975  1.00  0.00    -0.159 C  
BRANCH  11  12
HETATM   12  N   UNL     1      -8.516  14.859  69.650  1.00  0.00    -0.443 NA 
HETATM   13  H   UNL     1      -8.979  15.584  70.199  1.00  0.00     0.000 HD 
BRANCH  12  14
HETATM   14  C   UNL     1      -9.459  14.222  68.705  1.00  0.00    -0.131 C  
BRANCH  14  15
HETATM   15  C   UNL     1     -10.271  15.258  67.897  1.00  0.00    -0.235 C  
HETATM   16  O   UNL     1      -9.743  15.346  66.571  1.00  0.00    -0.244 OA 
HETATM   17  H   UNL     1     -10.242  15.983  66.073  1.00  0.00     0.000 HD 
BRANCH  15  18
HETATM   18  C   UNL     1     -11.754  14.865  67.868  1.00  0.00    -0.321 C  
BRANCH  18  19
HETATM   19  O   UNL     1     -11.911  13.499  67.500  1.00  0.00    -0.343 OA 
BRANCH  19  20
HETATM   20  C   UNL     1     -11.912  13.240  66.150  1.00  0.00    -0.418 A  
HETATM   21  C   UNL     1     -12.576  14.024  65.188  1.00  0.00    -0.453 A  
HETATM   22  C   UNL     1     -12.509  13.719  63.832  1.00  0.00    -0.260 A  
HETATM   23  C   UNL     1     -11.779  12.622  63.376  1.00  0.00    -0.571 A  
HETATM   24  C   UNL     1     -11.128  11.840  64.337  1.00  0.00    -0.334 A  
HETATM   25  C   UNL     1     -11.178  12.113  65.705  1.00  0.00    -0.384 A  
HETATM   26  C   UNL     1     -10.416  11.094  66.368  1.00  0.00    -0.311 A  
HETATM   27  C   UNL     1     -10.115  10.816  67.720  1.00  0.00    -0.201 A  
HETATM   28  C   UNL     1      -9.316   9.713  68.039  1.00  0.00    -0.142 A  
HETATM   29  C   UNL     1      -8.815   8.890  67.033  1.00  0.00    -0.138 A  
HETATM   30  C   UNL     1      -9.101   9.139  65.687  1.00  0.00    -0.273 A  
HETATM   31  C   UNL     1      -9.907  10.246  65.390  1.00  0.00    -0.296 A  
HETATM   32  N   UNL     1     -10.350  10.716  64.179  1.00  0.00    -0.424 NA 
HETATM   33  H   UNL     1     -10.131  10.287  63.279  1.00  0.00     0.000 HD 
ENDBRANCH  19  20
ENDBRANCH  18  19
ENDBRANCH  15  18
ENDBRANCH  14  15
ENDBRANCH  12  14
ENDBRANCH  11  12
ENDBRANCH  10  11
ENDBRANCH   9  10
ENDBRANCH   8   9
ENDBRANCH   2   3
TORSDOF 10
ENDMDL
MODEL      181
REMARK 921   NORMALIZED FREE ENERGY PREDICTED BY IDOCK:   -4.86 KCAL/MOL
REMARK 922        TOTAL FREE ENERGY PREDICTED BY IDOCK:   -9.55 KCAL/MOL
REMARK 923 INTER-LIGAND FREE ENERGY PREDICTED BY IDOCK:   -8.25 KCAL/MOL
REMARK 924 INTRA-LIGAND FREE ENERGY PREDICTED BY IDOCK:   -1.30 KCAL/MOL
REMARK 927      BINDING AFFINITY PREDICTED BY RF-SCORE:    0.00 PKD
ROOT
HETATM    1  C   UNL     1      -6.641   8.985  64.036  1.00  0.00    -0.087 C  
HETATM    2  O   UNL     1      -7.962   8.874  64.560  1.00  0.00    -0.119 OA 
ENDROOT
BRANCH   2   3
HETATM    3  C   UNL     1      -8.069   8.369  65.832  1.00  0.00    -0.110 A  
HETATM    4  C   UNL     1      -8.307   7.003  66.057  1.00  0.00    -0.134 A  
HETATM    5  C   UNL     1      -8.363   6.488  67.352  1.00  0.00    -0.120 A  
HETATM    6  C   UNL     1      -8.210   7.335  68.441  1.00  0.00    -0.125 A  
HETATM    7  C   UNL     1      -8.024   8.700  68.232  1.00  0.00    -0.110 A  
HETATM    8  C   UNL     1      -7.962   9.236  66.937  1.00  0.00    -0.105 A  
BRANCH   8   9
HETATM    9  O   UNL     1      -7.772  10.597  66.952  1.00  0.00    -0.112 OA 
BRANCH   9  10
HETATM   10  C   UNL     1      -8.326  11.319  68.045  1.00  0.00    -0.136 C  
BRANCH  10  11
HETATM   11  C   UNL     1      -9.406  12.293  67.544  1.00  0.00    -0.183 C  
BRANCH  11  12
HETATM   12  N   UNL     1      -9.562  12.307  66.078  1.00  0.00    -0.279 NA 
HETATM   13  H   UNL     1      -8.821  11.775  65.623  1.00  0.00     0.000 HD 
BRANCH  12  14
HETATM   14  C   UNL     1     -10.897  11.835  65.651  1.00  0.00    -0.292 C  
BRANCH  14  15
HETATM   15  C   UNL     1     -11.549  12.775  64.613  1.00  0.00    -0.338 C  
HETATM   16  O   UNL     1     -12.963  12.560  64.600  1.00  0.00    -0.803 OA 
HETATM   17  H   UNL     1     -13.364  13.139  63.961  1.00  0.00     0.000 HD 
BRANCH  15  18
HETATM   18  C   UNL     1     -11.223  14.237  64.941  1.00  0.00    -0.379 C  
BRANCH  18  19
HETATM   19  O   UNL     1     -11.455  14.513  66.319  1.00  0.00    -0.347 OA 
BRANCH  19  20
HETATM   20  C   UNL     1     -10.958  15.708  66.781  1.00  0.00    -0.230 A  
HETATM   21  C   UNL     1     -10.365  16.693  65.970  1.00  0.00    -0.352 A  
HETATM   22  C   UNL     1      -9.910  17.895  66.503  1.00  0.00    -0.343 A  
HETATM   23  C   UNL     1     -10.025  18.168  67.864  1.00  0.00    -0.340 A  
HETATM   24  C   UNL     1     -10.608  17.181  68.670  1.00  0.00    -0.352 A  
HETATM   25  C   UNL     1     -11.070  15.963  68.170  1.00  0.00    -0.338 A  
HETATM   26  C   UNL     1     -11.576  15.213  69.284  1.00  0.00    -0.344 A  
HETATM   27  C   UNL     1     -12.145  13.929  69.426  1.00  0.00    -0.384 A  
HETATM   28  C   UNL     1     -12.552  13.486  70.689  1.00  0.00    -0.345 A  
HETATM   29  C   UNL     1     -12.399  14.305  71.806  1.00  0.00    -0.362 A  
HETATM   30  C   UNL     1     -11.834  15.579  71.695  1.00  0.00    -0.486 A  
HETATM   31  C   UNL     1     -11.429  16.000  70.422  1.00  0.00    -0.377 A  
HETATM   32  N   UNL     1     -10.845  17.176  70.026  1.00  0.00    -0.214 NA 
HETATM   33  H   UNL     1     -10.616  17.947  70.654  1.00  0.00     0.000 HD 
ENDBRANCH  19  20
ENDBRANCH  18  19
ENDBRANCH  15  18
ENDBRANCH  14  15
ENDBRANCH  12  14
ENDBRANCH  11  12
ENDBRANCH  10  11
ENDBRANCH   9  10
ENDBRANCH   8   9
ENDBRANCH   2   3
TORSDOF 10
ENDMDL
MODEL      182
REMARK 921   NORMALIZED FREE ENERGY PREDICTED BY IDOCK:   -4.86 KCAL/MOL
REMARK 922        TOTAL FREE ENERGY PREDICTED BY IDOCK:   -9.54 KCAL/MOL
REMARK 923 INTER-LIGAND FREE ENERGY PREDICTED BY IDOCK:   -8.63 KCAL/MOL
REMARK 924 INTRA-LIGAND FREE ENERGY PREDICTED BY IDOCK:   -0.92 KCAL/MOL
REMARK 927      BINDING AFFINITY PREDICTED BY RF-SCORE:    0.00 PKD
ROOT
HETATM    1  C   UNL     1      -7.628   8.326  68.215  1.00  0.00    -0.101 C  
HETATM    2  O   UNL     1      -7.616   9.595  67.564  1.00  0.00    -0.094 OA 
ENDROOT
BRANCH   2   3
HETATM    3  C   UNL     1      -7.156   9.608  66.272  1.00  0.00    -0.093 A  
HETATM    4  C   UNL     1      -6.011   8.886  65.897  1.00  0.00    -0.051 A  
HETATM    5  C   UNL     1      -5.579   8.863  64.571  1.00  0.00    -0.063 A  
HETATM    6  C   UNL     1      -6.268   9.583  63.605  1.00  0.00    -0.098 A  
HETATM    7  C   UNL     1      -7.376  10.345  63.973  1.00  0.00     0.013 A  
HETATM    8  C   UNL     1      -7.827  10.378  65.301  1.00  0.00    -0.137 A  
BRANCH   8   9
HETATM    9  O   UNL     1      -8.930  11.185  65.450  1.00  0.00    -0.195 OA 
BRANCH   9  10
HETATM   10  C   UNL     1     -10.203  10.595  65.217  1.00  0.00    -0.282 C  
BRANCH  10  11
HETATM   11  C   UNL     1     -11.176  10.969  66.348  1.00  0.00     0.033 C  
BRANCH  11  12
HETATM   12  N   UNL     1     -11.732  12.329  66.230  1.00  0.00    -0.511 NA 
HETATM   13  H   UNL     1     -11.019  13.036  66.413  1.00  0.00     0.000 HD 
BRANCH  12  14
HETATM   14  C   UNL     1     -12.387  12.557  64.923  1.00  0.00    -0.470 C  
BRANCH  14  15
HETATM   15  C   UNL     1     -11.671  13.640  64.088  1.00  0.00    -0.386 C  
HETATM   16  O   UNL     1     -12.631  14.594  63.622  1.00  0.00    -1.017 OA 
HETATM   17  H   UNL     1     -12.190  15.260  63.108  1.00  0.00     0.000 HD 
BRANCH  15  18
HETATM   18  C   UNL     1     -10.584  14.326  64.926  1.00  0.00    -0.431 C  
BRANCH  18  19
HETATM   19  O   UNL     1     -11.103  14.749  66.183  1.00  0.00    -0.330 OA 
BRANCH  19  20
HETATM   20  C   UNL     1     -10.596  15.929  66.673  1.00  0.00    -0.305 A  
HETATM   21  C   UNL     1      -9.950  16.905  65.891  1.00  0.00    -0.274 A  
HETATM   22  C   UNL     1      -9.487  18.092  66.450  1.00  0.00    -0.284 A  
HETATM   23  C   UNL     1      -9.649  18.360  67.808  1.00  0.00    -0.300 A  
HETATM   24  C   UNL     1     -10.285  17.382  68.584  1.00  0.00    -0.361 A  
HETATM   25  C   UNL     1     -10.756  16.178  68.058  1.00  0.00    -0.321 A  
HETATM   26  C   UNL     1     -11.321  15.433  69.146  1.00  0.00    -0.323 A  
HETATM   27  C   UNL     1     -11.925  14.162  69.257  1.00  0.00    -0.382 A  
HETATM   28  C   UNL     1     -12.391  13.722  70.501  1.00  0.00    -0.429 A  
HETATM   29  C   UNL     1     -12.262  14.529  71.628  1.00  0.00    -0.403 A  
HETATM   30  C   UNL     1     -11.664  15.791  71.548  1.00  0.00    -0.523 A  
HETATM   31  C   UNL     1     -11.200  16.210  70.294  1.00  0.00    -0.381 A  
HETATM   32  N   UNL     1     -10.574  17.375  69.929  1.00  0.00    -0.127 NA 
HETATM   33  H   UNL     1     -10.352  18.136  70.571  1.00  0.00     0.000 HD 
ENDBRANCH  19  20
ENDBRANCH  18  19
ENDBRANCH  15  18
ENDBRANCH  14  15
ENDBRANCH  12  14
ENDBRANCH  11  12
ENDBRANCH  10  11
ENDBRANCH   9  10
ENDBRANCH   8   9
ENDBRANCH   2   3
TORSDOF 10
ENDMDL
MODEL      183
REMARK 921   NORMALIZED FREE ENERGY PREDICTED BY IDOCK:   -4.85 KCAL/MOL
REMARK 922        TOTAL FREE ENERGY PREDICTED BY IDOCK:   -9.53 KCAL/MOL
REMARK 923 INTER-LIGAND FREE ENERGY PREDICTED BY IDOCK:   -7.94 KCAL/MOL
REMARK 924 INTRA-LIGAND FREE ENERGY PREDICTED BY IDOCK:   -1.58 KCAL/MOL
REMARK 927      BINDING AFFINITY PREDICTED BY RF-SCORE:    0.00 PKD
ROOT
HETATM    1  C   UNL     1      -9.165   2.720  69.800  1.00  0.00    -0.135 C  
HETATM    2  O   UNL     1      -9.577   2.633  68.438  1.00  0.00    -0.185 OA 
ENDROOT
BRANCH   2   3
HETATM    3  C   UNL     1      -8.843   3.359  67.535  1.00  0.00    -0.130 A  
HETATM    4  C   UNL     1      -7.507   3.033  67.251  1.00  0.00    -0.066 A  
HETATM    5  C   UNL     1      -6.782   3.744  66.294  1.00  0.00    -0.049 A  
HETATM    6  C   UNL     1      -7.373   4.808  65.628  1.00  0.00    -0.077 A  
HETATM    7  C   UNL     1      -8.682   5.174  65.937  1.00  0.00    -0.135 A  
HETATM    8  C   UNL     1      -9.427   4.469  66.894  1.00  0.00    -0.175 A  
BRANCH   8   9
HETATM    9  O   UNL     1     -10.691   4.989  67.047  1.00  0.00    -0.158 OA 
BRANCH   9  10
HETATM   10  C   UNL     1     -10.793   6.381  67.317  1.00  0.00    -0.385 C  
BRANCH  10  11
HETATM   11  C   UNL     1     -10.775   6.631  68.834  1.00  0.00    -0.264 C  
BRANCH  11  12
HETATM   12  N   UNL     1     -11.050   8.030  69.211  1.00  0.00    -0.435 NA 
HETATM   13  H   UNL     1     -12.013   8.145  69.525  1.00  0.00     0.000 HD 
BRANCH  12  14
HETATM   14  C   UNL     1     -10.095   8.537  70.221  1.00  0.00    -0.186 C  
BRANCH  14  15
HETATM   15  C   UNL     1      -9.352   9.804  69.744  1.00  0.00    -0.226 C  
HETATM   16  O   UNL     1      -8.231  10.048  70.598  1.00  0.00    -0.400 OA 
HETATM   17  H   UNL     1      -7.774  10.827  70.305  1.00  0.00     0.000 HD 
BRANCH  15  18
HETATM   18  C   UNL     1      -8.901   9.639  68.287  1.00  0.00    -0.120 C  
BRANCH  18  19
HETATM   19  O   UNL     1      -9.934  10.028  67.387  1.00  0.00    -0.180 OA 
BRANCH  19  20
HETATM   20  C   UNL     1      -9.633   9.922  66.050  1.00  0.00    -0.225 A  
HETATM   21  C   UNL     1      -8.788   8.942  65.498  1.00  0.00    -0.238 A  
HETATM   22  C   UNL     1      -8.552   8.876  64.128  1.00  0.00    -0.128 A  
HETATM   23  C   UNL     1      -9.147   9.781  63.251  1.00  0.00    -0.267 A  
HETATM   24  C   UNL     1      -9.980  10.760  63.806  1.00  0.00    -0.351 A  
HETATM   25  C   UNL     1     -10.234  10.859  65.175  1.00  0.00    -0.360 A  
HETATM   26  C   UNL     1     -11.106  11.984  65.362  1.00  0.00    -0.369 A  
HETATM   27  C   UNL     1     -11.690  12.595  66.493  1.00  0.00    -0.463 A  
HETATM   28  C   UNL     1     -12.523  13.707  66.328  1.00  0.00    -0.420 A  
HETATM   29  C   UNL     1     -12.778  14.214  65.056  1.00  0.00    -0.336 A  
HETATM   30  C   UNL     1     -12.209  13.631  63.919  1.00  0.00    -0.429 A  
HETATM   31  C   UNL     1     -11.375  12.521  64.108  1.00  0.00    -0.380 A  
HETATM   32  N   UNL     1     -10.686  11.769  63.191  1.00  0.00    -0.676 NA 
HETATM   33  H   UNL     1     -10.696  11.935  62.184  1.00  0.00     0.000 HD 
ENDBRANCH  19  20
ENDBRANCH  18  19
ENDBRANCH  15  18
ENDBRANCH  14  15
ENDBRANCH  12  14
ENDBRANCH  11  12
ENDBRANCH  10  11
ENDBRANCH   9  10
ENDBRANCH   8   9
ENDBRANCH   2   3
TORSDOF 10
ENDMDL
MODEL      184
REMARK 921   NORMALIZED FREE ENERGY PREDICTED BY IDOCK:   -4.83 KCAL/MOL
REMARK 922        TOTAL FREE ENERGY PREDICTED BY IDOCK:   -9.51 KCAL/MOL
REMARK 923 INTER-LIGAND FREE ENERGY PREDICTED BY IDOCK:   -8.56 KCAL/MOL
REMARK 924 INTRA-LIGAND FREE ENERGY PREDICTED BY IDOCK:   -0.95 KCAL/MOL
REMARK 927      BINDING AFFINITY PREDICTED BY RF-SCORE:    0.00 PKD
ROOT
HETATM    1  C   UNL     1      -9.564  19.443  69.078  1.00  0.00    -0.370 C  
HETATM    2  O   UNL     1      -9.662  18.786  67.816  1.00  0.00    -0.302 OA 
ENDROOT
BRANCH   2   3
HETATM    3  C   UNL     1      -8.551  18.850  67.013  1.00  0.00    -0.289 A  
HETATM    4  C   UNL     1      -8.390  19.880  66.071  1.00  0.00    -0.298 A  
HETATM    5  C   UNL     1      -7.235  19.968  65.294  1.00  0.00    -0.176 A  
HETATM    6  C   UNL     1      -6.237  19.012  65.426  1.00  0.00    -0.300 A  
HETATM    7  C   UNL     1      -6.407  17.957  66.320  1.00  0.00    -0.267 A  
HETATM    8  C   UNL     1      -7.561  17.853  67.112  1.00  0.00    -0.201 A  
BRANCH   8   9
HETATM    9  O   UNL     1      -7.529  16.745  67.924  1.00  0.00    -0.154 OA 
BRANCH   9  10
HETATM   10  C   UNL     1      -7.827  15.491  67.324  1.00  0.00    -0.204 C  
BRANCH  10  11
HETATM   11  C   UNL     1      -6.702  14.482  67.614  1.00  0.00    -0.173 C  
BRANCH  11  12
HETATM   12  N   UNL     1      -7.158  13.266  68.313  1.00  0.00    -0.096 NA 
HETATM   13  H   UNL     1      -8.109  13.378  68.664  1.00  0.00     0.000 HD 
BRANCH  12  14
HETATM   14  C   UNL     1      -7.038  12.056  67.471  1.00  0.00    -0.129 C  
BRANCH  14  15
HETATM   15  C   UNL     1      -8.250  11.111  67.624  1.00  0.00    -0.118 C  
HETATM   16  O   UNL     1      -7.786   9.783  67.888  1.00  0.00    -0.087 OA 
HETATM   17  H   UNL     1      -8.532   9.202  67.982  1.00  0.00     0.000 HD 
BRANCH  15  18
HETATM   18  C   UNL     1      -9.167  11.602  68.751  1.00  0.00    -0.033 C  
BRANCH  18  19
HETATM   19  O   UNL     1     -10.515  11.207  68.517  1.00  0.00    -0.175 OA 
BRANCH  19  20
HETATM   20  C   UNL     1     -11.090  10.431  69.496  1.00  0.00    -0.264 A  
HETATM   21  C   UNL     1     -10.906   9.041  69.622  1.00  0.00    -0.196 A  
HETATM   22  C   UNL     1     -11.496   8.322  70.656  1.00  0.00    -0.236 A  
HETATM   23  C   UNL     1     -12.292   8.954  71.610  1.00  0.00    -0.405 A  
HETATM   24  C   UNL     1     -12.480  10.336  71.475  1.00  0.00    -0.422 A  
HETATM   25  C   UNL     1     -11.908  11.087  70.447  1.00  0.00    -0.460 A  
HETATM   26  C   UNL     1     -12.338  12.445  70.626  1.00  0.00    -0.367 A  
HETATM   27  C   UNL     1     -12.119  13.645  69.916  1.00  0.00    -0.406 A  
HETATM   28  C   UNL     1     -12.695  14.835  70.372  1.00  0.00    -0.368 A  
HETATM   29  C   UNL     1     -13.482  14.842  71.522  1.00  0.00    -0.491 A  
HETATM   30  C   UNL     1     -13.719  13.667  72.242  1.00  0.00    -0.687 A  
HETATM   31  C   UNL     1     -13.136  12.486  71.765  1.00  0.00    -0.347 A  
HETATM   32  N   UNL     1     -13.206  11.207  72.255  1.00  0.00    -0.534 NA 
HETATM   33  H   UNL     1     -13.728  10.937  73.089  1.00  0.00     0.000 HD 
ENDBRANCH  19  20
ENDBRANCH  18  19
ENDBRANCH  15  18
ENDBRANCH  14  15
ENDBRANCH  12  14
ENDBRANCH  11  12
ENDBRANCH  10  11
ENDBRANCH   9  10
ENDBRANCH   8   9
ENDBRANCH   2   3
TORSDOF 10
ENDMDL
MODEL      185
REMARK 921   NORMALIZED FREE ENERGY PREDICTED BY IDOCK:   -4.83 KCAL/MOL
REMARK 922        TOTAL FREE ENERGY PREDICTED BY IDOCK:   -9.50 KCAL/MOL
REMARK 923 INTER-LIGAND FREE ENERGY PREDICTED BY IDOCK:   -7.97 KCAL/MOL
REMARK 924 INTRA-LIGAND FREE ENERGY PREDICTED BY IDOCK:   -1.53 KCAL/MOL
REMARK 927      BINDING AFFINITY PREDICTED BY RF-SCORE:    0.00 PKD
ROOT
HETATM    1  C   UNL     1      -6.757   6.913  70.800  1.00  0.00    -0.054 C  
HETATM    2  O   UNL     1      -8.064   7.478  70.879  1.00  0.00    -0.101 OA 
ENDROOT
BRANCH   2   3
HETATM    3  C   UNL     1      -9.008   6.730  71.536  1.00  0.00    -0.137 A  
HETATM    4  C   UNL     1      -8.684   5.494  72.118  1.00  0.00    -0.130 A  
HETATM    5  C   UNL     1      -9.636   4.763  72.828  1.00  0.00    -0.160 A  
HETATM    6  C   UNL     1     -10.934   5.244  72.943  1.00  0.00    -0.343 A  
HETATM    7  C   UNL     1     -11.281   6.444  72.326  1.00  0.00    -0.314 A  
HETATM    8  C   UNL     1     -10.336   7.194  71.611  1.00  0.00    -0.197 A  
BRANCH   8   9
HETATM    9  O   UNL     1     -10.881   8.342  71.086  1.00  0.00    -0.224 OA 
BRANCH   9  10
HETATM   10  C   UNL     1     -12.241   8.618  71.398  1.00  0.00    -0.304 C  
BRANCH  10  11
HETATM   11  C   UNL     1     -12.552  10.104  71.152  1.00  0.00    -0.386 C  
BRANCH  11  12
HETATM   12  N   UNL     1     -12.208  10.567  69.795  1.00  0.00    -0.512 NA 
HETATM   13  H   UNL     1     -12.727  10.050  69.086  1.00  0.00     0.000 HD 
BRANCH  12  14
HETATM   14  C   UNL     1     -12.395  12.026  69.636  1.00  0.00    -0.021 C  
BRANCH  14  15
HETATM   15  C   UNL     1     -11.197  12.699  68.931  1.00  0.00    -0.280 C  
HETATM   16  O   UNL     1     -10.032  11.884  69.092  1.00  0.00    -0.415 OA 
HETATM   17  H   UNL     1      -9.295  12.298  68.658  1.00  0.00     0.000 HD 
BRANCH  15  18
HETATM   18  C   UNL     1     -11.509  12.916  67.445  1.00  0.00    -0.336 C  
BRANCH  18  19
HETATM   19  O   UNL     1     -11.706  11.672  66.780  1.00  0.00    -0.541 OA 
BRANCH  19  20
HETATM   20  C   UNL     1     -11.109  11.551  65.548  1.00  0.00    -0.191 A  
HETATM   21  C   UNL     1     -11.260  12.471  64.494  1.00  0.00    -0.370 A  
HETATM   22  C   UNL     1     -10.600  12.300  63.281  1.00  0.00    -0.312 A  
HETATM   23  C   UNL     1      -9.761  11.208  63.066  1.00  0.00    -0.384 A  
HETATM   24  C   UNL     1      -9.620  10.290  64.114  1.00  0.00    -0.315 A  
HETATM   25  C   UNL     1     -10.272  10.427  65.341  1.00  0.00    -0.329 A  
HETATM   26  C   UNL     1      -9.903   9.297  66.144  1.00  0.00    -0.363 A  
HETATM   27  C   UNL     1     -10.242   8.864  67.445  1.00  0.00    -0.313 A  
HETATM   28  C   UNL     1      -9.687   7.683  67.949  1.00  0.00    -0.174 A  
HETATM   29  C   UNL     1      -8.803   6.933  67.177  1.00  0.00    -0.120 A  
HETATM   30  C   UNL     1      -8.454   7.335  65.884  1.00  0.00    -0.148 A  
HETATM   31  C   UNL     1      -9.024   8.519  65.397  1.00  0.00    -0.099 A  
HETATM   32  N   UNL     1      -8.872   9.137  64.182  1.00  0.00    -0.394 NA 
HETATM   33  H   UNL     1      -8.281   8.787  63.427  1.00  0.00     0.000 HD 
ENDBRANCH  19  20
ENDBRANCH  18  19
ENDBRANCH  15  18
ENDBRANCH  14  15
ENDBRANCH  12  14
ENDBRANCH  11  12
ENDBRANCH  10  11
ENDBRANCH   9  10
ENDBRANCH   8   9
ENDBRANCH   2   3
TORSDOF 10
ENDMDL
MODEL      186
REMARK 921   NORMALIZED FREE ENERGY PREDICTED BY IDOCK:   -4.83 KCAL/MOL
REMARK 922        TOTAL FREE ENERGY PREDICTED BY IDOCK:   -9.50 KCAL/MOL
REMARK 923 INTER-LIGAND FREE ENERGY PREDICTED BY IDOCK:   -8.57 KCAL/MOL
REMARK 924 INTRA-LIGAND FREE ENERGY PREDICTED BY IDOCK:   -0.92 KCAL/MOL
REMARK 927      BINDING AFFINITY PREDICTED BY RF-SCORE:    0.00 PKD
ROOT
HETATM    1  C   UNL     1      -9.206   3.988  72.052  1.00  0.00    -0.124 C  
HETATM    2  O   UNL     1     -10.445   4.553  71.628  1.00  0.00    -0.134 OA 
ENDROOT
BRANCH   2   3
HETATM    3  C   UNL     1     -10.532   5.921  71.668  1.00  0.00    -0.233 A  
HETATM    4  C   UNL     1     -10.185   6.641  72.823  1.00  0.00    -0.208 A  
HETATM    5  C   UNL     1     -10.227   8.035  72.840  1.00  0.00    -0.384 A  
HETATM    6  C   UNL     1     -10.643   8.729  71.712  1.00  0.00    -0.417 A  
HETATM    7  C   UNL     1     -11.039   8.025  70.576  1.00  0.00    -0.251 A  
HETATM    8  C   UNL     1     -11.000   6.623  70.539  1.00  0.00    -0.286 A  
BRANCH   8   9
HETATM    9  O   UNL     1     -11.428   6.129  69.330  1.00  0.00    -0.423 OA 
BRANCH   9  10
HETATM   10  C   UNL     1     -10.461   6.020  68.293  1.00  0.00    -0.235 C  
BRANCH  10  11
HETATM   11  C   UNL     1     -11.005   6.636  66.993  1.00  0.00    -0.393 C  
BRANCH  11  12
HETATM   12  N   UNL     1     -10.583   8.032  66.773  1.00  0.00    -0.396 NA 
HETATM   13  H   UNL     1     -10.933   8.644  67.510  1.00  0.00     0.000 HD 
BRANCH  12  14
HETATM   14  C   UNL     1      -9.116   8.158  66.626  1.00  0.00    -0.165 C  
BRANCH  14  15
HETATM   15  C   UNL     1      -8.718   8.949  65.361  1.00  0.00    -0.191 C  
HETATM   16  O   UNL     1      -8.415   8.034  64.304  1.00  0.00    -0.369 OA 
HETATM   17  H   UNL     1      -8.170   8.521  63.525  1.00  0.00     0.000 HD 
BRANCH  15  18
HETATM   18  C   UNL     1      -9.850   9.900  64.951  1.00  0.00    -0.212 C  
BRANCH  18  19
HETATM   19  O   UNL     1      -9.718  11.159  65.602  1.00  0.00    -0.205 OA 
BRANCH  19  20
HETATM   20  C   UNL     1     -10.467  12.185  65.078  1.00  0.00    -0.290 A  
HETATM   21  C   UNL     1     -11.401  12.039  64.036  1.00  0.00    -0.478 A  
HETATM   22  C   UNL     1     -12.147  13.118  63.573  1.00  0.00    -0.585 A  
HETATM   23  C   UNL     1     -11.996  14.388  64.128  1.00  0.00    -0.373 A  
HETATM   24  C   UNL     1     -11.059  14.531  65.159  1.00  0.00    -0.370 A  
HETATM   25  C   UNL     1     -10.290  13.472  65.643  1.00  0.00    -0.303 A  
HETATM   26  C   UNL     1      -9.439  14.001  66.670  1.00  0.00    -0.300 A  
HETATM   27  C   UNL     1      -8.444  13.446  67.504  1.00  0.00    -0.192 A  
HETATM   28  C   UNL     1      -7.786  14.259  68.434  1.00  0.00    -0.140 A  
HETATM   29  C   UNL     1      -8.108  15.610  68.542  1.00  0.00    -0.147 A  
HETATM   30  C   UNL     1      -9.086  16.187  67.726  1.00  0.00    -0.197 A  
HETATM   31  C   UNL     1      -9.729  15.356  66.798  1.00  0.00    -0.240 A  
HETATM   32  N   UNL     1     -10.704  15.649  65.879  1.00  0.00    -0.331 NA 
HETATM   33  H   UNL     1     -11.113  16.574  65.747  1.00  0.00     0.000 HD 
ENDBRANCH  19  20
ENDBRANCH  18  19
ENDBRANCH  15  18
ENDBRANCH  14  15
ENDBRANCH  12  14
ENDBRANCH  11  12
ENDBRANCH  10  11
ENDBRANCH   9  10
ENDBRANCH   8   9
ENDBRANCH   2   3
TORSDOF 10
ENDMDL
MODEL      187
REMARK 921   NORMALIZED FREE ENERGY PREDICTED BY IDOCK:   -4.83 KCAL/MOL
REMARK 922        TOTAL FREE ENERGY PREDICTED BY IDOCK:   -9.49 KCAL/MOL
REMARK 923 INTER-LIGAND FREE ENERGY PREDICTED BY IDOCK:   -8.10 KCAL/MOL
REMARK 924 INTRA-LIGAND FREE ENERGY PREDICTED BY IDOCK:   -1.40 KCAL/MOL
REMARK 927      BINDING AFFINITY PREDICTED BY RF-SCORE:    0.00 PKD
ROOT
HETATM    1  C   UNL     1     -10.295   5.243  67.921  1.00  0.00    -0.125 C  
HETATM    2  O   UNL     1     -11.022   5.903  68.955  1.00  0.00    -0.314 OA 
ENDROOT
BRANCH   2   3
HETATM    3  C   UNL     1     -10.570   5.704  70.235  1.00  0.00    -0.300 A  
HETATM    4  C   UNL     1      -9.869   4.539  70.588  1.00  0.00    -0.292 A  
HETATM    5  C   UNL     1      -9.369   4.366  71.878  1.00  0.00    -0.190 A  
HETATM    6  C   UNL     1      -9.585   5.342  72.842  1.00  0.00    -0.160 A  
HETATM    7  C   UNL     1     -10.323   6.479  72.518  1.00  0.00    -0.216 A  
HETATM    8  C   UNL     1     -10.832   6.671  71.225  1.00  0.00    -0.238 A  
BRANCH   8   9
HETATM    9  O   UNL     1     -11.525   7.854  71.115  1.00  0.00    -0.266 OA 
BRANCH   9  10
HETATM   10  C   UNL     1     -10.768   9.057  71.152  1.00  0.00    -0.288 C  
BRANCH  10  11
HETATM   11  C   UNL     1     -11.089   9.925  69.924  1.00  0.00    -0.275 C  
BRANCH  11  12
HETATM   12  N   UNL     1     -10.898   9.230  68.637  1.00  0.00    -0.419 NA 
HETATM   13  H   UNL     1     -11.263   9.783  67.862  1.00  0.00     0.000 HD 
BRANCH  12  14
HETATM   14  C   UNL     1      -9.486   8.855  68.407  1.00  0.00    -0.140 C  
BRANCH  14  15
HETATM   15  C   UNL     1      -8.568  10.087  68.247  1.00  0.00    -0.115 C  
HETATM   16  O   UNL     1      -7.222   9.652  68.034  1.00  0.00    -0.079 OA 
HETATM   17  H   UNL     1      -6.657  10.410  67.935  1.00  0.00     0.000 HD 
BRANCH  15  18
HETATM   18  C   UNL     1      -9.050  10.960  67.082  1.00  0.00    -0.145 C  
BRANCH  18  19
HETATM   19  O   UNL     1      -9.880  12.019  67.549  1.00  0.00    -0.183 OA 
BRANCH  19  20
HETATM   20  C   UNL     1     -10.582  12.699  66.582  1.00  0.00    -0.248 A  
HETATM   21  C   UNL     1     -11.722  12.201  65.926  1.00  0.00    -0.393 A  
HETATM   22  C   UNL     1     -12.402  12.958  64.977  1.00  0.00    -0.541 A  
HETATM   23  C   UNL     1     -11.977  14.243  64.642  1.00  0.00    -0.468 A  
HETATM   24  C   UNL     1     -10.836  14.731  65.291  1.00  0.00    -0.383 A  
HETATM   25  C   UNL     1     -10.127  13.997  66.243  1.00  0.00    -0.307 A  
HETATM   26  C   UNL     1      -9.020  14.808  66.664  1.00  0.00    -0.286 A  
HETATM   27  C   UNL     1      -7.954  14.620  67.571  1.00  0.00    -0.208 A  
HETATM   28  C   UNL     1      -7.019  15.642  67.762  1.00  0.00    -0.179 A  
HETATM   29  C   UNL     1      -7.133  16.843  67.065  1.00  0.00    -0.234 A  
HETATM   30  C   UNL     1      -8.176  17.054  66.158  1.00  0.00    -0.284 A  
HETATM   31  C   UNL     1      -9.100  16.016  65.978  1.00  0.00    -0.326 A  
HETATM   32  N   UNL     1     -10.198  15.943  65.160  1.00  0.00    -0.495 NA 
HETATM   33  H   UNL     1     -10.502  16.690  64.535  1.00  0.00     0.000 HD 
ENDBRANCH  19  20
ENDBRANCH  18  19
ENDBRANCH  15  18
ENDBRANCH  14  15
ENDBRANCH  12  14
ENDBRANCH  11  12
ENDBRANCH  10  11
ENDBRANCH   9  10
ENDBRANCH   8   9
ENDBRANCH   2   3
TORSDOF 10
ENDMDL
MODEL      188
REMARK 921   NORMALIZED FREE ENERGY PREDICTED BY IDOCK:   -4.81 KCAL/MOL
REMARK 922        TOTAL FREE ENERGY PREDICTED BY IDOCK:   -9.46 KCAL/MOL
REMARK 923 INTER-LIGAND FREE ENERGY PREDICTED BY IDOCK:   -7.99 KCAL/MOL
REMARK 924 INTRA-LIGAND FREE ENERGY PREDICTED BY IDOCK:   -1.48 KCAL/MOL
REMARK 927      BINDING AFFINITY PREDICTED BY RF-SCORE:    0.00 PKD
ROOT
HETATM    1  C   UNL     1     -11.000  13.019  65.023  1.00  0.00    -0.298 C  
HETATM    2  O   UNL     1      -9.868  13.536  65.720  1.00  0.00    -0.268 OA 
ENDROOT
BRANCH   2   3
HETATM    3  C   UNL     1     -10.071  14.693  66.430  1.00  0.00    -0.278 A  
HETATM    4  C   UNL     1     -10.029  15.950  65.804  1.00  0.00    -0.391 A  
HETATM    5  C   UNL     1     -10.286  17.118  66.522  1.00  0.00    -0.322 A  
HETATM    6  C   UNL     1     -10.561  17.050  67.881  1.00  0.00    -0.365 A  
HETATM    7  C   UNL     1     -10.556  15.813  68.524  1.00  0.00    -0.253 A  
HETATM    8  C   UNL     1     -10.302  14.627  67.818  1.00  0.00    -0.237 A  
BRANCH   8   9
HETATM    9  O   UNL     1     -10.345  13.523  68.636  1.00  0.00    -0.241 OA 
BRANCH   9  10
HETATM   10  C   UNL     1     -11.630  13.046  69.016  1.00  0.00    -0.318 C  
BRANCH  10  11
HETATM   11  C   UNL     1     -11.946  11.731  68.283  1.00  0.00    -0.165 C  
BRANCH  11  12
HETATM   12  N   UNL     1     -12.363  10.636  69.177  1.00  0.00    -0.755 NA 
HETATM   13  H   UNL     1     -12.098   9.727  68.797  1.00  0.00     0.000 HD 
BRANCH  12  14
HETATM   14  C   UNL     1     -11.849  10.808  70.554  1.00  0.00    -0.356 C  
BRANCH  14  15
HETATM   15  C   UNL     1     -12.503   9.828  71.552  1.00  0.00    -0.403 C  
HETATM   16  O   UNL     1     -13.682   9.269  70.966  1.00  0.00    -0.574 OA 
HETATM   17  H   UNL     1     -14.084   8.665  71.581  1.00  0.00     0.000 HD 
BRANCH  15  18
HETATM   18  C   UNL     1     -11.511   8.723  71.939  1.00  0.00    -0.358 C  
BRANCH  18  19
HETATM   19  O   UNL     1     -10.331   8.800  71.146  1.00  0.00    -0.209 OA 
BRANCH  19  20
HETATM   20  C   UNL     1     -10.318   8.019  70.015  1.00  0.00    -0.218 A  
HETATM   21  C   UNL     1     -11.037   6.818  69.867  1.00  0.00    -0.374 A  
HETATM   22  C   UNL     1     -11.001   6.092  68.680  1.00  0.00    -0.415 A  
HETATM   23  C   UNL     1     -10.251   6.531  67.591  1.00  0.00    -0.210 A  
HETATM   24  C   UNL     1      -9.531   7.722  67.745  1.00  0.00    -0.143 A  
HETATM   25  C   UNL     1      -9.539   8.472  68.923  1.00  0.00    -0.160 A  
HETATM   26  C   UNL     1      -8.677   9.600  68.712  1.00  0.00    -0.126 A  
HETATM   27  C   UNL     1      -8.267  10.685  69.516  1.00  0.00    -0.036 A  
HETATM   28  C   UNL     1      -7.396  11.647  68.991  1.00  0.00    -0.074 A  
HETATM   29  C   UNL     1      -6.934  11.539  67.681  1.00  0.00    -0.091 A  
HETATM   30  C   UNL     1      -7.321  10.473  66.864  1.00  0.00    -0.110 A  
HETATM   31  C   UNL     1      -8.189   9.518  67.411  1.00  0.00    -0.114 A  
HETATM   32  N   UNL     1      -8.716   8.382  66.853  1.00  0.00    -0.127 NA 
HETATM   33  H   UNL     1      -8.529   8.067  65.901  1.00  0.00     0.000 HD 
ENDBRANCH  19  20
ENDBRANCH  18  19
ENDBRANCH  15  18
ENDBRANCH  14  15
ENDBRANCH  12  14
ENDBRANCH  11  12
ENDBRANCH  10  11
ENDBRANCH   9  10
ENDBRANCH   8   9
ENDBRANCH   2   3
TORSDOF 10
ENDMDL
MODEL      189
REMARK 921   NORMALIZED FREE ENERGY PREDICTED BY IDOCK:   -4.80 KCAL/MOL
REMARK 922        TOTAL FREE ENERGY PREDICTED BY IDOCK:   -9.46 KCAL/MOL
REMARK 923 INTER-LIGAND FREE ENERGY PREDICTED BY IDOCK:   -8.12 KCAL/MOL
REMARK 924 INTRA-LIGAND FREE ENERGY PREDICTED BY IDOCK:   -1.34 KCAL/MOL
REMARK 927      BINDING AFFINITY PREDICTED BY RF-SCORE:    0.00 PKD
ROOT
HETATM    1  C   UNL     1     -13.196   7.140  71.663  1.00  0.00    -0.346 C  
HETATM    2  O   UNL     1     -12.117   6.279  72.019  1.00  0.00    -0.337 OA 
ENDROOT
BRANCH   2   3
HETATM    3  C   UNL     1     -10.860   6.824  71.956  1.00  0.00    -0.227 A  
HETATM    4  C   UNL     1     -10.474   7.868  72.813  1.00  0.00    -0.412 A  
HETATM    5  C   UNL     1      -9.178   8.384  72.778  1.00  0.00    -0.311 A  
HETATM    6  C   UNL     1      -8.258   7.883  71.868  1.00  0.00    -0.142 A  
HETATM    7  C   UNL     1      -8.643   6.883  70.977  1.00  0.00    -0.135 A  
HETATM    8  C   UNL     1      -9.941   6.350  70.999  1.00  0.00    -0.181 A  
BRANCH   8   9
HETATM    9  O   UNL     1     -10.113   5.376  70.044  1.00  0.00    -0.209 OA 
BRANCH   9  10
HETATM   10  C   UNL     1     -10.794   5.748  68.852  1.00  0.00    -0.235 C  
BRANCH  10  11
HETATM   11  C   UNL     1      -9.907   5.473  67.626  1.00  0.00    -0.144 C  
BRANCH  11  12
HETATM   12  N   UNL     1     -10.161   6.381  66.492  1.00  0.00    -0.391 NA 
HETATM   13  H   UNL     1     -10.719   5.923  65.771  1.00  0.00     0.000 HD 
BRANCH  12  14
HETATM   14  C   UNL     1     -10.783   7.653  66.920  1.00  0.00    -0.201 C  
BRANCH  14  15
HETATM   15  C   UNL     1      -9.762   8.808  67.002  1.00  0.00    -0.198 C  
HETATM   16  O   UNL     1      -8.795   8.663  65.957  1.00  0.00    -0.156 OA 
HETATM   17  H   UNL     1      -8.167   9.374  66.008  1.00  0.00     0.000 HD 
BRANCH  15  18
HETATM   18  C   UNL     1     -10.479  10.160  66.896  1.00  0.00    -0.222 C  
BRANCH  18  19
HETATM   19  O   UNL     1      -9.947  11.093  67.830  1.00  0.00    -0.168 OA 
BRANCH  19  20
HETATM   20  C   UNL     1     -10.808  11.505  68.820  1.00  0.00    -0.216 A  
HETATM   21  C   UNL     1     -11.391  10.653  69.776  1.00  0.00    -0.371 A  
HETATM   22  C   UNL     1     -12.232  11.144  70.770  1.00  0.00    -0.484 A  
HETATM   23  C   UNL     1     -12.527  12.503  70.855  1.00  0.00    -0.361 A  
HETATM   24  C   UNL     1     -11.952  13.347  69.896  1.00  0.00    -0.338 A  
HETATM   25  C   UNL     1     -11.110  12.887  68.883  1.00  0.00    -0.301 A  
HETATM   26  C   UNL     1     -10.739  14.026  68.092  1.00  0.00    -0.254 A  
HETATM   27  C   UNL     1      -9.941  14.204  66.941  1.00  0.00    -0.261 A  
HETATM   28  C   UNL     1      -9.773  15.486  66.406  1.00  0.00    -0.306 A  
HETATM   29  C   UNL     1     -10.386  16.585  67.002  1.00  0.00    -0.301 A  
HETATM   30  C   UNL     1     -11.186  16.437  68.140  1.00  0.00    -0.273 A  
HETATM   31  C   UNL     1     -11.345  15.144  68.656  1.00  0.00    -0.310 A  
HETATM   32  N   UNL     1     -12.068  14.709  69.737  1.00  0.00    -0.328 NA 
HETATM   33  H   UNL     1     -12.620  15.316  70.345  1.00  0.00     0.000 HD 
ENDBRANCH  19  20
ENDBRANCH  18  19
ENDBRANCH  15  18
ENDBRANCH  14  15
ENDBRANCH  12  14
ENDBRANCH  11  12
ENDBRANCH  10  11
ENDBRANCH   9  10
ENDBRANCH   8   9
ENDBRANCH   2   3
TORSDOF 10
ENDMDL
MODEL      190
REMARK 921   NORMALIZED FREE ENERGY PREDICTED BY IDOCK:   -4.79 KCAL/MOL
REMARK 922        TOTAL FREE ENERGY PREDICTED BY IDOCK:   -9.43 KCAL/MOL
REMARK 923 INTER-LIGAND FREE ENERGY PREDICTED BY IDOCK:   -8.40 KCAL/MOL
REMARK 924 INTRA-LIGAND FREE ENERGY PREDICTED BY IDOCK:   -1.03 KCAL/MOL
REMARK 927      BINDING AFFINITY PREDICTED BY RF-SCORE:    0.00 PKD
ROOT
HETATM    1  C   UNL     1      -5.372  20.812  69.635  1.00  0.00    -0.374 C  
HETATM    2  O   UNL     1      -6.337  20.102  68.862  1.00  0.00    -0.297 OA 
ENDROOT
BRANCH   2   3
HETATM    3  C   UNL     1      -6.430  18.754  69.099  1.00  0.00    -0.276 A  
HETATM    4  C   UNL     1      -5.387  18.049  69.724  1.00  0.00    -0.212 A  
HETATM    5  C   UNL     1      -5.509  16.690  70.008  1.00  0.00    -0.201 A  
HETATM    6  C   UNL     1      -6.664  16.007  69.648  1.00  0.00    -0.171 A  
HETATM    7  C   UNL     1      -7.684  16.683  68.982  1.00  0.00    -0.221 A  
HETATM    8  C   UNL     1      -7.581  18.052  68.690  1.00  0.00    -0.290 A  
BRANCH   8   9
HETATM    9  O   UNL     1      -8.693  18.523  68.034  1.00  0.00    -0.281 OA 
BRANCH   9  10
HETATM   10  C   UNL     1      -9.962  18.154  68.559  1.00  0.00    -0.395 C  
BRANCH  10  11
HETATM   11  C   UNL     1     -10.830  17.525  67.456  1.00  0.00    -0.203 C  
BRANCH  11  12
HETATM   12  N   UNL     1     -11.015  16.069  67.601  1.00  0.00    -0.313 NA 
HETATM   13  H   UNL     1     -10.120  15.579  67.571  1.00  0.00     0.000 HD 
BRANCH  12  14
HETATM   14  C   UNL     1     -11.774  15.718  68.821  1.00  0.00    -0.378 C  
BRANCH  14  15
HETATM   15  C   UNL     1     -11.147  14.530  69.583  1.00  0.00    -0.228 C  
HETATM   16  O   UNL     1     -10.389  15.024  70.691  1.00  0.00    -0.508 OA 
HETATM   17  H   UNL     1     -10.003  14.292  71.160  1.00  0.00     0.000 HD 
BRANCH  15  18
HETATM   18  C   UNL     1     -12.242  13.566  70.057  1.00  0.00    -0.312 C  
BRANCH  18  19
HETATM   19  O   UNL     1     -12.125  12.305  69.408  1.00  0.00    -0.260 OA 
BRANCH  19  20
HETATM   20  C   UNL     1     -12.020  11.213  70.237  1.00  0.00    -0.373 A  
HETATM   21  C   UNL     1     -12.956  10.874  71.232  1.00  0.00    -0.492 A  
HETATM   22  C   UNL     1     -12.801   9.735  72.016  1.00  0.00    -0.491 A  
HETATM   23  C   UNL     1     -11.710   8.885  71.843  1.00  0.00    -0.439 A  
HETATM   24  C   UNL     1     -10.776   9.231  70.858  1.00  0.00    -0.301 A  
HETATM   25  C   UNL     1     -10.897  10.369  70.058  1.00  0.00    -0.348 A  
HETATM   26  C   UNL     1      -9.754  10.400  69.191  1.00  0.00    -0.234 A  
HETATM   27  C   UNL     1      -9.304  11.290  68.192  1.00  0.00    -0.181 A  
HETATM   28  C   UNL     1      -8.114  11.019  67.508  1.00  0.00    -0.117 A  
HETATM   29  C   UNL     1      -7.372   9.878  67.806  1.00  0.00    -0.089 A  
HETATM   30  C   UNL     1      -7.792   8.982  68.794  1.00  0.00    -0.096 A  
HETATM   31  C   UNL     1      -8.985   9.275  69.470  1.00  0.00    -0.152 A  
HETATM   32  N   UNL     1      -9.620   8.591  70.475  1.00  0.00    -0.165 NA 
HETATM   33  H   UNL     1      -9.280   7.721  70.885  1.00  0.00     0.000 HD 
ENDBRANCH  19  20
ENDBRANCH  18  19
ENDBRANCH  15  18
ENDBRANCH  14  15
ENDBRANCH  12  14
ENDBRANCH  11  12
ENDBRANCH  10  11
ENDBRANCH   9  10
ENDBRANCH   8   9
ENDBRANCH   2   3
TORSDOF 10
ENDMDL
MODEL      191
REMARK 921   NORMALIZED FREE ENERGY PREDICTED BY IDOCK:   -4.77 KCAL/MOL
REMARK 922        TOTAL FREE ENERGY PREDICTED BY IDOCK:   -9.41 KCAL/MOL
REMARK 923 INTER-LIGAND FREE ENERGY PREDICTED BY IDOCK:   -8.13 KCAL/MOL
REMARK 924 INTRA-LIGAND FREE ENERGY PREDICTED BY IDOCK:   -1.28 KCAL/MOL
REMARK 927      BINDING AFFINITY PREDICTED BY RF-SCORE:    0.00 PKD
ROOT
HETATM    1  C   UNL     1      -8.326   5.499  68.484  1.00  0.00    -0.101 C  
HETATM    2  O   UNL     1      -7.624   6.207  69.504  1.00  0.00    -0.089 OA 
ENDROOT
BRANCH   2   3
HETATM    3  C   UNL     1      -8.390   6.976  70.344  1.00  0.00    -0.129 A  
HETATM    4  C   UNL     1      -8.608   6.601  71.680  1.00  0.00    -0.123 A  
HETATM    5  C   UNL     1      -9.345   7.413  72.542  1.00  0.00    -0.185 A  
HETATM    6  C   UNL     1      -9.898   8.597  72.074  1.00  0.00    -0.396 A  
HETATM    7  C   UNL     1      -9.733   8.955  70.738  1.00  0.00    -0.281 A  
HETATM    8  C   UNL     1      -8.992   8.153  69.856  1.00  0.00    -0.143 A  
BRANCH   8   9
HETATM    9  O   UNL     1      -8.950   8.684  68.590  1.00  0.00    -0.141 OA 
BRANCH   9  10
HETATM   10  C   UNL     1      -9.814   9.779  68.315  1.00  0.00    -0.148 C  
BRANCH  10  11
HETATM   11  C   UNL     1      -9.408  10.458  66.996  1.00  0.00    -0.154 C  
BRANCH  11  12
HETATM   12  N   UNL     1     -10.552  10.871  66.162  1.00  0.00    -0.237 NA 
HETATM   13  H   UNL     1     -11.275  11.320  66.724  1.00  0.00     0.000 HD 
BRANCH  12  14
HETATM   14  C   UNL     1     -10.142  11.734  65.033  1.00  0.00    -0.263 C  
BRANCH  14  15
HETATM   15  C   UNL     1     -11.281  12.661  64.556  1.00  0.00    -0.333 C  
HETATM   16  O   UNL     1     -12.527  12.187  65.076  1.00  0.00    -0.490 OA 
HETATM   17  H   UNL     1     -13.229  12.758  64.783  1.00  0.00     0.000 HD 
BRANCH  15  18
HETATM   18  C   UNL     1     -11.016  14.103  65.007  1.00  0.00    -0.384 C  
BRANCH  18  19
HETATM   19  O   UNL     1     -10.270  14.129  66.219  1.00  0.00    -0.279 OA 
BRANCH  19  20
HETATM   20  C   UNL     1     -10.294  15.316  66.911  1.00  0.00    -0.278 A  
HETATM   21  C   UNL     1      -9.803  16.538  66.416  1.00  0.00    -0.311 A  
HETATM   22  C   UNL     1      -9.886  17.710  67.161  1.00  0.00    -0.306 A  
HETATM   23  C   UNL     1     -10.463  17.716  68.430  1.00  0.00    -0.360 A  
HETATM   24  C   UNL     1     -10.942  16.496  68.923  1.00  0.00    -0.325 A  
HETATM   25  C   UNL     1     -10.869  15.301  68.205  1.00  0.00    -0.262 A  
HETATM   26  C   UNL     1     -11.436  14.275  69.033  1.00  0.00    -0.318 A  
HETATM   27  C   UNL     1     -11.626  12.884  68.881  1.00  0.00    -0.360 A  
HETATM   28  C   UNL     1     -12.234  12.151  69.906  1.00  0.00    -0.240 A  
HETATM   29  C   UNL     1     -12.651  12.785  71.074  1.00  0.00    -0.362 A  
HETATM   30  C   UNL     1     -12.471  14.160  71.254  1.00  0.00    -0.446 A  
HETATM   31  C   UNL     1     -11.856  14.874  70.217  1.00  0.00    -0.307 A  
HETATM   32  N   UNL     1     -11.548  16.207  70.125  1.00  0.00    -0.380 NA 
HETATM   33  H   UNL     1     -11.741  16.895  70.853  1.00  0.00     0.000 HD 
ENDBRANCH  19  20
ENDBRANCH  18  19
ENDBRANCH  15  18
ENDBRANCH  14  15
ENDBRANCH  12  14
ENDBRANCH  11  12
ENDBRANCH  10  11
ENDBRANCH   9  10
ENDBRANCH   8   9
ENDBRANCH   2   3
TORSDOF 10
ENDMDL
MODEL      192
REMARK 921   NORMALIZED FREE ENERGY PREDICTED BY IDOCK:   -4.77 KCAL/MOL
REMARK 922        TOTAL FREE ENERGY PREDICTED BY IDOCK:   -9.40 KCAL/MOL
REMARK 923 INTER-LIGAND FREE ENERGY PREDICTED BY IDOCK:   -8.18 KCAL/MOL
REMARK 924 INTRA-LIGAND FREE ENERGY PREDICTED BY IDOCK:   -1.22 KCAL/MOL
REMARK 927      BINDING AFFINITY PREDICTED BY RF-SCORE:    0.00 PKD
ROOT
HETATM    1  C   UNL     1      -9.889   9.065  66.965  1.00  0.00    -0.209 C  
HETATM    2  O   UNL     1     -10.850   8.445  67.817  1.00  0.00    -0.142 OA 
ENDROOT
BRANCH   2   3
HETATM    3  C   UNL     1     -10.520   8.367  69.146  1.00  0.00    -0.206 A  
HETATM    4  C   UNL     1      -9.564   7.448  69.608  1.00  0.00    -0.156 A  
HETATM    5  C   UNL     1      -9.197   7.409  70.953  1.00  0.00    -0.154 A  
HETATM    6  C   UNL     1      -9.799   8.270  71.861  1.00  0.00    -0.300 A  
HETATM    7  C   UNL     1     -10.786   9.152  71.424  1.00  0.00    -0.419 A  
HETATM    8  C   UNL     1     -11.167   9.207  70.075  1.00  0.00    -0.150 A  
BRANCH   8   9
HETATM    9  O   UNL     1     -12.150  10.142  69.856  1.00  0.00    -0.160 OA 
BRANCH   9  10
HETATM   10  C   UNL     1     -11.805  11.507  70.053  1.00  0.00    -0.355 C  
BRANCH  10  11
HETATM   11  C   UNL     1     -11.665  12.220  68.697  1.00  0.00    -0.328 C  
BRANCH  11  12
HETATM   12  N   UNL     1     -10.630  13.271  68.682  1.00  0.00    -0.270 NA 
HETATM   13  H   UNL     1      -9.702  12.877  68.841  1.00  0.00     0.000 HD 
BRANCH  12  14
HETATM   14  C   UNL     1     -10.662  14.072  67.439  1.00  0.00    -0.283 C  
BRANCH  14  15
HETATM   15  C   UNL     1      -9.345  13.972  66.640  1.00  0.00    -0.277 C  
HETATM   16  O   UNL     1      -9.397  14.866  65.524  1.00  0.00    -0.467 OA 
HETATM   17  H   UNL     1      -8.586  14.805  65.032  1.00  0.00     0.000 HD 
BRANCH  15  18
HETATM   18  C   UNL     1      -8.149  14.299  67.544  1.00  0.00    -0.187 C  
BRANCH  18  19
HETATM   19  O   UNL     1      -8.534  15.174  68.599  1.00  0.00    -0.152 OA 
BRANCH  19  20
HETATM   20  C   UNL     1      -7.545  15.998  69.083  1.00  0.00    -0.225 A  
HETATM   21  C   UNL     1      -6.462  15.567  69.871  1.00  0.00    -0.146 A  
HETATM   22  C   UNL     1      -5.480  16.453  70.302  1.00  0.00    -0.188 A  
HETATM   23  C   UNL     1      -5.534  17.805  69.967  1.00  0.00    -0.238 A  
HETATM   24  C   UNL     1      -6.618  18.232  69.191  1.00  0.00    -0.258 A  
HETATM   25  C   UNL     1      -7.624  17.372  68.746  1.00  0.00    -0.252 A  
HETATM   26  C   UNL     1      -8.563  18.165  68.007  1.00  0.00    -0.272 A  
HETATM   27  C   UNL     1      -9.776  17.884  67.340  1.00  0.00    -0.288 A  
HETATM   28  C   UNL     1     -10.465  18.914  66.691  1.00  0.00    -0.496 A  
HETATM   29  C   UNL     1      -9.962  20.213  66.699  1.00  0.00    -0.595 A  
HETATM   30  C   UNL     1      -8.766  20.521  67.355  1.00  0.00    -0.373 A  
HETATM   31  C   UNL     1      -8.094  19.475  68.002  1.00  0.00    -0.312 A  
HETATM   32  N   UNL     1      -6.926  19.488  68.721  1.00  0.00    -0.322 NA 
HETATM   33  H   UNL     1      -6.359  20.320  68.885  1.00  0.00     0.000 HD 
ENDBRANCH  19  20
ENDBRANCH  18  19
ENDBRANCH  15  18
ENDBRANCH  14  15
ENDBRANCH  12  14
ENDBRANCH  11  12
ENDBRANCH  10  11
ENDBRANCH   9  10
ENDBRANCH   8   9
ENDBRANCH   2   3
TORSDOF 10
ENDMDL
MODEL      193
REMARK 921   NORMALIZED FREE ENERGY PREDICTED BY IDOCK:   -4.73 KCAL/MOL
REMARK 922        TOTAL FREE ENERGY PREDICTED BY IDOCK:   -9.34 KCAL/MOL
REMARK 923 INTER-LIGAND FREE ENERGY PREDICTED BY IDOCK:   -8.73 KCAL/MOL
REMARK 924 INTRA-LIGAND FREE ENERGY PREDICTED BY IDOCK:   -0.62 KCAL/MOL
REMARK 927      BINDING AFFINITY PREDICTED BY RF-SCORE:    0.00 PKD
ROOT
HETATM    1  C   UNL     1      -5.653  20.396  70.254  1.00  0.00    -0.326 C  
HETATM    2  O   UNL     1      -6.918  20.086  69.672  1.00  0.00    -0.281 OA 
ENDROOT
BRANCH   2   3
HETATM    3  C   UNL     1      -6.933  19.914  68.311  1.00  0.00    -0.297 A  
HETATM    4  C   UNL     1      -6.439  20.904  67.445  1.00  0.00    -0.396 A  
HETATM    5  C   UNL     1      -6.411  20.701  66.066  1.00  0.00    -0.275 A  
HETATM    6  C   UNL     1      -6.902  19.519  65.529  1.00  0.00    -0.312 A  
HETATM    7  C   UNL     1      -7.442  18.550  66.373  1.00  0.00    -0.279 A  
HETATM    8  C   UNL     1      -7.476  18.735  67.764  1.00  0.00    -0.228 A  
BRANCH   8   9
HETATM    9  O   UNL     1      -8.045  17.664  68.411  1.00  0.00    -0.267 OA 
BRANCH   9  10
HETATM   10  C   UNL     1      -7.165  16.752  69.055  1.00  0.00    -0.225 C  
BRANCH  10  11
HETATM   11  C   UNL     1      -7.346  15.339  68.474  1.00  0.00    -0.119 C  
BRANCH  11  12
HETATM   12  N   UNL     1      -7.458  14.284  69.498  1.00  0.00    -0.359 NA 
HETATM   13  H   UNL     1      -8.082  14.568  70.253  1.00  0.00     0.000 HD 
BRANCH  12  14
HETATM   14  C   UNL     1      -7.871  12.985  68.923  1.00  0.00     0.131 C  
BRANCH  14  15
HETATM   15  C   UNL     1      -7.952  13.024  67.382  1.00  0.00    -0.172 C  
HETATM   16  O   UNL     1      -7.586  11.745  66.855  1.00  0.00    -0.174 OA 
HETATM   17  H   UNL     1      -7.636  11.768  65.906  1.00  0.00     0.000 HD 
BRANCH  15  18
HETATM   18  C   UNL     1      -9.367  13.413  66.934  1.00  0.00    -0.252 C  
BRANCH  18  19
HETATM   19  O   UNL     1     -10.349  12.822  67.778  1.00  0.00    -0.214 OA 
BRANCH  19  20
HETATM   20  C   UNL     1     -11.028  13.687  68.603  1.00  0.00    -0.267 A  
HETATM   21  C   UNL     1     -11.081  15.082  68.425  1.00  0.00    -0.284 A  
HETATM   22  C   UNL     1     -11.814  15.895  69.283  1.00  0.00    -0.328 A  
HETATM   23  C   UNL     1     -12.524  15.356  70.354  1.00  0.00    -0.447 A  
HETATM   24  C   UNL     1     -12.461  13.969  70.533  1.00  0.00    -0.359 A  
HETATM   25  C   UNL     1     -11.731  13.124  69.695  1.00  0.00    -0.370 A  
HETATM   26  C   UNL     1     -11.887  11.789  70.200  1.00  0.00    -0.408 A  
HETATM   27  C   UNL     1     -11.389  10.527  69.810  1.00  0.00    -0.367 A  
HETATM   28  C   UNL     1     -11.747   9.386  70.535  1.00  0.00    -0.254 A  
HETATM   29  C   UNL     1     -12.591   9.487  71.638  1.00  0.00    -0.476 A  
HETATM   30  C   UNL     1     -13.096  10.725  72.050  1.00  0.00    -0.476 A  
HETATM   31  C   UNL     1     -12.720  11.856  71.312  1.00  0.00    -0.298 A  
HETATM   32  N   UNL     1     -13.050  13.175  71.491  1.00  0.00    -0.353 NA 
HETATM   33  H   UNL     1     -13.653  13.523  72.237  1.00  0.00     0.000 HD 
ENDBRANCH  19  20
ENDBRANCH  18  19
ENDBRANCH  15  18
ENDBRANCH  14  15
ENDBRANCH  12  14
ENDBRANCH  11  12
ENDBRANCH  10  11
ENDBRANCH   9  10
ENDBRANCH   8   9
ENDBRANCH   2   3
TORSDOF 10
ENDMDL
MODEL      194
REMARK 921   NORMALIZED FREE ENERGY PREDICTED BY IDOCK:   -4.72 KCAL/MOL
REMARK 922        TOTAL FREE ENERGY PREDICTED BY IDOCK:   -9.33 KCAL/MOL
REMARK 923 INTER-LIGAND FREE ENERGY PREDICTED BY IDOCK:   -7.89 KCAL/MOL
REMARK 924 INTRA-LIGAND FREE ENERGY PREDICTED BY IDOCK:   -1.45 KCAL/MOL
REMARK 927      BINDING AFFINITY PREDICTED BY RF-SCORE:    0.00 PKD
ROOT
HETATM    1  C   UNL     1      -7.639   5.412  71.460  1.00  0.00    -0.103 C  
HETATM    2  O   UNL     1      -8.914   5.471  70.825  1.00  0.00    -0.138 OA 
ENDROOT
BRANCH   2   3
HETATM    3  C   UNL     1      -9.820   6.349  71.365  1.00  0.00    -0.176 A  
HETATM    4  C   UNL     1      -9.913   6.539  72.754  1.00  0.00    -0.186 A  
HETATM    5  C   UNL     1     -10.800   7.470  73.293  1.00  0.00    -0.409 A  
HETATM    6  C   UNL     1     -11.627   8.205  72.455  1.00  0.00    -0.463 A  
HETATM    7  C   UNL     1     -11.581   7.989  71.079  1.00  0.00    -0.303 A  
HETATM    8  C   UNL     1     -10.693   7.059  70.518  1.00  0.00    -0.238 A  
BRANCH   8   9
HETATM    9  O   UNL     1     -10.806   7.002  69.149  1.00  0.00    -0.226 OA 
BRANCH   9  10
HETATM   10  C   UNL     1      -9.877   7.764  68.388  1.00  0.00    -0.168 C  
BRANCH  10  11
HETATM   11  C   UNL     1     -10.549   9.038  67.850  1.00  0.00    -0.196 C  
BRANCH  11  12
HETATM   12  N   UNL     1     -10.207  10.257  68.605  1.00  0.00    -0.171 NA 
HETATM   13  H   UNL     1     -10.990  10.567  69.180  1.00  0.00     0.000 HD 
BRANCH  12  14
HETATM   14  C   UNL     1      -8.982  10.088  69.418  1.00  0.00    -0.194 C  
BRANCH  14  15
HETATM   15  C   UNL     1      -7.975  11.240  69.210  1.00  0.00     0.086 C  
HETATM   16  O   UNL     1      -6.991  11.204  70.248  1.00  0.00    -0.473 OA 
HETATM   17  H   UNL     1      -6.371  11.912  70.120  1.00  0.00     0.000 HD 
BRANCH  15  18
HETATM   18  C   UNL     1      -7.315  11.125  67.830  1.00  0.00    -0.093 C  
BRANCH  18  19
HETATM   19  O   UNL     1      -8.139  11.701  66.822  1.00  0.00    -0.162 OA 
BRANCH  19  20
HETATM   20  C   UNL     1      -8.359  10.922  65.711  1.00  0.00    -0.133 A  
HETATM   21  C   UNL     1      -7.633   9.758  65.397  1.00  0.00    -0.121 A  
HETATM   22  C   UNL     1      -7.930   9.000  64.268  1.00  0.00    -0.142 A  
HETATM   23  C   UNL     1      -8.961   9.368  63.406  1.00  0.00    -0.150 A  
HETATM   24  C   UNL     1      -9.675  10.532  63.717  1.00  0.00    -0.326 A  
HETATM   25  C   UNL     1      -9.400  11.319  64.837  1.00  0.00    -0.181 A  
HETATM   26  C   UNL     1     -10.314  12.425  64.811  1.00  0.00    -0.324 A  
HETATM   27  C   UNL     1     -10.518  13.549  65.640  1.00  0.00    -0.296 A  
HETATM   28  C   UNL     1     -11.529  14.465  65.330  1.00  0.00    -0.350 A  
HETATM   29  C   UNL     1     -12.334  14.274  64.209  1.00  0.00    -0.407 A  
HETATM   30  C   UNL     1     -12.151  13.172  63.368  1.00  0.00    -0.558 A  
HETATM   31  C   UNL     1     -11.130  12.270  63.695  1.00  0.00    -0.469 A  
HETATM   32  N   UNL     1     -10.725  11.126  63.055  1.00  0.00    -0.818 NA 
HETATM   33  H   UNL     1     -11.147  10.763  62.200  1.00  0.00     0.000 HD 
ENDBRANCH  19  20
ENDBRANCH  18  19
ENDBRANCH  15  18
ENDBRANCH  14  15
ENDBRANCH  12  14
ENDBRANCH  11  12
ENDBRANCH  10  11
ENDBRANCH   9  10
ENDBRANCH   8   9
ENDBRANCH   2   3
TORSDOF 10
ENDMDL
MODEL      195
REMARK 921   NORMALIZED FREE ENERGY PREDICTED BY IDOCK:   -4.72 KCAL/MOL
REMARK 922        TOTAL FREE ENERGY PREDICTED BY IDOCK:   -9.33 KCAL/MOL
REMARK 923 INTER-LIGAND FREE ENERGY PREDICTED BY IDOCK:   -7.72 KCAL/MOL
REMARK 924 INTRA-LIGAND FREE ENERGY PREDICTED BY IDOCK:   -1.61 KCAL/MOL
REMARK 927      BINDING AFFINITY PREDICTED BY RF-SCORE:    0.00 PKD
ROOT
HETATM    1  C   UNL     1     -13.057  10.328  71.153  1.00  0.00    -0.390 C  
HETATM    2  O   UNL     1     -12.217  10.203  70.008  1.00  0.00    -0.174 OA 
ENDROOT
BRANCH   2   3
HETATM    3  C   UNL     1     -11.018   9.563  70.202  1.00  0.00    -0.262 A  
HETATM    4  C   UNL     1     -10.581   9.209  71.489  1.00  0.00    -0.428 A  
HETATM    5  C   UNL     1      -9.387   8.514  71.675  1.00  0.00    -0.311 A  
HETATM    6  C   UNL     1      -8.597   8.187  70.580  1.00  0.00    -0.130 A  
HETATM    7  C   UNL     1      -8.995   8.578  69.303  1.00  0.00    -0.146 A  
HETATM    8  C   UNL     1     -10.194   9.276  69.096  1.00  0.00    -0.206 A  
BRANCH   8   9
HETATM    9  O   UNL     1     -10.399   9.563  67.768  1.00  0.00    -0.208 OA 
BRANCH   9  10
HETATM   10  C   UNL     1      -9.670   8.798  66.817  1.00  0.00    -0.221 C  
BRANCH  10  11
HETATM   11  C   UNL     1      -9.500   9.594  65.512  1.00  0.00    -0.266 C  
BRANCH  11  12
HETATM   12  N   UNL     1     -10.762  10.135  64.975  1.00  0.00     0.176 NA 
HETATM   13  H   UNL     1     -11.354  10.500  65.722  1.00  0.00     0.000 HD 
BRANCH  12  14
HETATM   14  C   UNL     1     -10.536  11.155  63.928  1.00  0.00    -0.364 C  
BRANCH  14  15
HETATM   15  C   UNL     1     -11.726  12.129  63.789  1.00  0.00    -0.485 C  
HETATM   16  O   UNL     1     -12.779  11.491  63.059  1.00  0.00    -0.915 OA 
HETATM   17  H   UNL     1     -13.512  12.090  62.974  1.00  0.00     0.000 HD 
BRANCH  15  18
HETATM   18  C   UNL     1     -12.214  12.573  65.173  1.00  0.00    -0.448 C  
BRANCH  18  19
HETATM   19  O   UNL     1     -11.115  12.830  66.041  1.00  0.00    -0.274 OA 
BRANCH  19  20
HETATM   20  C   UNL     1     -10.647  14.123  66.047  1.00  0.00    -0.297 A  
HETATM   21  C   UNL     1     -11.274  15.201  65.396  1.00  0.00    -0.338 A  
HETATM   22  C   UNL     1     -10.760  16.492  65.469  1.00  0.00    -0.267 A  
HETATM   23  C   UNL     1      -9.600  16.764  66.192  1.00  0.00    -0.302 A  
HETATM   24  C   UNL     1      -8.974  15.687  66.831  1.00  0.00    -0.241 A  
HETATM   25  C   UNL     1      -9.459  14.379  66.774  1.00  0.00    -0.280 A  
HETATM   26  C   UNL     1      -8.551  13.558  67.523  1.00  0.00    -0.193 A  
HETATM   27  C   UNL     1      -8.487  12.177  67.812  1.00  0.00    -0.160 A  
HETATM   28  C   UNL     1      -7.442  11.683  68.601  1.00  0.00    -0.117 A  
HETATM   29  C   UNL     1      -6.468  12.543  69.101  1.00  0.00    -0.099 A  
HETATM   30  C   UNL     1      -6.504  13.913  68.826  1.00  0.00    -0.094 A  
HETATM   31  C   UNL     1      -7.556  14.387  68.031  1.00  0.00    -0.137 A  
HETATM   32  N   UNL     1      -7.833  15.660  67.600  1.00  0.00    -0.143 NA 
HETATM   33  H   UNL     1      -7.267  16.479  67.821  1.00  0.00     0.000 HD 
ENDBRANCH  19  20
ENDBRANCH  18  19
ENDBRANCH  15  18
ENDBRANCH  14  15
ENDBRANCH  12  14
ENDBRANCH  11  12
ENDBRANCH  10  11
ENDBRANCH   9  10
ENDBRANCH   8   9
ENDBRANCH   2   3
TORSDOF 10
ENDMDL
MODEL      196
REMARK 921   NORMALIZED FREE ENERGY PREDICTED BY IDOCK:   -4.72 KCAL/MOL
REMARK 922        TOTAL FREE ENERGY PREDICTED BY IDOCK:   -9.32 KCAL/MOL
REMARK 923 INTER-LIGAND FREE ENERGY PREDICTED BY IDOCK:   -7.60 KCAL/MOL
REMARK 924 INTRA-LIGAND FREE ENERGY PREDICTED BY IDOCK:   -1.72 KCAL/MOL
REMARK 927      BINDING AFFINITY PREDICTED BY RF-SCORE:    0.00 PKD
ROOT
HETATM    1  C   UNL     1      -7.055   9.940  68.687  1.00  0.00    -0.071 C  
HETATM    2  O   UNL     1      -8.463   9.861  68.894  1.00  0.00    -0.114 OA 
ENDROOT
BRANCH   2   3
HETATM    3  C   UNL     1      -8.981   8.602  69.063  1.00  0.00    -0.142 A  
HETATM    4  C   UNL     1      -8.856   7.919  70.284  1.00  0.00    -0.140 A  
HETATM    5  C   UNL     1      -9.429   6.661  70.465  1.00  0.00    -0.171 A  
HETATM    6  C   UNL     1     -10.112   6.053  69.420  1.00  0.00    -0.243 A  
HETATM    7  C   UNL     1     -10.199   6.697  68.187  1.00  0.00    -0.193 A  
HETATM    8  C   UNL     1      -9.631   7.965  67.987  1.00  0.00    -0.151 A  
BRANCH   8   9
HETATM    9  O   UNL     1      -9.831   8.421  66.706  1.00  0.00    -0.211 OA 
BRANCH   9  10
HETATM   10  C   UNL     1      -8.678   8.620  65.899  1.00  0.00    -0.172 C  
BRANCH  10  11
HETATM   11  C   UNL     1      -8.500  10.115  65.585  1.00  0.00    -0.153 C  
BRANCH  11  12
HETATM   12  N   UNL     1      -9.498  10.983  66.236  1.00  0.00    -0.187 NA 
HETATM   13  H   UNL     1      -9.822  10.578  67.114  1.00  0.00     0.000 HD 
BRANCH  12  14
HETATM   14  C   UNL     1      -8.998  12.361  66.437  1.00  0.00    -0.100 C  
BRANCH  14  15
HETATM   15  C   UNL     1     -10.128  13.348  66.803  1.00  0.00    -0.260 C  
HETATM   16  O   UNL     1     -10.698  13.883  65.604  1.00  0.00    -0.278 OA 
HETATM   17  H   UNL     1     -11.393  14.491  65.829  1.00  0.00     0.000 HD 
BRANCH  15  18
HETATM   18  C   UNL     1     -11.197  12.644  67.647  1.00  0.00    -0.283 C  
BRANCH  18  19
HETATM   19  O   UNL     1     -10.688  12.306  68.933  1.00  0.00    -0.223 OA 
BRANCH  19  20
HETATM   20  C   UNL     1     -11.568  11.668  69.776  1.00  0.00    -0.315 A  
HETATM   21  C   UNL     1     -11.919  10.309  69.682  1.00  0.00    -0.130 A  
HETATM   22  C   UNL     1     -12.795   9.722  70.589  1.00  0.00    -0.138 A  
HETATM   23  C   UNL     1     -13.357  10.461  71.629  1.00  0.00    -0.432 A  
HETATM   24  C   UNL     1     -13.012  11.816  71.713  1.00  0.00    -0.361 A  
HETATM   25  C   UNL     1     -12.141  12.438  70.817  1.00  0.00    -0.245 A  
HETATM   26  C   UNL     1     -12.048  13.816  71.206  1.00  0.00    -0.194 A  
HETATM   27  C   UNL     1     -11.358  14.937  70.694  1.00  0.00    -0.275 A  
HETATM   28  C   UNL     1     -11.479  16.176  71.331  1.00  0.00    -0.429 A  
HETATM   29  C   UNL     1     -12.275  16.311  72.466  1.00  0.00    -0.563 A  
HETATM   30  C   UNL     1     -12.974  15.220  72.992  1.00  0.00    -0.599 A  
HETATM   31  C   UNL     1     -12.842  13.988  72.336  1.00  0.00    -0.317 A  
HETATM   32  N   UNL     1     -13.410  12.773  72.619  1.00  0.00    -0.512 NA 
HETATM   33  H   UNL     1     -14.045  12.600  73.399  1.00  0.00     0.000 HD 
ENDBRANCH  19  20
ENDBRANCH  18  19
ENDBRANCH  15  18
ENDBRANCH  14  15
ENDBRANCH  12  14
ENDBRANCH  11  12
ENDBRANCH  10  11
ENDBRANCH   9  10
ENDBRANCH   8   9
ENDBRANCH   2   3
TORSDOF 10
ENDMDL
MODEL      197
REMARK 921   NORMALIZED FREE ENERGY PREDICTED BY IDOCK:   -4.71 KCAL/MOL
REMARK 922        TOTAL FREE ENERGY PREDICTED BY IDOCK:   -9.30 KCAL/MOL
REMARK 923 INTER-LIGAND FREE ENERGY PREDICTED BY IDOCK:   -8.39 KCAL/MOL
REMARK 924 INTRA-LIGAND FREE ENERGY PREDICTED BY IDOCK:   -0.92 KCAL/MOL
REMARK 927      BINDING AFFINITY PREDICTED BY RF-SCORE:    0.00 PKD
ROOT
HETATM    1  C   UNL     1      -7.386   6.590  70.685  1.00  0.00    -0.079 C  
HETATM    2  O   UNL     1      -8.723   6.202  70.377  1.00  0.00    -0.138 OA 
ENDROOT
BRANCH   2   3
HETATM    3  C   UNL     1      -9.718   6.884  71.032  1.00  0.00    -0.174 A  
HETATM    4  C   UNL     1      -9.898   6.758  72.419  1.00  0.00    -0.169 A  
HETATM    5  C   UNL     1     -10.878   7.493  73.085  1.00  0.00    -0.448 A  
HETATM    6  C   UNL     1     -11.710   8.345  72.372  1.00  0.00    -0.452 A  
HETATM    7  C   UNL     1     -11.575   8.441  70.988  1.00  0.00    -0.307 A  
HETATM    8  C   UNL     1     -10.593   7.711  70.300  1.00  0.00    -0.230 A  
BRANCH   8   9
HETATM    9  O   UNL     1     -10.628   7.951  68.947  1.00  0.00    -0.211 OA 
BRANCH   9  10
HETATM   10  C   UNL     1      -9.656   8.845  68.420  1.00  0.00    -0.146 C  
BRANCH  10  11
HETATM   11  C   UNL     1     -10.032  10.297  68.758  1.00  0.00    -0.179 C  
BRANCH  11  12
HETATM   12  N   UNL     1      -8.869  11.188  68.931  1.00  0.00    -0.322 NA 
HETATM   13  H   UNL     1      -8.272  10.871  69.694  1.00  0.00     0.000 HD 
BRANCH  12  14
HETATM   14  C   UNL     1      -8.096  11.351  67.680  1.00  0.00    -0.124 C  
BRANCH  14  15
HETATM   15  C   UNL     1      -6.957  12.383  67.824  1.00  0.00    -0.118 C  
HETATM   16  O   UNL     1      -6.102  12.309  66.679  1.00  0.00    -0.496 OA 
HETATM   17  H   UNL     1      -5.401  12.945  66.767  1.00  0.00     0.000 HD 
BRANCH  15  18
HETATM   18  C   UNL     1      -7.536  13.795  67.980  1.00  0.00    -0.145 C  
BRANCH  18  19
HETATM   19  O   UNL     1      -8.947  13.790  67.791  1.00  0.00    -0.175 OA 
BRANCH  19  20
HETATM   20  C   UNL     1      -9.484  14.938  67.259  1.00  0.00    -0.213 A  
HETATM   21  C   UNL     1      -9.250  16.233  67.757  1.00  0.00    -0.203 A  
HETATM   22  C   UNL     1      -9.803  17.356  67.150  1.00  0.00    -0.278 A  
HETATM   23  C   UNL     1     -10.612  17.237  66.021  1.00  0.00    -0.217 A  
HETATM   24  C   UNL     1     -10.850  15.946  65.534  1.00  0.00    -0.315 A  
HETATM   25  C   UNL     1     -10.316  14.798  66.122  1.00  0.00    -0.314 A  
HETATM   26  C   UNL     1     -10.792  13.675  65.366  1.00  0.00    -0.302 A  
HETATM   27  C   UNL     1     -10.623  12.278  65.472  1.00  0.00    -0.304 A  
HETATM   28  C   UNL     1     -11.236  11.432  64.541  1.00  0.00    -0.251 A  
HETATM   29  C   UNL     1     -12.011  11.961  63.512  1.00  0.00    -0.567 A  
HETATM   30  C   UNL     1     -12.199  13.341  63.385  1.00  0.00    -0.476 A  
HETATM   31  C   UNL     1     -11.579  14.169  64.330  1.00  0.00    -0.362 A  
HETATM   32  N   UNL     1     -11.599  15.535  64.454  1.00  0.00    -0.672 NA 
HETATM   33  H   UNL     1     -12.103  16.164  63.829  1.00  0.00     0.000 HD 
ENDBRANCH  19  20
ENDBRANCH  18  19
ENDBRANCH  15  18
ENDBRANCH  14  15
ENDBRANCH  12  14
ENDBRANCH  11  12
ENDBRANCH  10  11
ENDBRANCH   9  10
ENDBRANCH   8   9
ENDBRANCH   2   3
TORSDOF 10
ENDMDL
MODEL      198
REMARK 921   NORMALIZED FREE ENERGY PREDICTED BY IDOCK:   -4.71 KCAL/MOL
REMARK 922        TOTAL FREE ENERGY PREDICTED BY IDOCK:   -9.30 KCAL/MOL
REMARK 923 INTER-LIGAND FREE ENERGY PREDICTED BY IDOCK:   -8.50 KCAL/MOL
REMARK 924 INTRA-LIGAND FREE ENERGY PREDICTED BY IDOCK:   -0.81 KCAL/MOL
REMARK 927      BINDING AFFINITY PREDICTED BY RF-SCORE:    0.00 PKD
ROOT
HETATM    1  C   UNL     1      -5.934  19.720  70.563  1.00  0.00    -0.269 C  
HETATM    2  O   UNL     1      -6.994  19.931  69.633  1.00  0.00    -0.322 OA 
ENDROOT
BRANCH   2   3
HETATM    3  C   UNL     1      -6.740  19.574  68.333  1.00  0.00    -0.280 A  
HETATM    4  C   UNL     1      -5.833  20.298  67.542  1.00  0.00    -0.216 A  
HETATM    5  C   UNL     1      -5.541  19.899  66.238  1.00  0.00    -0.182 A  
HETATM    6  C   UNL     1      -6.172  18.787  65.695  1.00  0.00    -0.281 A  
HETATM    7  C   UNL     1      -7.112  18.091  66.453  1.00  0.00    -0.282 A  
HETATM    8  C   UNL     1      -7.417  18.476  67.767  1.00  0.00    -0.230 A  
BRANCH   8   9
HETATM    9  O   UNL     1      -8.364  17.658  68.336  1.00  0.00    -0.273 OA 
BRANCH   9  10
HETATM   10  C   UNL     1      -7.903  16.476  68.977  1.00  0.00    -0.226 C  
BRANCH  10  11
HETATM   11  C   UNL     1      -8.457  15.232  68.261  1.00  0.00    -0.154 C  
BRANCH  11  12
HETATM   12  N   UNL     1      -8.163  13.965  68.956  1.00  0.00    -0.342 NA 
HETATM   13  H   UNL     1      -8.541  13.968  69.903  1.00  0.00     0.000 HD 
BRANCH  12  14
HETATM   14  C   UNL     1      -8.635  12.786  68.197  1.00  0.00    -0.185 C  
BRANCH  14  15
HETATM   15  C   UNL     1      -9.822  13.122  67.267  1.00  0.00    -0.232 C  
HETATM   16  O   UNL     1      -9.473  12.801  65.917  1.00  0.00    -0.416 OA 
HETATM   17  H   UNL     1     -10.204  13.008  65.345  1.00  0.00     0.000 HD 
BRANCH  15  18
HETATM   18  C   UNL     1     -11.074  12.352  67.705  1.00  0.00    -0.259 C  
BRANCH  18  19
HETATM   19  O   UNL     1     -10.753  11.377  68.691  1.00  0.00    -0.187 OA 
BRANCH  19  20
HETATM   20  C   UNL     1     -11.571  11.351  69.795  1.00  0.00    -0.332 A  
HETATM   21  C   UNL     1     -12.184  12.484  70.361  1.00  0.00    -0.368 A  
HETATM   22  C   UNL     1     -13.026  12.380  71.463  1.00  0.00    -0.385 A  
HETATM   23  C   UNL     1     -13.295  11.144  72.049  1.00  0.00    -0.384 A  
HETATM   24  C   UNL     1     -12.676  10.020  71.489  1.00  0.00    -0.429 A  
HETATM   25  C   UNL     1     -11.822  10.089  70.387  1.00  0.00    -0.343 A  
HETATM   26  C   UNL     1     -11.370   8.753  70.118  1.00  0.00    -0.099 A  
HETATM   27  C   UNL     1     -10.495   8.186  69.166  1.00  0.00    -0.217 A  
HETATM   28  C   UNL     1     -10.267   6.806  69.170  1.00  0.00    -0.195 A  
HETATM   29  C   UNL     1     -10.899   5.989  70.105  1.00  0.00    -0.409 A  
HETATM   30  C   UNL     1     -11.767   6.525  71.061  1.00  0.00    -0.402 A  
HETATM   31  C   UNL     1     -11.978   7.910  71.043  1.00  0.00    -0.252 A  
HETATM   32  N   UNL     1     -12.756   8.695  71.855  1.00  0.00    -0.344 NA 
HETATM   33  H   UNL     1     -13.319   8.344  72.629  1.00  0.00     0.000 HD 
ENDBRANCH  19  20
ENDBRANCH  18  19
ENDBRANCH  15  18
ENDBRANCH  14  15
ENDBRANCH  12  14
ENDBRANCH  11  12
ENDBRANCH  10  11
ENDBRANCH   9  10
ENDBRANCH   8   9
ENDBRANCH   2   3
TORSDOF 10
ENDMDL
MODEL      199
REMARK 921   NORMALIZED FREE ENERGY PREDICTED BY IDOCK:   -4.70 KCAL/MOL
REMARK 922        TOTAL FREE ENERGY PREDICTED BY IDOCK:   -9.29 KCAL/MOL
REMARK 923 INTER-LIGAND FREE ENERGY PREDICTED BY IDOCK:   -7.66 KCAL/MOL
REMARK 924 INTRA-LIGAND FREE ENERGY PREDICTED BY IDOCK:   -1.62 KCAL/MOL
REMARK 927      BINDING AFFINITY PREDICTED BY RF-SCORE:    0.00 PKD
ROOT
HETATM    1  C   UNL     1     -10.221  19.962  66.410  1.00  0.00    -0.500 C  
HETATM    2  O   UNL     1     -10.876  18.767  66.827  1.00  0.00    -0.352 OA 
ENDROOT
BRANCH   2   3
HETATM    3  C   UNL     1     -10.061  17.716  67.167  1.00  0.00    -0.328 A  
HETATM    4  C   UNL     1      -9.298  17.737  68.346  1.00  0.00    -0.294 A  
HETATM    5  C   UNL     1      -8.511  16.644  68.711  1.00  0.00    -0.255 A  
HETATM    6  C   UNL     1      -8.454  15.527  67.889  1.00  0.00    -0.146 A  
HETATM    7  C   UNL     1      -9.166  15.515  66.691  1.00  0.00    -0.299 A  
HETATM    8  C   UNL     1      -9.965  16.603  66.309  1.00  0.00    -0.320 A  
BRANCH   8   9
HETATM    9  O   UNL     1     -10.582  16.388  65.100  1.00  0.00    -0.610 OA 
BRANCH   9  10
HETATM   10  C   UNL     1     -10.669  15.044  64.644  1.00  0.00    -0.217 C  
BRANCH  10  11
HETATM   11  C   UNL     1     -12.135  14.669  64.370  1.00  0.00    -0.462 C  
BRANCH  11  12
HETATM   12  N   UNL     1     -12.736  13.814  65.410  1.00  0.00    -0.647 NA 
HETATM   13  H   UNL     1     -13.598  13.381  65.079  1.00  0.00     0.000 HD 
BRANCH  12  14
HETATM   14  C   UNL     1     -11.788  12.797  65.916  1.00  0.00    -0.437 C  
BRANCH  14  15
HETATM   15  C   UNL     1     -11.568  12.905  67.441  1.00  0.00    -0.360 C  
HETATM   16  O   UNL     1     -12.508  13.833  67.992  1.00  0.00    -0.370 OA 
HETATM   17  H   UNL     1     -12.373  13.899  68.930  1.00  0.00     0.000 HD 
BRANCH  15  18
HETATM   18  C   UNL     1     -11.714  11.527  68.098  1.00  0.00    -0.287 C  
BRANCH  18  19
HETATM   19  O   UNL     1     -10.442  10.999  68.459  1.00  0.00    -0.172 OA 
BRANCH  19  20
HETATM   20  C   UNL     1     -10.020   9.909  67.736  1.00  0.00    -0.165 A  
HETATM   21  C   UNL     1     -10.826   8.799  67.421  1.00  0.00    -0.087 A  
HETATM   22  C   UNL     1     -10.340   7.742  66.658  1.00  0.00    -0.262 A  
HETATM   23  C   UNL     1      -9.033   7.744  66.175  1.00  0.00    -0.201 A  
HETATM   24  C   UNL     1      -8.231   8.846  66.498  1.00  0.00    -0.114 A  
HETATM   25  C   UNL     1      -8.684   9.920  67.266  1.00  0.00    -0.131 A  
HETATM   26  C   UNL     1      -7.586  10.835  67.401  1.00  0.00    -0.099 A  
HETATM   27  C   UNL     1      -7.414  12.070  68.064  1.00  0.00    -0.113 A  
HETATM   28  C   UNL     1      -6.182  12.729  67.992  1.00  0.00    -0.103 A  
HETATM   29  C   UNL     1      -5.127  12.175  67.270  1.00  0.00    -0.099 A  
HETATM   30  C   UNL     1      -5.269  10.952  66.608  1.00  0.00    -0.075 A  
HETATM   31  C   UNL     1      -6.509  10.307  66.697  1.00  0.00    -0.076 A  
HETATM   32  N   UNL     1      -6.922   9.112  66.165  1.00  0.00    -0.084 NA 
HETATM   33  H   UNL     1      -6.336   8.500  65.597  1.00  0.00     0.000 HD 
ENDBRANCH  19  20
ENDBRANCH  18  19
ENDBRANCH  15  18
ENDBRANCH  14  15
ENDBRANCH  12  14
ENDBRANCH  11  12
ENDBRANCH  10  11
ENDBRANCH   9  10
ENDBRANCH   8   9
ENDBRANCH   2   3
TORSDOF 10
ENDMDL
MODEL      200
REMARK 921   NORMALIZED FREE ENERGY PREDICTED BY IDOCK:   -4.68 KCAL/MOL
REMARK 922        TOTAL FREE ENERGY PREDICTED BY IDOCK:   -9.27 KCAL/MOL
REMARK 923 INTER-LIGAND FREE ENERGY PREDICTED BY IDOCK:   -8.10 KCAL/MOL
REMARK 924 INTRA-LIGAND FREE ENERGY PREDICTED BY IDOCK:   -1.17 KCAL/MOL
REMARK 927      BINDING AFFINITY PREDICTED BY RF-SCORE:    0.00 PKD
ROOT
HETATM    1  C   UNL     1      -8.801   9.382  69.561  1.00  0.00    -0.162 C  
HETATM    2  O   UNL     1      -9.530   9.623  70.762  1.00  0.00    -0.219 OA 
ENDROOT
BRANCH   2   3
HETATM    3  C   UNL     1     -10.669   8.879  70.940  1.00  0.00    -0.231 A  
HETATM    4  C   UNL     1     -10.693   7.503  70.658  1.00  0.00    -0.239 A  
HETATM    5  C   UNL     1     -11.839   6.742  70.888  1.00  0.00    -0.438 A  
HETATM    6  C   UNL     1     -12.987   7.351  71.378  1.00  0.00    -0.403 A  
HETATM    7  C   UNL     1     -12.992   8.724  71.613  1.00  0.00    -0.390 A  
HETATM    8  C   UNL     1     -11.848   9.505  71.390  1.00  0.00    -0.389 A  
BRANCH   8   9
HETATM    9  O   UNL     1     -12.064  10.830  71.685  1.00  0.00    -0.211 OA 
BRANCH   9  10
HETATM   10  C   UNL     1     -13.394  11.216  72.009  1.00  0.00    -0.278 C  
BRANCH  10  11
HETATM   11  C   UNL     1     -13.607  12.705  71.691  1.00  0.00     0.061 C  
BRANCH  11  12
HETATM   12  N   UNL     1     -13.339  13.602  72.830  1.00  0.00    -0.551 NA 
HETATM   13  H   UNL     1     -13.246  13.076  73.699  1.00  0.00     0.000 HD 
BRANCH  12  14
HETATM   14  C   UNL     1     -12.161  14.466  72.600  1.00  0.00     0.071 C  
BRANCH  14  15
HETATM   15  C   UNL     1     -12.532  15.792  71.902  1.00  0.00    -0.458 C  
HETATM   16  O   UNL     1     -11.787  16.863  72.490  1.00  0.00    -0.491 OA 
HETATM   17  H   UNL     1     -12.015  17.679  72.060  1.00  0.00     0.000 HD 
BRANCH  15  18
HETATM   18  C   UNL     1     -12.254  15.697  70.397  1.00  0.00    -0.395 C  
BRANCH  18  19
HETATM   19  O   UNL     1     -11.164  14.819  70.136  1.00  0.00    -0.251 OA 
BRANCH  19  20
HETATM   20  C   UNL     1     -11.103  14.302  68.863  1.00  0.00    -0.262 A  
HETATM   21  C   UNL     1     -12.092  13.484  68.287  1.00  0.00    -0.295 A  
HETATM   22  C   UNL     1     -11.979  13.020  66.980  1.00  0.00    -0.409 A  
HETATM   23  C   UNL     1     -10.878  13.351  66.192  1.00  0.00    -0.287 A  
HETATM   24  C   UNL     1      -9.892  14.157  66.772  1.00  0.00    -0.272 A  
HETATM   25  C   UNL     1      -9.970  14.636  68.081  1.00  0.00    -0.224 A  
HETATM   26  C   UNL     1      -8.780  15.400  68.324  1.00  0.00    -0.164 A  
HETATM   27  C   UNL     1      -8.276  16.104  69.440  1.00  0.00    -0.091 A  
HETATM   28  C   UNL     1      -7.049  16.769  69.343  1.00  0.00    -0.143 A  
HETATM   29  C   UNL     1      -6.324  16.741  68.154  1.00  0.00    -0.143 A  
HETATM   30  C   UNL     1      -6.797  16.048  67.036  1.00  0.00    -0.180 A  
HETATM   31  C   UNL     1      -8.026  15.385  67.156  1.00  0.00    -0.217 A  
HETATM   32  N   UNL     1      -8.715  14.632  66.240  1.00  0.00    -0.438 NA 
HETATM   33  H   UNL     1      -8.396  14.447  65.288  1.00  0.00     0.000 HD 
ENDBRANCH  19  20
ENDBRANCH  18  19
ENDBRANCH  15  18
ENDBRANCH  14  15
ENDBRANCH  12  14
ENDBRANCH  11  12
ENDBRANCH  10  11
ENDBRANCH   9  10
ENDBRANCH   8   9
ENDBRANCH   2   3
TORSDOF 10
ENDMDL
MODEL      201
REMARK 921   NORMALIZED FREE ENERGY PREDICTED BY IDOCK:   -4.66 KCAL/MOL
REMARK 922        TOTAL FREE ENERGY PREDICTED BY IDOCK:   -9.23 KCAL/MOL
REMARK 923 INTER-LIGAND FREE ENERGY PREDICTED BY IDOCK:   -7.95 KCAL/MOL
REMARK 924 INTRA-LIGAND FREE ENERGY PREDICTED BY IDOCK:   -1.28 KCAL/MOL
REMARK 927      BINDING AFFINITY PREDICTED BY RF-SCORE:    0.00 PKD
ROOT
HETATM    1  C   UNL     1      -8.223   7.276  73.915  1.00  0.00    -0.138 C  
HETATM    2  O   UNL     1      -7.537   7.235  72.666  1.00  0.00    -0.082 OA 
ENDROOT
BRANCH   2   3
HETATM    3  C   UNL     1      -8.236   6.715  71.607  1.00  0.00    -0.111 A  
HETATM    4  C   UNL     1      -8.431   5.331  71.470  1.00  0.00    -0.122 A  
HETATM    5  C   UNL     1      -9.186   4.813  70.418  1.00  0.00    -0.195 A  
HETATM    6  C   UNL     1      -9.736   5.668  69.473  1.00  0.00    -0.206 A  
HETATM    7  C   UNL     1      -9.507   7.040  69.569  1.00  0.00    -0.147 A  
HETATM    8  C   UNL     1      -8.752   7.579  70.621  1.00  0.00    -0.141 A  
BRANCH   8   9
HETATM    9  O   UNL     1      -8.650   8.947  70.531  1.00  0.00    -0.147 OA 
BRANCH   9  10
HETATM   10  C   UNL     1      -7.521   9.471  69.842  1.00  0.00    -0.113 C  
BRANCH  10  11
HETATM   11  C   UNL     1      -7.963  10.138  68.529  1.00  0.00    -0.104 C  
BRANCH  11  12
HETATM   12  N   UNL     1      -8.862  11.291  68.719  1.00  0.00    -0.296 NA 
HETATM   13  H   UNL     1      -9.251  11.303  69.662  1.00  0.00     0.000 HD 
BRANCH  12  14
HETATM   14  C   UNL     1      -8.204  12.575  68.396  1.00  0.00    -0.136 C  
BRANCH  14  15
HETATM   15  C   UNL     1      -9.193  13.613  67.821  1.00  0.00    -0.214 C  
HETATM   16  O   UNL     1     -10.007  12.991  66.822  1.00  0.00    -0.234 OA 
HETATM   17  H   UNL     1     -10.615  13.630  66.468  1.00  0.00     0.000 HD 
BRANCH  15  18
HETATM   18  C   UNL     1     -10.059  14.201  68.942  1.00  0.00    -0.150 C  
BRANCH  18  19
HETATM   19  O   UNL     1     -11.181  13.366  69.208  1.00  0.00    -0.258 OA 
BRANCH  19  20
HETATM   20  C   UNL     1     -12.048  13.818  70.174  1.00  0.00    -0.359 A  
HETATM   21  C   UNL     1     -12.387  15.170  70.371  1.00  0.00    -0.411 A  
HETATM   22  C   UNL     1     -13.297  15.554  71.352  1.00  0.00    -0.592 A  
HETATM   23  C   UNL     1     -13.907  14.611  72.176  1.00  0.00    -0.569 A  
HETATM   24  C   UNL     1     -13.560  13.268  71.983  1.00  0.00    -0.484 A  
HETATM   25  C   UNL     1     -12.648  12.848  71.013  1.00  0.00    -0.376 A  
HETATM   26  C   UNL     1     -12.534  11.422  71.128  1.00  0.00    -0.465 A  
HETATM   27  C   UNL     1     -11.773  10.440  70.458  1.00  0.00    -0.434 A  
HETATM   28  C   UNL     1     -11.904   9.095  70.819  1.00  0.00    -0.280 A  
HETATM   29  C   UNL     1     -12.780   8.719  71.834  1.00  0.00    -0.427 A  
HETATM   30  C   UNL     1     -13.543   9.671  72.518  1.00  0.00    -0.311 A  
HETATM   31  C   UNL     1     -13.393  11.013  72.144  1.00  0.00    -0.180 A  
HETATM   32  N   UNL     1     -13.996  12.140  72.641  1.00  0.00    -0.267 NA 
HETATM   33  H   UNL     1     -14.678  12.143  73.399  1.00  0.00     0.000 HD 
ENDBRANCH  19  20
ENDBRANCH  18  19
ENDBRANCH  15  18
ENDBRANCH  14  15
ENDBRANCH  12  14
ENDBRANCH  11  12
ENDBRANCH  10  11
ENDBRANCH   9  10
ENDBRANCH   8   9
ENDBRANCH   2   3
TORSDOF 10
ENDMDL
MODEL      202
REMARK 921   NORMALIZED FREE ENERGY PREDICTED BY IDOCK:   -4.66 KCAL/MOL
REMARK 922        TOTAL FREE ENERGY PREDICTED BY IDOCK:   -9.23 KCAL/MOL
REMARK 923 INTER-LIGAND FREE ENERGY PREDICTED BY IDOCK:   -8.10 KCAL/MOL
REMARK 924 INTRA-LIGAND FREE ENERGY PREDICTED BY IDOCK:   -1.13 KCAL/MOL
REMARK 927      BINDING AFFINITY PREDICTED BY RF-SCORE:    0.00 PKD
ROOT
HETATM    1  C   UNL     1     -11.504  15.411  70.410  1.00  0.00    -0.330 C  
HETATM    2  O   UNL     1     -11.866  15.491  69.033  1.00  0.00    -0.361 OA 
ENDROOT
BRANCH   2   3
HETATM    3  C   UNL     1     -11.011  16.194  68.222  1.00  0.00    -0.340 A  
HETATM    4  C   UNL     1     -10.504  17.446  68.607  1.00  0.00    -0.355 A  
HETATM    5  C   UNL     1      -9.596  18.131  67.801  1.00  0.00    -0.286 A  
HETATM    6  C   UNL     1      -9.202  17.589  66.585  1.00  0.00    -0.277 A  
HETATM    7  C   UNL     1      -9.738  16.372  66.168  1.00  0.00    -0.355 A  
HETATM    8  C   UNL     1     -10.650  15.666  66.967  1.00  0.00    -0.311 A  
BRANCH   8   9
HETATM    9  O   UNL     1     -11.052  14.493  66.374  1.00  0.00    -0.318 OA 
BRANCH   9  10
HETATM   10  C   UNL     1     -11.381  14.542  64.992  1.00  0.00    -0.377 C  
BRANCH  10  11
HETATM   11  C   UNL     1     -10.824  13.305  64.268  1.00  0.00    -0.392 C  
BRANCH  11  12
HETATM   12  N   UNL     1      -9.749  12.617  65.007  1.00  0.00    -0.486 NA 
HETATM   13  H   UNL     1      -9.369  13.212  65.744  1.00  0.00     0.000 HD 
BRANCH  12  14
HETATM   14  C   UNL     1     -10.184  11.311  65.546  1.00  0.00    -0.260 C  
BRANCH  14  15
HETATM   15  C   UNL     1      -9.105  10.218  65.382  1.00  0.00    -0.185 C  
HETATM   16  O   UNL     1      -7.838  10.835  65.134  1.00  0.00    -0.333 OA 
HETATM   17  H   UNL     1      -7.174  10.163  65.033  1.00  0.00     0.000 HD 
BRANCH  15  18
HETATM   18  C   UNL     1      -9.046   9.337  66.636  1.00  0.00    -0.143 C  
BRANCH  18  19
HETATM   19  O   UNL     1      -9.163  10.125  67.817  1.00  0.00    -0.137 OA 
BRANCH  19  20
HETATM   20  C   UNL     1      -8.126  10.018  68.713  1.00  0.00    -0.106 A  
HETATM   21  C   UNL     1      -6.800  10.406  68.449  1.00  0.00    -0.064 A  
HETATM   22  C   UNL     1      -5.805  10.296  69.415  1.00  0.00    -0.037 A  
HETATM   23  C   UNL     1      -6.088   9.797  70.685  1.00  0.00    -0.088 A  
HETATM   24  C   UNL     1      -7.407   9.403  70.941  1.00  0.00    -0.075 A  
HETATM   25  C   UNL     1      -8.428   9.493  69.994  1.00  0.00    -0.210 A  
HETATM   26  C   UNL     1      -9.621   8.983  70.607  1.00  0.00    -0.289 A  
HETATM   27  C   UNL     1     -10.949   8.796  70.165  1.00  0.00    -0.236 A  
HETATM   28  C   UNL     1     -11.902   8.264  71.040  1.00  0.00    -0.276 A  
HETATM   29  C   UNL     1     -11.548   7.918  72.343  1.00  0.00    -0.436 A  
HETATM   30  C   UNL     1     -10.240   8.088  72.805  1.00  0.00    -0.389 A  
HETATM   31  C   UNL     1      -9.300   8.618  71.911  1.00  0.00    -0.287 A  
HETATM   32  N   UNL     1      -7.965   8.880  72.086  1.00  0.00    -0.367 NA 
HETATM   33  H   UNL     1      -7.452   8.709  72.951  1.00  0.00     0.000 HD 
ENDBRANCH  19  20
ENDBRANCH  18  19
ENDBRANCH  15  18
ENDBRANCH  14  15
ENDBRANCH  12  14
ENDBRANCH  11  12
ENDBRANCH  10  11
ENDBRANCH   9  10
ENDBRANCH   8   9
ENDBRANCH   2   3
TORSDOF 10
ENDMDL
MODEL      203
REMARK 921   NORMALIZED FREE ENERGY PREDICTED BY IDOCK:   -4.65 KCAL/MOL
REMARK 922        TOTAL FREE ENERGY PREDICTED BY IDOCK:   -9.22 KCAL/MOL
REMARK 923 INTER-LIGAND FREE ENERGY PREDICTED BY IDOCK:   -8.11 KCAL/MOL
REMARK 924 INTRA-LIGAND FREE ENERGY PREDICTED BY IDOCK:   -1.10 KCAL/MOL
REMARK 927      BINDING AFFINITY PREDICTED BY RF-SCORE:    0.00 PKD
ROOT
HETATM    1  C   UNL     1      -8.317  11.001  66.020  1.00  0.00    -0.147 C  
HETATM    2  O   UNL     1      -9.208  12.074  66.315  1.00  0.00    -0.225 OA 
ENDROOT
BRANCH   2   3
HETATM    3  C   UNL     1     -10.156  12.354  65.362  1.00  0.00    -0.269 A  
HETATM    4  C   UNL     1     -10.468  11.431  64.351  1.00  0.00    -0.388 A  
HETATM    5  C   UNL     1     -11.467  11.700  63.416  1.00  0.00    -0.360 A  
HETATM    6  C   UNL     1     -12.151  12.908  63.462  1.00  0.00    -0.633 A  
HETATM    7  C   UNL     1     -11.815  13.853  64.429  1.00  0.00    -0.456 A  
HETATM    8  C   UNL     1     -10.815  13.599  65.379  1.00  0.00    -0.301 A  
BRANCH   8   9
HETATM    9  O   UNL     1     -10.642  14.656  66.240  1.00  0.00    -0.293 OA 
BRANCH   9  10
HETATM   10  C   UNL     1     -11.557  14.768  67.324  1.00  0.00    -0.369 C  
BRANCH  10  11
HETATM   11  C   UNL     1     -10.798  14.762  68.662  1.00  0.00    -0.253 C  
BRANCH  11  12
HETATM   12  N   UNL     1     -11.280  13.746  69.615  1.00  0.00    -0.440 NA 
HETATM   13  H   UNL     1     -12.291  13.805  69.737  1.00  0.00     0.000 HD 
BRANCH  12  14
HETATM   14  C   UNL     1     -10.869  12.377  69.233  1.00  0.00    -0.019 C  
BRANCH  14  15
HETATM   15  C   UNL     1     -12.049  11.381  69.255  1.00  0.00    -0.289 C  
HETATM   16  O   UNL     1     -12.102  10.680  68.009  1.00  0.00    -0.755 OA 
HETATM   17  H   UNL     1     -12.827  10.066  68.023  1.00  0.00     0.000 HD 
BRANCH  15  18
HETATM   18  C   UNL     1     -11.895  10.401  70.425  1.00  0.00    -0.328 C  
BRANCH  18  19
HETATM   19  O   UNL     1     -11.006   9.342  70.088  1.00  0.00    -0.235 OA 
BRANCH  19  20
HETATM   20  C   UNL     1     -11.033   8.249  70.922  1.00  0.00    -0.246 A  
HETATM   21  C   UNL     1     -12.190   7.508  71.227  1.00  0.00    -0.357 A  
HETATM   22  C   UNL     1     -12.139   6.393  72.058  1.00  0.00    -0.353 A  
HETATM   23  C   UNL     1     -10.936   5.968  72.618  1.00  0.00    -0.301 A  
HETATM   24  C   UNL     1      -9.789   6.713  72.319  1.00  0.00    -0.152 A  
HETATM   25  C   UNL     1      -9.804   7.840  71.495  1.00  0.00    -0.200 A  
HETATM   26  C   UNL     1      -8.462   8.343  71.440  1.00  0.00    -0.195 A  
HETATM   27  C   UNL     1      -7.851   9.445  70.804  1.00  0.00    -0.151 A  
HETATM   28  C   UNL     1      -6.476   9.658  70.952  1.00  0.00    -0.083 A  
HETATM   29  C   UNL     1      -5.708   8.789  71.722  1.00  0.00    -0.055 A  
HETATM   30  C   UNL     1      -6.286   7.691  72.368  1.00  0.00    -0.051 A  
HETATM   31  C   UNL     1      -7.666   7.500  72.210  1.00  0.00    -0.090 A  
HETATM   32  N   UNL     1      -8.487   6.530  72.727  1.00  0.00    -0.120 NA 
HETATM   33  H   UNL     1      -8.174   5.773  73.334  1.00  0.00     0.000 HD 
ENDBRANCH  19  20
ENDBRANCH  18  19
ENDBRANCH  15  18
ENDBRANCH  14  15
ENDBRANCH  12  14
ENDBRANCH  11  12
ENDBRANCH  10  11
ENDBRANCH   9  10
ENDBRANCH   8   9
ENDBRANCH   2   3
TORSDOF 10
ENDMDL
MODEL      204
REMARK 921   NORMALIZED FREE ENERGY PREDICTED BY IDOCK:   -4.63 KCAL/MOL
REMARK 922        TOTAL FREE ENERGY PREDICTED BY IDOCK:   -9.18 KCAL/MOL
REMARK 923 INTER-LIGAND FREE ENERGY PREDICTED BY IDOCK:   -7.90 KCAL/MOL
REMARK 924 INTRA-LIGAND FREE ENERGY PREDICTED BY IDOCK:   -1.28 KCAL/MOL
REMARK 927      BINDING AFFINITY PREDICTED BY RF-SCORE:    0.00 PKD
ROOT
HETATM    1  C   UNL     1     -13.669   9.509  72.623  1.00  0.00    -0.179 C  
HETATM    2  O   UNL     1     -13.485   8.702  71.462  1.00  0.00    -0.343 OA 
ENDROOT
BRANCH   2   3
HETATM    3  C   UNL     1     -12.282   8.049  71.362  1.00  0.00    -0.309 A  
HETATM    4  C   UNL     1     -12.145   6.708  71.756  1.00  0.00    -0.400 A  
HETATM    5  C   UNL     1     -10.933   6.035  71.605  1.00  0.00    -0.328 A  
HETATM    6  C   UNL     1      -9.832   6.701  71.083  1.00  0.00    -0.195 A  
HETATM    7  C   UNL     1      -9.941   8.046  70.736  1.00  0.00    -0.202 A  
HETATM    8  C   UNL     1     -11.153   8.738  70.878  1.00  0.00    -0.268 A  
BRANCH   8   9
HETATM    9  O   UNL     1     -11.046  10.049  70.478  1.00  0.00    -0.287 OA 
BRANCH   9  10
HETATM   10  C   UNL     1     -11.889  10.474  69.414  1.00  0.00    -0.199 C  
BRANCH  10  11
HETATM   11  C   UNL     1     -11.051  10.776  68.160  1.00  0.00    -0.280 C  
BRANCH  11  12
HETATM   12  N   UNL     1     -10.560   9.570  67.469  1.00  0.00    -0.275 NA 
HETATM   13  H   UNL     1     -11.165   9.322  66.686  1.00  0.00     0.000 HD 
BRANCH  12  14
HETATM   14  C   UNL     1      -9.153   9.707  67.033  1.00  0.00    -0.135 C  
BRANCH  14  15
HETATM   15  C   UNL     1      -8.206  10.054  68.203  1.00  0.00    -0.109 C  
HETATM   16  O   UNL     1      -7.383   8.923  68.499  1.00  0.00    -0.078 OA 
HETATM   17  H   UNL     1      -6.800   9.136  69.219  1.00  0.00     0.000 HD 
BRANCH  15  18
HETATM   18  C   UNL     1      -7.348  11.275  67.847  1.00  0.00    -0.092 C  
BRANCH  18  19
HETATM   19  O   UNL     1      -7.999  12.090  66.878  1.00  0.00    -0.162 OA 
BRANCH  19  20
HETATM   20  C   UNL     1      -8.478  13.295  67.335  1.00  0.00    -0.206 A  
HETATM   21  C   UNL     1      -7.939  14.007  68.422  1.00  0.00    -0.143 A  
HETATM   22  C   UNL     1      -8.457  15.238  68.812  1.00  0.00    -0.181 A  
HETATM   23  C   UNL     1      -9.531  15.813  68.135  1.00  0.00    -0.199 A  
HETATM   24  C   UNL     1     -10.070  15.098  67.059  1.00  0.00    -0.244 A  
HETATM   25  C   UNL     1      -9.579  13.858  66.645  1.00  0.00    -0.297 A  
HETATM   26  C   UNL     1     -10.388  13.430  65.540  1.00  0.00    -0.302 A  
HETATM   27  C   UNL     1     -10.405  12.279  64.722  1.00  0.00    -0.320 A  
HETATM   28  C   UNL     1     -11.348  12.171  63.695  1.00  0.00    -0.545 A  
HETATM   29  C   UNL     1     -12.270  13.192  63.475  1.00  0.00    -0.552 A  
HETATM   30  C   UNL     1     -12.280  14.341  64.272  1.00  0.00    -0.451 A  
HETATM   31  C   UNL     1     -11.329  14.426  65.298  1.00  0.00    -0.346 A  
HETATM   32  N   UNL     1     -11.117  15.415  66.224  1.00  0.00    -0.278 NA 
HETATM   33  H   UNL     1     -11.664  16.275  66.286  1.00  0.00     0.000 HD 
ENDBRANCH  19  20
ENDBRANCH  18  19
ENDBRANCH  15  18
ENDBRANCH  14  15
ENDBRANCH  12  14
ENDBRANCH  11  12
ENDBRANCH  10  11
ENDBRANCH   9  10
ENDBRANCH   8   9
ENDBRANCH   2   3
TORSDOF 10
ENDMDL
MODEL      205
REMARK 921   NORMALIZED FREE ENERGY PREDICTED BY IDOCK:   -4.63 KCAL/MOL
REMARK 922        TOTAL FREE ENERGY PREDICTED BY IDOCK:   -9.18 KCAL/MOL
REMARK 923 INTER-LIGAND FREE ENERGY PREDICTED BY IDOCK:   -7.91 KCAL/MOL
REMARK 924 INTRA-LIGAND FREE ENERGY PREDICTED BY IDOCK:   -1.26 KCAL/MOL
REMARK 927      BINDING AFFINITY PREDICTED BY RF-SCORE:    0.00 PKD
ROOT
HETATM    1  C   UNL     1      -7.146   8.372  65.995  1.00  0.00    -0.069 C  
HETATM    2  O   UNL     1      -8.523   8.310  65.631  1.00  0.00    -0.142 OA 
ENDROOT
BRANCH   2   3
HETATM    3  C   UNL     1      -8.980   9.313  64.814  1.00  0.00    -0.168 A  
HETATM    4  C   UNL     1      -8.460   9.496  63.522  1.00  0.00    -0.197 A  
HETATM    5  C   UNL     1      -8.964  10.486  62.679  1.00  0.00    -0.291 A  
HETATM    6  C   UNL     1      -9.977  11.325  63.124  1.00  0.00    -0.398 A  
HETATM    7  C   UNL     1     -10.466  11.187  64.421  1.00  0.00    -0.418 A  
HETATM    8  C   UNL     1      -9.973  10.196  65.283  1.00  0.00    -0.311 A  
BRANCH   8   9
HETATM    9  O   UNL     1     -10.589  10.230  66.511  1.00  0.00    -0.207 OA 
BRANCH   9  10
HETATM   10  C   UNL     1      -9.754  10.367  67.654  1.00  0.00    -0.168 C  
BRANCH  10  11
HETATM   11  C   UNL     1      -9.878  11.785  68.236  1.00  0.00    -0.198 C  
BRANCH  11  12
HETATM   12  N   UNL     1      -8.609  12.330  68.752  1.00  0.00    -0.367 NA 
HETATM   13  H   UNL     1      -8.000  11.587  69.094  1.00  0.00     0.000 HD 
BRANCH  12  14
HETATM   14  C   UNL     1      -7.914  13.174  67.756  1.00  0.00    -0.162 C  
BRANCH  14  15
HETATM   15  C   UNL     1      -6.870  14.110  68.404  1.00  0.00    -0.098 C  
HETATM   16  O   UNL     1      -6.067  14.707  67.381  1.00  0.00    -0.339 OA 
HETATM   17  H   UNL     1      -5.425  15.283  67.780  1.00  0.00     0.000 HD 
BRANCH  15  18
HETATM   18  C   UNL     1      -7.569  15.185  69.245  1.00  0.00    -0.201 C  
BRANCH  18  19
HETATM   19  O   UNL     1      -8.847  15.503  68.704  1.00  0.00    -0.173 OA 
BRANCH  19  20
HETATM   20  C   UNL     1      -8.939  16.714  68.061  1.00  0.00    -0.211 A  
HETATM   21  C   UNL     1      -8.267  17.883  68.462  1.00  0.00    -0.300 A  
HETATM   22  C   UNL     1      -8.383  19.070  67.745  1.00  0.00    -0.318 A  
HETATM   23  C   UNL     1      -9.173  19.144  66.599  1.00  0.00    -0.367 A  
HETATM   24  C   UNL     1      -9.848  17.980  66.208  1.00  0.00    -0.307 A  
HETATM   25  C   UNL     1      -9.758  16.775  66.907  1.00  0.00    -0.263 A  
HETATM   26  C   UNL     1     -10.594  15.828  66.226  1.00  0.00    -0.313 A  
HETATM   27  C   UNL     1     -10.931  14.476  66.451  1.00  0.00    -0.324 A  
HETATM   28  C   UNL     1     -11.796  13.821  65.568  1.00  0.00    -0.378 A  
HETATM   29  C   UNL     1     -12.325  14.494  64.470  1.00  0.00    -0.434 A  
HETATM   30  C   UNL     1     -12.013  15.835  64.225  1.00  0.00    -0.062 A  
HETATM   31  C   UNL     1     -11.148  16.473  65.124  1.00  0.00    -0.129 A  
HETATM   32  N   UNL     1     -10.685  17.764  65.137  1.00  0.00    -0.605 NA 
HETATM   33  H   UNL     1     -10.929  18.472  64.444  1.00  0.00     0.000 HD 
ENDBRANCH  19  20
ENDBRANCH  18  19
ENDBRANCH  15  18
ENDBRANCH  14  15
ENDBRANCH  12  14
ENDBRANCH  11  12
ENDBRANCH  10  11
ENDBRANCH   9  10
ENDBRANCH   8   9
ENDBRANCH   2   3
TORSDOF 10
ENDMDL
MODEL      206
REMARK 921   NORMALIZED FREE ENERGY PREDICTED BY IDOCK:   -4.62 KCAL/MOL
REMARK 922        TOTAL FREE ENERGY PREDICTED BY IDOCK:   -9.18 KCAL/MOL
REMARK 923 INTER-LIGAND FREE ENERGY PREDICTED BY IDOCK:   -7.64 KCAL/MOL
REMARK 924 INTRA-LIGAND FREE ENERGY PREDICTED BY IDOCK:   -1.54 KCAL/MOL
REMARK 927      BINDING AFFINITY PREDICTED BY RF-SCORE:    0.00 PKD
ROOT
HETATM    1  C   UNL     1     -11.867  11.957  68.611  1.00  0.00    -0.308 C  
HETATM    2  O   UNL     1     -12.018  11.658  67.225  1.00  0.00    -0.627 OA 
ENDROOT
BRANCH   2   3
HETATM    3  C   UNL     1     -11.724  12.673  66.351  1.00  0.00    -0.405 A  
HETATM    4  C   UNL     1     -12.737  13.470  65.791  1.00  0.00    -0.433 A  
HETATM    5  C   UNL     1     -12.428  14.532  64.943  1.00  0.00    -0.321 A  
HETATM    6  C   UNL     1     -11.104  14.798  64.619  1.00  0.00    -0.337 A  
HETATM    7  C   UNL     1     -10.094  13.984  65.127  1.00  0.00    -0.343 A  
HETATM    8  C   UNL     1     -10.385  12.912  65.984  1.00  0.00    -0.283 A  
BRANCH   8   9
HETATM    9  O   UNL     1      -9.250  12.240  66.371  1.00  0.00    -0.227 OA 
BRANCH   9  10
HETATM   10  C   UNL     1      -8.983  10.995  65.738  1.00  0.00    -0.195 C  
BRANCH  10  11
HETATM   11  C   UNL     1      -7.535  10.558  66.015  1.00  0.00    -0.137 C  
BRANCH  11  12
HETATM   12  N   UNL     1      -7.366   9.832  67.287  1.00  0.00    -0.087 NA 
HETATM   13  H   UNL     1      -6.979   8.901  67.132  1.00  0.00     0.000 HD 
BRANCH  12  14
HETATM   14  C   UNL     1      -6.554  10.591  68.263  1.00  0.00    -0.059 C  
BRANCH  14  15
HETATM   15  C   UNL     1      -7.385  11.069  69.474  1.00  0.00    -0.061 C  
HETATM   16  O   UNL     1      -8.307  12.076  69.049  1.00  0.00    -0.356 OA 
HETATM   17  H   UNL     1      -8.819  12.370  69.795  1.00  0.00     0.000 HD 
BRANCH  15  18
HETATM   18  C   UNL     1      -8.125   9.885  70.111  1.00  0.00    -0.146 C  
BRANCH  18  19
HETATM   19  O   UNL     1      -9.420   9.730  69.540  1.00  0.00    -0.185 OA 
BRANCH  19  20
HETATM   20  C   UNL     1     -10.346   9.084  70.325  1.00  0.00    -0.209 A  
HETATM   21  C   UNL     1     -11.271   9.733  71.164  1.00  0.00    -0.444 A  
HETATM   22  C   UNL     1     -12.201   9.016  71.910  1.00  0.00    -0.451 A  
HETATM   23  C   UNL     1     -12.251   7.624  71.852  1.00  0.00    -0.336 A  
HETATM   24  C   UNL     1     -11.323   6.982  71.023  1.00  0.00    -0.287 A  
HETATM   25  C   UNL     1     -10.372   7.669  70.266  1.00  0.00    -0.214 A  
HETATM   26  C   UNL     1      -9.595   6.685  69.569  1.00  0.00    -0.150 A  
HETATM   27  C   UNL     1      -8.497   6.749  68.683  1.00  0.00    -0.123 A  
HETATM   28  C   UNL     1      -7.960   5.568  68.159  1.00  0.00    -0.096 A  
HETATM   29  C   UNL     1      -8.501   4.332  68.506  1.00  0.00    -0.103 A  
HETATM   30  C   UNL     1      -9.585   4.240  69.384  1.00  0.00    -0.267 A  
HETATM   31  C   UNL     1     -10.105   5.434  69.901  1.00  0.00    -0.252 A  
HETATM   32  N   UNL     1     -11.141   5.640  70.776  1.00  0.00    -0.198 NA 
HETATM   33  H   UNL     1     -11.703   4.896  71.189  1.00  0.00     0.000 HD 
ENDBRANCH  19  20
ENDBRANCH  18  19
ENDBRANCH  15  18
ENDBRANCH  14  15
ENDBRANCH  12  14
ENDBRANCH  11  12
ENDBRANCH  10  11
ENDBRANCH   9  10
ENDBRANCH   8   9
ENDBRANCH   2   3
TORSDOF 10
ENDMDL
MODEL      207
REMARK 921   NORMALIZED FREE ENERGY PREDICTED BY IDOCK:   -4.62 KCAL/MOL
REMARK 922        TOTAL FREE ENERGY PREDICTED BY IDOCK:   -9.16 KCAL/MOL
REMARK 923 INTER-LIGAND FREE ENERGY PREDICTED BY IDOCK:   -6.68 KCAL/MOL
REMARK 924 INTRA-LIGAND FREE ENERGY PREDICTED BY IDOCK:   -2.48 KCAL/MOL
REMARK 927      BINDING AFFINITY PREDICTED BY RF-SCORE:    0.00 PKD
ROOT
HETATM    1  C   UNL     1      -6.744   5.079  69.736  1.00  0.00    -0.047 C  
HETATM    2  O   UNL     1      -6.229   5.744  70.887  1.00  0.00    -0.032 OA 
ENDROOT
BRANCH   2   3
HETATM    3  C   UNL     1      -7.119   6.516  71.589  1.00  0.00    -0.081 A  
HETATM    4  C   UNL     1      -7.999   5.947  72.525  1.00  0.00    -0.102 A  
HETATM    5  C   UNL     1      -8.866   6.744  73.272  1.00  0.00    -0.140 A  
HETATM    6  C   UNL     1      -8.887   8.119  73.076  1.00  0.00    -0.316 A  
HETATM    7  C   UNL     1      -8.055   8.690  72.114  1.00  0.00    -0.110 A  
HETATM    8  C   UNL     1      -7.174   7.905  71.355  1.00  0.00    -0.065 A  
BRANCH   8   9
HETATM    9  O   UNL     1      -6.446   8.661  70.468  1.00  0.00    -0.035 OA 
BRANCH   9  10
HETATM   10  C   UNL     1      -6.906   9.981  70.208  1.00  0.00    -0.147 C  
BRANCH  10  11
HETATM   11  C   UNL     1      -6.593  10.376  68.754  1.00  0.00    -0.052 C  
BRANCH  11  12
HETATM   12  N   UNL     1      -7.407   9.660  67.755  1.00  0.00    -0.086 NA 
HETATM   13  H   UNL     1      -7.456   8.663  67.965  1.00  0.00     0.000 HD 
BRANCH  12  14
HETATM   14  C   UNL     1      -8.759  10.242  67.609  1.00  0.00    -0.121 C  
BRANCH  14  15
HETATM   15  C   UNL     1      -9.720   9.312  66.837  1.00  0.00    -0.190 C  
HETATM   16  O   UNL     1      -8.968   8.500  65.930  1.00  0.00    -0.173 OA 
HETATM   17  H   UNL     1      -9.559   7.928  65.455  1.00  0.00     0.000 HD 
BRANCH  15  18
HETATM   18  C   UNL     1     -10.517   8.441  67.815  1.00  0.00    -0.220 C  
BRANCH  18  19
HETATM   19  O   UNL     1     -10.192   8.763  69.164  1.00  0.00    -0.197 OA 
BRANCH  19  20
HETATM   20  C   UNL     1     -11.095   8.346  70.113  1.00  0.00    -0.182 A  
HETATM   21  C   UNL     1     -11.298   7.005  70.486  1.00  0.00    -0.355 A  
HETATM   22  C   UNL     1     -12.210   6.657  71.477  1.00  0.00    -0.391 A  
HETATM   23  C   UNL     1     -12.958   7.628  72.140  1.00  0.00    -0.133 A  
HETATM   24  C   UNL     1     -12.760   8.962  71.759  1.00  0.00    -0.364 A  
HETATM   25  C   UNL     1     -11.858   9.345  70.765  1.00  0.00    -0.323 A  
HETATM   26  C   UNL     1     -11.947  10.772  70.641  1.00  0.00    -0.466 A  
HETATM   27  C   UNL     1     -11.316  11.727  69.814  1.00  0.00    -0.245 A  
HETATM   28  C   UNL     1     -11.632  13.083  69.955  1.00  0.00    -0.249 A  
HETATM   29  C   UNL     1     -12.563  13.495  70.906  1.00  0.00    -0.414 A  
HETATM   30  C   UNL     1     -13.206  12.571  71.735  1.00  0.00    -0.444 A  
HETATM   31  C   UNL     1     -12.878  11.218  71.574  1.00  0.00    -0.414 A  
HETATM   32  N   UNL     1     -13.352  10.111  72.231  1.00  0.00    -0.590 NA 
HETATM   33  H   UNL     1     -14.052  10.136  72.973  1.00  0.00     0.000 HD 
ENDBRANCH  19  20
ENDBRANCH  18  19
ENDBRANCH  15  18
ENDBRANCH  14  15
ENDBRANCH  12  14
ENDBRANCH  11  12
ENDBRANCH  10  11
ENDBRANCH   9  10
ENDBRANCH   8   9
ENDBRANCH   2   3
TORSDOF 10
ENDMDL
MODEL      208
REMARK 921   NORMALIZED FREE ENERGY PREDICTED BY IDOCK:   -4.62 KCAL/MOL
REMARK 922        TOTAL FREE ENERGY PREDICTED BY IDOCK:   -9.16 KCAL/MOL
REMARK 923 INTER-LIGAND FREE ENERGY PREDICTED BY IDOCK:   -7.88 KCAL/MOL
REMARK 924 INTRA-LIGAND FREE ENERGY PREDICTED BY IDOCK:   -1.28 KCAL/MOL
REMARK 927      BINDING AFFINITY PREDICTED BY RF-SCORE:    0.00 PKD
ROOT
HETATM    1  C   UNL     1     -12.751  11.847  63.522  1.00  0.00    -0.405 C  
HETATM    2  O   UNL     1     -11.691  12.596  64.115  1.00  0.00    -0.343 OA 
ENDROOT
BRANCH   2   3
HETATM    3  C   UNL     1     -11.609  12.548  65.483  1.00  0.00    -0.386 A  
HETATM    4  C   UNL     1     -12.205  13.536  66.285  1.00  0.00    -0.468 A  
HETATM    5  C   UNL     1     -12.160  13.454  67.676  1.00  0.00    -0.311 A  
HETATM    6  C   UNL     1     -11.495  12.399  68.288  1.00  0.00    -0.360 A  
HETATM    7  C   UNL     1     -10.856  11.441  67.503  1.00  0.00    -0.291 A  
HETATM    8  C   UNL     1     -10.892  11.505  66.102  1.00  0.00    -0.278 A  
BRANCH   8   9
HETATM    9  O   UNL     1     -10.204  10.466  65.522  1.00  0.00    -0.278 OA 
BRANCH   9  10
HETATM   10  C   UNL     1      -9.291   9.751  66.345  1.00  0.00    -0.171 C  
BRANCH  10  11
HETATM   11  C   UNL     1      -8.719   8.545  65.581  1.00  0.00    -0.181 C  
BRANCH  11  12
HETATM   12  N   UNL     1      -9.396   7.272  65.886  1.00  0.00    -0.389 NA 
HETATM   13  H   UNL     1      -9.805   6.861  65.046  1.00  0.00     0.000 HD 
BRANCH  12  14
HETATM   14  C   UNL     1      -8.504   6.311  66.570  1.00  0.00    -0.121 C  
BRANCH  14  15
HETATM   15  C   UNL     1      -8.787   4.849  66.158  1.00  0.00    -0.122 C  
HETATM   16  O   UNL     1      -7.555   4.203  65.825  1.00  0.00    -0.083 OA 
HETATM   17  H   UNL     1      -7.729   3.304  65.572  1.00  0.00     0.000 HD 
BRANCH  15  18
HETATM   18  C   UNL     1      -9.503   4.106  67.293  1.00  0.00    -0.189 C  
BRANCH  18  19
HETATM   19  O   UNL     1      -9.856   5.001  68.343  1.00  0.00    -0.144 OA 
BRANCH  19  20
HETATM   20  C   UNL     1      -9.845   4.469  69.611  1.00  0.00    -0.218 A  
HETATM   21  C   UNL     1      -9.464   3.150  69.919  1.00  0.00    -0.203 A  
HETATM   22  C   UNL     1      -9.449   2.687  71.231  1.00  0.00    -0.218 A  
HETATM   23  C   UNL     1      -9.811   3.515  72.291  1.00  0.00    -0.233 A  
HETATM   24  C   UNL     1     -10.199   4.825  71.979  1.00  0.00    -0.195 A  
HETATM   25  C   UNL     1     -10.232   5.320  70.675  1.00  0.00    -0.327 A  
HETATM   26  C   UNL     1     -10.694   6.677  70.749  1.00  0.00    -0.282 A  
HETATM   27  C   UNL     1     -10.953   7.680  69.790  1.00  0.00    -0.178 A  
HETATM   28  C   UNL     1     -11.404   8.937  70.205  1.00  0.00    -0.179 A  
HETATM   29  C   UNL     1     -11.598   9.204  71.559  1.00  0.00    -0.439 A  
HETATM   30  C   UNL     1     -11.354   8.228  72.530  1.00  0.00    -0.455 A  
HETATM   31  C   UNL     1     -10.908   6.975  72.091  1.00  0.00    -0.224 A  
HETATM   32  N   UNL     1     -10.604   5.846  72.808  1.00  0.00    -0.213 NA 
HETATM   33  H   UNL     1     -10.669   5.772  73.824  1.00  0.00     0.000 HD 
ENDBRANCH  19  20
ENDBRANCH  18  19
ENDBRANCH  15  18
ENDBRANCH  14  15
ENDBRANCH  12  14
ENDBRANCH  11  12
ENDBRANCH  10  11
ENDBRANCH   9  10
ENDBRANCH   8   9
ENDBRANCH   2   3
TORSDOF 10
ENDMDL
MODEL      209
REMARK 921   NORMALIZED FREE ENERGY PREDICTED BY IDOCK:   -4.61 KCAL/MOL
REMARK 922        TOTAL FREE ENERGY PREDICTED BY IDOCK:   -9.15 KCAL/MOL
REMARK 923 INTER-LIGAND FREE ENERGY PREDICTED BY IDOCK:   -8.27 KCAL/MOL
REMARK 924 INTRA-LIGAND FREE ENERGY PREDICTED BY IDOCK:   -0.88 KCAL/MOL
REMARK 927      BINDING AFFINITY PREDICTED BY RF-SCORE:    0.00 PKD
ROOT
HETATM    1  C   UNL     1      -8.330  11.079  66.184  1.00  0.00    -0.163 C  
HETATM    2  O   UNL     1      -9.321  12.049  66.515  1.00  0.00    -0.212 OA 
ENDROOT
BRANCH   2   3
HETATM    3  C   UNL     1     -10.224  12.354  65.528  1.00  0.00    -0.274 A  
HETATM    4  C   UNL     1     -10.242  11.649  64.313  1.00  0.00    -0.357 A  
HETATM    5  C   UNL     1     -11.195  11.930  63.334  1.00  0.00    -0.463 A  
HETATM    6  C   UNL     1     -12.128  12.937  63.544  1.00  0.00    -0.633 A  
HETATM    7  C   UNL     1     -12.088  13.678  64.724  1.00  0.00    -0.435 A  
HETATM    8  C   UNL     1     -11.138  13.408  65.721  1.00  0.00    -0.282 A  
BRANCH   8   9
HETATM    9  O   UNL     1     -11.273  14.249  66.800  1.00  0.00    -0.313 OA 
BRANCH   9  10
HETATM   10  C   UNL     1     -12.124  13.820  67.855  1.00  0.00    -0.287 C  
BRANCH  10  11
HETATM   11  C   UNL     1     -11.467  14.105  69.217  1.00  0.00    -0.292 C  
BRANCH  11  12
HETATM   12  N   UNL     1     -11.613  13.008  70.190  1.00  0.00    -0.536 NA 
HETATM   13  H   UNL     1     -12.318  13.230  70.893  1.00  0.00     0.000 HD 
BRANCH  12  14
HETATM   14  C   UNL     1     -11.901  11.712  69.537  1.00  0.00    -0.348 C  
BRANCH  14  15
HETATM   15  C   UNL     1     -12.045  10.559  70.554  1.00  0.00    -0.345 C  
HETATM   16  O   UNL     1     -13.362  10.007  70.462  1.00  0.00    -0.605 OA 
HETATM   17  H   UNL     1     -13.451   9.297  71.088  1.00  0.00     0.000 HD 
BRANCH  15  18
HETATM   18  C   UNL     1     -10.983   9.484  70.293  1.00  0.00    -0.269 C  
BRANCH  18  19
HETATM   19  O   UNL     1     -10.333   9.108  71.503  1.00  0.00    -0.320 OA 
BRANCH  19  20
HETATM   20  C   UNL     1      -9.066   8.592  71.365  1.00  0.00    -0.206 A  
HETATM   21  C   UNL     1      -7.963   9.308  70.864  1.00  0.00    -0.161 A  
HETATM   22  C   UNL     1      -6.700   8.730  70.780  1.00  0.00    -0.053 A  
HETATM   23  C   UNL     1      -6.481   7.417  71.191  1.00  0.00    -0.039 A  
HETATM   24  C   UNL     1      -7.583   6.704  71.680  1.00  0.00    -0.093 A  
HETATM   25  C   UNL     1      -8.864   7.250  71.772  1.00  0.00    -0.124 A  
HETATM   26  C   UNL     1      -9.724   6.226  72.293  1.00  0.00    -0.165 A  
HETATM   27  C   UNL     1     -11.103   6.158  72.588  1.00  0.00    -0.308 A  
HETATM   28  C   UNL     1     -11.644   4.976  73.107  1.00  0.00    -0.299 A  
HETATM   29  C   UNL     1     -10.830   3.869  73.333  1.00  0.00    -0.318 A  
HETATM   30  C   UNL     1      -9.462   3.907  73.046  1.00  0.00    -0.144 A  
HETATM   31  C   UNL     1      -8.942   5.098  72.523  1.00  0.00    -0.130 A  
HETATM   32  N   UNL     1      -7.661   5.412  72.146  1.00  0.00    -0.099 NA 
HETATM   33  H   UNL     1      -6.870   4.770  72.203  1.00  0.00     0.000 HD 
ENDBRANCH  19  20
ENDBRANCH  18  19
ENDBRANCH  15  18
ENDBRANCH  14  15
ENDBRANCH  12  14
ENDBRANCH  11  12
ENDBRANCH  10  11
ENDBRANCH   9  10
ENDBRANCH   8   9
ENDBRANCH   2   3
TORSDOF 10
ENDMDL
MODEL      210
REMARK 921   NORMALIZED FREE ENERGY PREDICTED BY IDOCK:   -4.60 KCAL/MOL
REMARK 922        TOTAL FREE ENERGY PREDICTED BY IDOCK:   -9.14 KCAL/MOL
REMARK 923 INTER-LIGAND FREE ENERGY PREDICTED BY IDOCK:   -8.16 KCAL/MOL
REMARK 924 INTRA-LIGAND FREE ENERGY PREDICTED BY IDOCK:   -0.97 KCAL/MOL
REMARK 927      BINDING AFFINITY PREDICTED BY RF-SCORE:    0.00 PKD
ROOT
HETATM    1  C   UNL     1      -8.735  14.198  67.393  1.00  0.00    -0.210 C  
HETATM    2  O   UNL     1      -9.281  15.042  66.381  1.00  0.00    -0.271 OA 
ENDROOT
BRANCH   2   3
HETATM    3  C   UNL     1      -9.417  16.368  66.708  1.00  0.00    -0.247 A  
HETATM    4  C   UNL     1      -8.554  17.342  66.179  1.00  0.00    -0.207 A  
HETATM    5  C   UNL     1      -8.730  18.693  66.475  1.00  0.00    -0.312 A  
HETATM    6  C   UNL     1      -9.754  19.089  67.325  1.00  0.00    -0.368 A  
HETATM    7  C   UNL     1     -10.585  18.127  67.896  1.00  0.00    -0.389 A  
HETATM    8  C   UNL     1     -10.426  16.764  67.609  1.00  0.00    -0.328 A  
BRANCH   8   9
HETATM    9  O   UNL     1     -11.346  15.987  68.271  1.00  0.00    -0.353 OA 
BRANCH   9  10
HETATM   10  C   UNL     1     -11.032  15.599  69.603  1.00  0.00    -0.288 C  
BRANCH  10  11
HETATM   11  C   UNL     1     -12.276  15.018  70.294  1.00  0.00    -0.340 C  
BRANCH  11  12
HETATM   12  N   UNL     1     -12.156  13.587  70.632  1.00  0.00    -0.466 NA 
HETATM   13  H   UNL     1     -13.022  13.230  71.037  1.00  0.00     0.000 HD 
BRANCH  12  14
HETATM   14  C   UNL     1     -11.732  12.771  69.473  1.00  0.00    -0.318 C  
BRANCH  14  15
HETATM   15  C   UNL     1     -11.625  11.270  69.820  1.00  0.00    -0.333 C  
HETATM   16  O   UNL     1     -12.882  10.634  69.569  1.00  0.00    -0.608 OA 
HETATM   17  H   UNL     1     -12.816   9.710  69.782  1.00  0.00     0.000 HD 
BRANCH  15  18
HETATM   18  C   UNL     1     -10.509  10.613  68.998  1.00  0.00    -0.214 C  
BRANCH  18  19
HETATM   19  O   UNL     1     -11.048   9.869  67.910  1.00  0.00    -0.262 OA 
BRANCH  19  20
HETATM   20  C   UNL     1     -10.826  10.393  66.659  1.00  0.00    -0.070 A  
HETATM   21  C   UNL     1     -11.428  11.565  66.166  1.00  0.00    -0.105 A  
HETATM   22  C   UNL     1     -11.134  12.054  64.897  1.00  0.00    -0.368 A  
HETATM   23  C   UNL     1     -10.227  11.399  64.066  1.00  0.00    -0.398 A  
HETATM   24  C   UNL     1      -9.636  10.228  64.557  1.00  0.00    -0.316 A  
HETATM   25  C   UNL     1      -9.913   9.706  65.822  1.00  0.00    -0.342 A  
HETATM   26  C   UNL     1      -9.145   8.502  65.960  1.00  0.00    -0.246 A  
HETATM   27  C   UNL     1      -9.012   7.533  66.978  1.00  0.00    -0.143 A  
HETATM   28  C   UNL     1      -8.148   6.448  66.795  1.00  0.00    -0.109 A  
HETATM   29  C   UNL     1      -7.418   6.320  65.616  1.00  0.00    -0.082 A  
HETATM   30  C   UNL     1      -7.533   7.261  64.589  1.00  0.00    -0.091 A  
HETATM   31  C   UNL     1      -8.408   8.337  64.791  1.00  0.00    -0.119 A  
HETATM   32  N   UNL     1      -8.722   9.386  63.965  1.00  0.00    -0.259 NA 
HETATM   33  H   UNL     1      -8.329   9.525  63.034  1.00  0.00     0.000 HD 
ENDBRANCH  19  20
ENDBRANCH  18  19
ENDBRANCH  15  18
ENDBRANCH  14  15
ENDBRANCH  12  14
ENDBRANCH  11  12
ENDBRANCH  10  11
ENDBRANCH   9  10
ENDBRANCH   8   9
ENDBRANCH   2   3
TORSDOF 10
ENDMDL
MODEL      211
REMARK 921   NORMALIZED FREE ENERGY PREDICTED BY IDOCK:   -4.60 KCAL/MOL
REMARK 922        TOTAL FREE ENERGY PREDICTED BY IDOCK:   -9.14 KCAL/MOL
REMARK 923 INTER-LIGAND FREE ENERGY PREDICTED BY IDOCK:   -6.15 KCAL/MOL
REMARK 924 INTRA-LIGAND FREE ENERGY PREDICTED BY IDOCK:   -2.98 KCAL/MOL
REMARK 927      BINDING AFFINITY PREDICTED BY RF-SCORE:    0.00 PKD
ROOT
HETATM    1  C   UNL     1      -6.693   5.483  68.920  1.00  0.00    -0.053 C  
HETATM    2  O   UNL     1      -6.089   5.968  70.117  1.00  0.00    -0.024 OA 
ENDROOT
BRANCH   2   3
HETATM    3  C   UNL     1      -6.890   6.722  70.938  1.00  0.00    -0.059 A  
HETATM    4  C   UNL     1      -7.521   6.158  72.059  1.00  0.00    -0.095 A  
HETATM    5  C   UNL     1      -8.292   6.941  72.917  1.00  0.00    -0.118 A  
HETATM    6  C   UNL     1      -8.467   8.292  72.653  1.00  0.00    -0.248 A  
HETATM    7  C   UNL     1      -7.888   8.853  71.516  1.00  0.00    -0.107 A  
HETATM    8  C   UNL     1      -7.107   8.082  70.642  1.00  0.00    -0.045 A  
BRANCH   8   9
HETATM    9  O   UNL     1      -6.630   8.824  69.588  1.00  0.00    -0.038 OA 
BRANCH   9  10
HETATM   10  C   UNL     1      -7.253  10.079  69.342  1.00  0.00    -0.087 C  
BRANCH  10  11
HETATM   11  C   UNL     1      -7.035  10.502  67.879  1.00  0.00    -0.077 C  
BRANCH  11  12
HETATM   12  N   UNL     1      -8.143  10.131  66.980  1.00  0.00    -0.116 NA 
HETATM   13  H   UNL     1      -8.727   9.405  67.396  1.00  0.00     0.000 HD 
BRANCH  12  14
HETATM   14  C   UNL     1      -8.952  11.300  66.573  1.00  0.00    -0.184 C  
BRANCH  14  15
HETATM   15  C   UNL     1     -10.355  10.898  66.069  1.00  0.00    -0.245 C  
HETATM   16  O   UNL     1     -10.252   9.712  65.274  1.00  0.00    -0.315 OA 
HETATM   17  H   UNL     1     -11.115   9.464  64.964  1.00  0.00     0.000 HD 
BRANCH  15  18
HETATM   18  C   UNL     1     -11.303  10.678  67.254  1.00  0.00    -0.040 C  
BRANCH  18  19
HETATM   19  O   UNL     1     -10.597  10.740  68.489  1.00  0.00    -0.173 OA 
BRANCH  19  20
HETATM   20  C   UNL     1     -11.371  10.897  69.614  1.00  0.00    -0.292 A  
HETATM   21  C   UNL     1     -11.909  12.123  70.047  1.00  0.00    -0.383 A  
HETATM   22  C   UNL     1     -12.710  12.204  71.182  1.00  0.00    -0.351 A  
HETATM   23  C   UNL     1     -13.011  11.068  71.932  1.00  0.00    -0.485 A  
HETATM   24  C   UNL     1     -12.466   9.852  71.503  1.00  0.00    -0.411 A  
HETATM   25  C   UNL     1     -11.654   9.736  70.374  1.00  0.00    -0.327 A  
HETATM   26  C   UNL     1     -11.274   8.356  70.266  1.00  0.00    -0.175 A  
HETATM   27  C   UNL     1     -10.464   7.628  69.367  1.00  0.00    -0.220 A  
HETATM   28  C   UNL     1     -10.299   6.250  69.543  1.00  0.00    -0.263 A  
HETATM   29  C   UNL     1     -10.929   5.593  70.598  1.00  0.00    -0.258 A  
HETATM   30  C   UNL     1     -11.733   6.290  71.505  1.00  0.00    -0.329 A  
HETATM   31  C   UNL     1     -11.881   7.670  71.313  1.00  0.00    -0.292 A  
HETATM   32  N   UNL     1     -12.590   8.591  72.041  1.00  0.00    -0.343 NA 
HETATM   33  H   UNL     1     -13.137   8.371  72.874  1.00  0.00     0.000 HD 
ENDBRANCH  19  20
ENDBRANCH  18  19
ENDBRANCH  15  18
ENDBRANCH  14  15
ENDBRANCH  12  14
ENDBRANCH  11  12
ENDBRANCH  10  11
ENDBRANCH   9  10
ENDBRANCH   8   9
ENDBRANCH   2   3
TORSDOF 10
ENDMDL
MODEL      212
REMARK 921   NORMALIZED FREE ENERGY PREDICTED BY IDOCK:   -4.59 KCAL/MOL
REMARK 922        TOTAL FREE ENERGY PREDICTED BY IDOCK:   -9.12 KCAL/MOL
REMARK 923 INTER-LIGAND FREE ENERGY PREDICTED BY IDOCK:   -8.13 KCAL/MOL
REMARK 924 INTRA-LIGAND FREE ENERGY PREDICTED BY IDOCK:   -0.99 KCAL/MOL
REMARK 927      BINDING AFFINITY PREDICTED BY RF-SCORE:    0.00 PKD
ROOT
HETATM    1  C   UNL     1     -11.245   7.945  71.411  1.00  0.00    -0.247 C  
HETATM    2  O   UNL     1     -11.768   7.090  70.397  1.00  0.00    -0.316 OA 
ENDROOT
BRANCH   2   3
HETATM    3  C   UNL     1     -11.014   5.987  70.086  1.00  0.00    -0.359 A  
HETATM    4  C   UNL     1     -10.464   5.173  71.090  1.00  0.00    -0.240 A  
HETATM    5  C   UNL     1      -9.741   4.025  70.768  1.00  0.00    -0.263 A  
HETATM    6  C   UNL     1      -9.532   3.689  69.437  1.00  0.00    -0.249 A  
HETATM    7  C   UNL     1     -10.029   4.516  68.431  1.00  0.00    -0.103 A  
HETATM    8  C   UNL     1     -10.761   5.673  68.736  1.00  0.00    -0.197 A  
BRANCH   8   9
HETATM    9  O   UNL     1     -11.160   6.343  67.604  1.00  0.00    -0.339 OA 
BRANCH   9  10
HETATM   10  C   UNL     1     -10.162   6.624  66.630  1.00  0.00    -0.138 C  
BRANCH  10  11
HETATM   11  C   UNL     1      -9.940   8.142  66.521  1.00  0.00    -0.232 C  
BRANCH  11  12
HETATM   12  N   UNL     1      -9.105   8.541  65.372  1.00  0.00    -0.404 NA 
HETATM   13  H   UNL     1      -9.574   8.339  64.489  1.00  0.00     0.000 HD 
BRANCH  12  14
HETATM   14  C   UNL     1      -8.691   9.959  65.445  1.00  0.00    -0.155 C  
BRANCH  14  15
HETATM   15  C   UNL     1      -9.514  10.861  64.500  1.00  0.00    -0.244 C  
HETATM   16  O   UNL     1      -9.932  10.101  63.362  1.00  0.00    -0.487 OA 
HETATM   17  H   UNL     1     -10.439  10.656  62.780  1.00  0.00     0.000 HD 
BRANCH  15  18
HETATM   18  C   UNL     1     -10.724  11.442  65.241  1.00  0.00    -0.265 C  
BRANCH  18  19
HETATM   19  O   UNL     1     -10.309  12.296  66.302  1.00  0.00    -0.225 OA 
BRANCH  19  20
HETATM   20  C   UNL     1     -10.939  12.103  67.508  1.00  0.00    -0.257 A  
HETATM   21  C   UNL     1     -11.523  10.889  67.916  1.00  0.00    -0.344 A  
HETATM   22  C   UNL     1     -12.120  10.756  69.166  1.00  0.00    -0.227 A  
HETATM   23  C   UNL     1     -12.161  11.823  70.061  1.00  0.00    -0.317 A  
HETATM   24  C   UNL     1     -11.587  13.032  69.647  1.00  0.00    -0.253 A  
HETATM   25  C   UNL     1     -10.986  13.202  68.399  1.00  0.00    -0.287 A  
HETATM   26  C   UNL     1     -10.537  14.563  68.328  1.00  0.00    -0.241 A  
HETATM   27  C   UNL     1      -9.887  15.333  67.339  1.00  0.00    -0.217 A  
HETATM   28  C   UNL     1      -9.575  16.672  67.596  1.00  0.00    -0.239 A  
HETATM   29  C   UNL     1      -9.900  17.249  68.821  1.00  0.00    -0.306 A  
HETATM   30  C   UNL     1     -10.548  16.512  69.818  1.00  0.00    -0.265 A  
HETATM   31  C   UNL     1     -10.855  15.174  69.537  1.00  0.00    -0.263 A  
HETATM   32  N   UNL     1     -11.486  14.233  70.311  1.00  0.00    -0.454 NA 
HETATM   33  H   UNL     1     -11.835  14.402  71.255  1.00  0.00     0.000 HD 
ENDBRANCH  19  20
ENDBRANCH  18  19
ENDBRANCH  15  18
ENDBRANCH  14  15
ENDBRANCH  12  14
ENDBRANCH  11  12
ENDBRANCH  10  11
ENDBRANCH   9  10
ENDBRANCH   8   9
ENDBRANCH   2   3
TORSDOF 10
ENDMDL
MODEL      213
REMARK 921   NORMALIZED FREE ENERGY PREDICTED BY IDOCK:   -4.58 KCAL/MOL
REMARK 922        TOTAL FREE ENERGY PREDICTED BY IDOCK:   -9.10 KCAL/MOL
REMARK 923 INTER-LIGAND FREE ENERGY PREDICTED BY IDOCK:   -8.34 KCAL/MOL
REMARK 924 INTRA-LIGAND FREE ENERGY PREDICTED BY IDOCK:   -0.76 KCAL/MOL
REMARK 927      BINDING AFFINITY PREDICTED BY RF-SCORE:    0.00 PKD
ROOT
HETATM    1  C   UNL     1     -11.784  12.207  68.043  1.00  0.00    -0.344 C  
HETATM    2  O   UNL     1     -11.954  13.622  67.986  1.00  0.00    -0.360 OA 
ENDROOT
BRANCH   2   3
HETATM    3  C   UNL     1     -11.769  14.206  66.758  1.00  0.00    -0.410 A  
HETATM    4  C   UNL     1     -12.649  13.958  65.692  1.00  0.00    -0.553 A  
HETATM    5  C   UNL     1     -12.483  14.594  64.462  1.00  0.00    -0.312 A  
HETATM    6  C   UNL     1     -11.420  15.466  64.271  1.00  0.00    -0.178 A  
HETATM    7  C   UNL     1     -10.511  15.682  65.304  1.00  0.00    -0.439 A  
HETATM    8  C   UNL     1     -10.662  15.053  66.549  1.00  0.00    -0.312 A  
BRANCH   8   9
HETATM    9  O   UNL     1      -9.663  15.401  67.427  1.00  0.00    -0.214 OA 
BRANCH   9  10
HETATM   10  C   UNL     1      -8.375  14.844  67.199  1.00  0.00    -0.221 C  
BRANCH  10  11
HETATM   11  C   UNL     1      -8.074  13.758  68.246  1.00  0.00    -0.150 C  
BRANCH  11  12
HETATM   12  N   UNL     1      -7.326  12.606  67.709  1.00  0.00    -0.114 NA 
HETATM   13  H   UNL     1      -6.555  12.347  68.325  1.00  0.00     0.000 HD 
BRANCH  12  14
HETATM   14  C   UNL     1      -8.202  11.445  67.437  1.00  0.00    -0.145 C  
BRANCH  14  15
HETATM   15  C   UNL     1      -8.000  10.303  68.456  1.00  0.00    -0.107 C  
HETATM   16  O   UNL     1      -7.192  10.772  69.540  1.00  0.00    -0.122 OA 
HETATM   17  H   UNL     1      -7.068  10.069  70.168  1.00  0.00     0.000 HD 
BRANCH  15  18
HETATM   18  C   UNL     1      -9.356   9.799  68.965  1.00  0.00    -0.161 C  
BRANCH  18  19
HETATM   19  O   UNL     1      -9.557  10.166  70.326  1.00  0.00    -0.118 OA 
BRANCH  19  20
HETATM   20  C   UNL     1     -10.735   9.742  70.893  1.00  0.00    -0.305 A  
HETATM   21  C   UNL     1     -12.007  10.237  70.553  1.00  0.00    -0.415 A  
HETATM   22  C   UNL     1     -13.163   9.740  71.147  1.00  0.00    -0.404 A  
HETATM   23  C   UNL     1     -13.102   8.728  72.103  1.00  0.00    -0.451 A  
HETATM   24  C   UNL     1     -11.833   8.244  72.445  1.00  0.00    -0.396 A  
HETATM   25  C   UNL     1     -10.654   8.724  71.874  1.00  0.00    -0.425 A  
HETATM   26  C   UNL     1      -9.568   8.010  72.483  1.00  0.00    -0.306 A  
HETATM   27  C   UNL     1      -8.163   8.056  72.346  1.00  0.00    -0.193 A  
HETATM   28  C   UNL     1      -7.364   7.194  73.105  1.00  0.00    -0.077 A  
HETATM   29  C   UNL     1      -7.946   6.293  73.994  1.00  0.00    -0.098 A  
HETATM   30  C   UNL     1      -9.333   6.229  74.153  1.00  0.00    -0.174 A  
HETATM   31  C   UNL     1     -10.115   7.104  73.386  1.00  0.00    -0.303 A  
HETATM   32  N   UNL     1     -11.476   7.265  73.345  1.00  0.00    -0.530 NA 
HETATM   33  H   UNL     1     -12.138   6.730  73.908  1.00  0.00     0.000 HD 
ENDBRANCH  19  20
ENDBRANCH  18  19
ENDBRANCH  15  18
ENDBRANCH  14  15
ENDBRANCH  12  14
ENDBRANCH  11  12
ENDBRANCH  10  11
ENDBRANCH   9  10
ENDBRANCH   8   9
ENDBRANCH   2   3
TORSDOF 10
ENDMDL
MODEL      214
REMARK 921   NORMALIZED FREE ENERGY PREDICTED BY IDOCK:   -4.57 KCAL/MOL
REMARK 922        TOTAL FREE ENERGY PREDICTED BY IDOCK:   -9.09 KCAL/MOL
REMARK 923 INTER-LIGAND FREE ENERGY PREDICTED BY IDOCK:   -7.65 KCAL/MOL
REMARK 924 INTRA-LIGAND FREE ENERGY PREDICTED BY IDOCK:   -1.44 KCAL/MOL
REMARK 927      BINDING AFFINITY PREDICTED BY RF-SCORE:    0.00 PKD
ROOT
HETATM    1  C   UNL     1      -8.533  10.295  64.258  1.00  0.00    -0.179 C  
HETATM    2  O   UNL     1      -9.288  10.971  65.261  1.00  0.00    -0.205 OA 
ENDROOT
BRANCH   2   3
HETATM    3  C   UNL     1     -10.472  11.532  64.853  1.00  0.00    -0.291 A  
HETATM    4  C   UNL     1     -10.968  11.325  63.555  1.00  0.00    -0.329 A  
HETATM    5  C   UNL     1     -12.197  11.856  63.164  1.00  0.00    -0.340 A  
HETATM    6  C   UNL     1     -12.935  12.624  64.054  1.00  0.00    -0.136 A  
HETATM    7  C   UNL     1     -12.430  12.879  65.327  1.00  0.00    -0.552 A  
HETATM    8  C   UNL     1     -11.197  12.352  65.740  1.00  0.00    -0.333 A  
BRANCH   8   9
HETATM    9  O   UNL     1     -10.885  12.720  67.027  1.00  0.00    -0.250 OA 
BRANCH   9  10
HETATM   10  C   UNL     1     -10.877  14.111  67.321  1.00  0.00    -0.285 C  
BRANCH  10  11
HETATM   11  C   UNL     1     -10.699  14.333  68.833  1.00  0.00    -0.257 C  
BRANCH  11  12
HETATM   12  N   UNL     1     -11.952  14.659  69.538  1.00  0.00    -0.320 NA 
HETATM   13  H   UNL     1     -12.736  14.124  69.164  1.00  0.00     0.000 HD 
BRANCH  12  14
HETATM   14  C   UNL     1     -11.835  14.483  71.002  1.00  0.00    -0.290 C  
BRANCH  14  15
HETATM   15  C   UNL     1     -12.868  13.479  71.558  1.00  0.00    -0.352 C  
HETATM   16  O   UNL     1     -14.140  14.124  71.680  1.00  0.00    -0.394 OA 
HETATM   17  H   UNL     1     -14.776  13.506  72.022  1.00  0.00     0.000 HD 
BRANCH  15  18
HETATM   18  C   UNL     1     -12.966  12.254  70.640  1.00  0.00     0.198 C  
BRANCH  18  19
HETATM   19  O   UNL     1     -11.721  11.566  70.576  1.00  0.00    -0.309 OA 
BRANCH  19  20
HETATM   20  C   UNL     1     -11.711  10.295  71.101  1.00  0.00    -0.341 A  
HETATM   21  C   UNL     1     -12.680   9.792  71.988  1.00  0.00    -0.463 A  
HETATM   22  C   UNL     1     -12.625   8.483  72.457  1.00  0.00    -0.346 A  
HETATM   23  C   UNL     1     -11.603   7.620  72.063  1.00  0.00    -0.334 A  
HETATM   24  C   UNL     1     -10.636   8.128  71.187  1.00  0.00    -0.204 A  
HETATM   25  C   UNL     1     -10.658   9.437  70.702  1.00  0.00    -0.354 A  
HETATM   26  C   UNL     1      -9.507   9.595  69.859  1.00  0.00    -0.260 A  
HETATM   27  C   UNL     1      -8.978  10.670  69.112  1.00  0.00    -0.139 A  
HETATM   28  C   UNL     1      -7.807  10.486  68.368  1.00  0.00    -0.110 A  
HETATM   29  C   UNL     1      -7.162   9.252  68.361  1.00  0.00    -0.076 A  
HETATM   30  C   UNL     1      -7.662   8.171  69.095  1.00  0.00    -0.098 A  
HETATM   31  C   UNL     1      -8.833   8.378  69.836  1.00  0.00    -0.137 A  
HETATM   32  N   UNL     1      -9.531   7.515  70.642  1.00  0.00    -0.164 NA 
HETATM   33  H   UNL     1      -9.265   6.545  70.815  1.00  0.00     0.000 HD 
ENDBRANCH  19  20
ENDBRANCH  18  19
ENDBRANCH  15  18
ENDBRANCH  14  15
ENDBRANCH  12  14
ENDBRANCH  11  12
ENDBRANCH  10  11
ENDBRANCH   9  10
ENDBRANCH   8   9
ENDBRANCH   2   3
TORSDOF 10
ENDMDL
MODEL      215
REMARK 921   NORMALIZED FREE ENERGY PREDICTED BY IDOCK:   -4.57 KCAL/MOL
REMARK 922        TOTAL FREE ENERGY PREDICTED BY IDOCK:   -9.09 KCAL/MOL
REMARK 923 INTER-LIGAND FREE ENERGY PREDICTED BY IDOCK:   -7.89 KCAL/MOL
REMARK 924 INTRA-LIGAND FREE ENERGY PREDICTED BY IDOCK:   -1.20 KCAL/MOL
REMARK 927      BINDING AFFINITY PREDICTED BY RF-SCORE:    0.00 PKD
ROOT
HETATM    1  C   UNL     1     -11.693  15.915  70.120  1.00  0.00    -0.334 C  
HETATM    2  O   UNL     1     -11.848  15.959  68.703  1.00  0.00    -0.388 OA 
ENDROOT
BRANCH   2   3
HETATM    3  C   UNL     1     -10.794  16.476  67.993  1.00  0.00    -0.337 A  
HETATM    4  C   UNL     1     -10.148  17.655  68.401  1.00  0.00    -0.368 A  
HETATM    5  C   UNL     1      -9.045  18.147  67.704  1.00  0.00    -0.260 A  
HETATM    6  C   UNL     1      -8.588  17.484  66.573  1.00  0.00    -0.293 A  
HETATM    7  C   UNL     1      -9.251  16.341  66.129  1.00  0.00    -0.376 A  
HETATM    8  C   UNL     1     -10.361  15.830  66.818  1.00  0.00    -0.293 A  
BRANCH   8   9
HETATM    9  O   UNL     1     -10.864  14.701  66.217  1.00  0.00    -0.308 OA 
BRANCH   9  10
HETATM   10  C   UNL     1     -11.406  14.846  64.911  1.00  0.00    -0.413 C  
BRANCH  10  11
HETATM   11  C   UNL     1     -11.144  13.577  64.082  1.00  0.00    -0.278 C  
BRANCH  11  12
HETATM   12  N   UNL     1     -10.145  12.672  64.679  1.00  0.00    -0.490 NA 
HETATM   13  H   UNL     1      -9.785  13.047  65.557  1.00  0.00     0.000 HD 
BRANCH  12  14
HETATM   14  C   UNL     1     -10.666  11.299  64.859  1.00  0.00    -0.271 C  
BRANCH  14  15
HETATM   15  C   UNL     1      -9.569  10.226  64.692  1.00  0.00    -0.312 C  
HETATM   16  O   UNL     1      -8.283  10.855  64.709  1.00  0.00    -0.366 OA 
HETATM   17  H   UNL     1      -7.608  10.195  64.606  1.00  0.00     0.000 HD 
BRANCH  15  18
HETATM   18  C   UNL     1      -9.677   9.178  65.806  1.00  0.00    -0.229 C  
BRANCH  18  19
HETATM   19  O   UNL     1      -9.173   9.688  67.036  1.00  0.00    -0.139 OA 
BRANCH  19  20
HETATM   20  C   UNL     1      -9.992  10.573  67.696  1.00  0.00    -0.173 A  
HETATM   21  C   UNL     1     -11.341  10.327  68.013  1.00  0.00    -0.219 A  
HETATM   22  C   UNL     1     -12.104  11.258  68.711  1.00  0.00    -0.258 A  
HETATM   23  C   UNL     1     -11.557  12.471  69.125  1.00  0.00    -0.375 A  
HETATM   24  C   UNL     1     -10.217  12.716  68.799  1.00  0.00    -0.079 A  
HETATM   25  C   UNL     1      -9.425  11.808  68.096  1.00  0.00    -0.193 A  
HETATM   26  C   UNL     1      -8.132  12.410  67.935  1.00  0.00    -0.161 A  
HETATM   27  C   UNL     1      -6.933  12.007  67.308  1.00  0.00    -0.146 A  
HETATM   28  C   UNL     1      -5.817  12.852  67.339  1.00  0.00    -0.065 A  
HETATM   29  C   UNL     1      -5.884  14.084  67.984  1.00  0.00    -0.138 A  
HETATM   30  C   UNL     1      -7.060  14.510  68.609  1.00  0.00    -0.113 A  
HETATM   31  C   UNL     1      -8.166  13.651  68.562  1.00  0.00    -0.112 A  
HETATM   32  N   UNL     1      -9.429  13.811  69.072  1.00  0.00    -0.399 NA 
HETATM   33  H   UNL     1      -9.744  14.634  69.586  1.00  0.00     0.000 HD 
ENDBRANCH  19  20
ENDBRANCH  18  19
ENDBRANCH  15  18
ENDBRANCH  14  15
ENDBRANCH  12  14
ENDBRANCH  11  12
ENDBRANCH  10  11
ENDBRANCH   9  10
ENDBRANCH   8   9
ENDBRANCH   2   3
TORSDOF 10
ENDMDL
MODEL      216
REMARK 921   NORMALIZED FREE ENERGY PREDICTED BY IDOCK:   -4.56 KCAL/MOL
REMARK 922        TOTAL FREE ENERGY PREDICTED BY IDOCK:   -9.08 KCAL/MOL
REMARK 923 INTER-LIGAND FREE ENERGY PREDICTED BY IDOCK:   -8.16 KCAL/MOL
REMARK 924 INTRA-LIGAND FREE ENERGY PREDICTED BY IDOCK:   -0.91 KCAL/MOL
REMARK 927      BINDING AFFINITY PREDICTED BY RF-SCORE:    0.00 PKD
ROOT
HETATM    1  C   UNL     1     -10.427  19.440  67.998  1.00  0.00    -0.399 C  
HETATM    2  O   UNL     1      -9.401  19.529  67.012  1.00  0.00    -0.312 OA 
ENDROOT
BRANCH   2   3
HETATM    3  C   UNL     1      -8.179  19.010  67.360  1.00  0.00    -0.275 A  
HETATM    4  C   UNL     1      -7.387  19.613  68.352  1.00  0.00    -0.354 A  
HETATM    5  C   UNL     1      -6.170  19.052  68.737  1.00  0.00    -0.256 A  
HETATM    6  C   UNL     1      -5.712  17.897  68.118  1.00  0.00    -0.158 A  
HETATM    7  C   UNL     1      -6.465  17.318  67.097  1.00  0.00    -0.201 A  
HETATM    8  C   UNL     1      -7.693  17.866  66.698  1.00  0.00    -0.243 A  
BRANCH   8   9
HETATM    9  O   UNL     1      -8.272  17.144  65.682  1.00  0.00    -0.429 OA 
BRANCH   9  10
HETATM   10  C   UNL     1      -8.990  15.971  66.045  1.00  0.00    -0.310 C  
BRANCH  10  11
HETATM   11  C   UNL     1     -10.498  16.181  65.822  1.00  0.00    -0.367 C  
BRANCH  11  12
HETATM   12  N   UNL     1     -10.938  15.914  64.441  1.00  0.00    -0.893 NA 
HETATM   13  H   UNL     1     -10.244  16.232  63.764  1.00  0.00     0.000 HD 
BRANCH  12  14
HETATM   14  C   UNL     1     -11.280  14.491  64.226  1.00  0.00    -0.062 C  
BRANCH  14  15
HETATM   15  C   UNL     1     -11.915  13.843  65.476  1.00  0.00    -0.383 C  
HETATM   16  O   UNL     1     -13.330  14.049  65.451  1.00  0.00    -0.721 OA 
HETATM   17  H   UNL     1     -13.721  13.651  66.220  1.00  0.00     0.000 HD 
BRANCH  15  18
HETATM   18  C   UNL     1     -11.583  12.347  65.526  1.00  0.00    -0.385 C  
BRANCH  18  19
HETATM   19  O   UNL     1     -11.441  11.902  66.871  1.00  0.00    -0.364 OA 
BRANCH  19  20
HETATM   20  C   UNL     1     -10.536  10.887  67.073  1.00  0.00    -0.257 A  
HETATM   21  C   UNL     1     -10.755   9.542  66.723  1.00  0.00    -0.136 A  
HETATM   22  C   UNL     1      -9.781   8.570  66.930  1.00  0.00    -0.286 A  
HETATM   23  C   UNL     1      -8.548   8.896  67.494  1.00  0.00    -0.120 A  
HETATM   24  C   UNL     1      -8.338  10.234  67.849  1.00  0.00    -0.114 A  
HETATM   25  C   UNL     1      -9.295  11.233  67.661  1.00  0.00    -0.162 A  
HETATM   26  C   UNL     1      -8.734  12.456  68.159  1.00  0.00    -0.190 A  
HETATM   27  C   UNL     1      -9.207  13.782  68.266  1.00  0.00    -0.204 A  
HETATM   28  C   UNL     1      -8.382  14.771  68.811  1.00  0.00    -0.168 A  
HETATM   29  C   UNL     1      -7.097  14.456  69.247  1.00  0.00    -0.124 A  
HETATM   30  C   UNL     1      -6.604  13.150  69.158  1.00  0.00    -0.104 A  
HETATM   31  C   UNL     1      -7.449  12.174  68.613  1.00  0.00    -0.105 A  
HETATM   32  N   UNL     1      -7.237  10.833  68.417  1.00  0.00    -0.082 NA 
HETATM   33  H   UNL     1      -6.375  10.344  68.659  1.00  0.00     0.000 HD 
ENDBRANCH  19  20
ENDBRANCH  18  19
ENDBRANCH  15  18
ENDBRANCH  14  15
ENDBRANCH  12  14
ENDBRANCH  11  12
ENDBRANCH  10  11
ENDBRANCH   9  10
ENDBRANCH   8   9
ENDBRANCH   2   3
TORSDOF 10
ENDMDL
MODEL      217
REMARK 921   NORMALIZED FREE ENERGY PREDICTED BY IDOCK:   -4.55 KCAL/MOL
REMARK 922        TOTAL FREE ENERGY PREDICTED BY IDOCK:   -9.05 KCAL/MOL
REMARK 923 INTER-LIGAND FREE ENERGY PREDICTED BY IDOCK:   -6.95 KCAL/MOL
REMARK 924 INTRA-LIGAND FREE ENERGY PREDICTED BY IDOCK:   -2.11 KCAL/MOL
REMARK 927      BINDING AFFINITY PREDICTED BY RF-SCORE:    0.00 PKD
ROOT
HETATM    1  C   UNL     1     -11.458  15.646  70.635  1.00  0.00    -0.375 C  
HETATM    2  O   UNL     1     -10.093  15.402  70.305  1.00  0.00    -0.250 OA 
ENDROOT
BRANCH   2   3
HETATM    3  C   UNL     1      -9.616  16.041  69.188  1.00  0.00    -0.257 A  
HETATM    4  C   UNL     1     -10.344  17.071  68.570  1.00  0.00    -0.359 A  
HETATM    5  C   UNL     1      -9.830  17.750  67.466  1.00  0.00    -0.304 A  
HETATM    6  C   UNL     1      -8.594  17.392  66.946  1.00  0.00    -0.270 A  
HETATM    7  C   UNL     1      -7.885  16.337  67.518  1.00  0.00    -0.168 A  
HETATM    8  C   UNL     1      -8.384  15.644  68.631  1.00  0.00    -0.177 A  
BRANCH   8   9
HETATM    9  O   UNL     1      -7.532  14.646  69.040  1.00  0.00    -0.124 OA 
BRANCH   9  10
HETATM   10  C   UNL     1      -6.140  14.862  68.852  1.00  0.00    -0.085 C  
BRANCH  10  11
HETATM   11  C   UNL     1      -5.476  13.594  68.289  1.00  0.00    -0.107 C  
BRANCH  11  12
HETATM   12  N   UNL     1      -6.087  13.107  67.039  1.00  0.00    -0.415 NA 
HETATM   13  H   UNL     1      -5.687  13.576  66.226  1.00  0.00     0.000 HD 
BRANCH  12  14
HETATM   14  C   UNL     1      -5.996  11.637  66.905  1.00  0.00    -0.145 C  
BRANCH  14  15
HETATM   15  C   UNL     1      -7.243  11.030  66.226  1.00  0.00    -0.095 C  
HETATM   16  O   UNL     1      -6.836  10.249  65.097  1.00  0.00    -0.130 OA 
HETATM   17  H   UNL     1      -7.604   9.876  64.679  1.00  0.00     0.000 HD 
BRANCH  15  18
HETATM   18  C   UNL     1      -8.029  10.173  67.226  1.00  0.00    -0.110 C  
BRANCH  18  19
HETATM   19  O   UNL     1      -8.134  10.829  68.485  1.00  0.00    -0.118 OA 
BRANCH  19  20
HETATM   20  C   UNL     1      -9.354  10.733  69.110  1.00  0.00    -0.125 A  
HETATM   21  C   UNL     1      -9.641   9.852  70.169  1.00  0.00    -0.237 A  
HETATM   22  C   UNL     1     -10.893   9.829  70.776  1.00  0.00    -0.403 A  
HETATM   23  C   UNL     1     -11.911  10.682  70.356  1.00  0.00    -0.436 A  
HETATM   24  C   UNL     1     -11.625  11.552  69.296  1.00  0.00    -0.322 A  
HETATM   25  C   UNL     1     -10.383  11.597  68.661  1.00  0.00    -0.229 A  
HETATM   26  C   UNL     1     -10.474  12.584  67.623  1.00  0.00    -0.228 A  
HETATM   27  C   UNL     1      -9.578  13.064  66.643  1.00  0.00    -0.259 A  
HETATM   28  C   UNL     1      -9.990  14.067  65.759  1.00  0.00    -0.319 A  
HETATM   29  C   UNL     1     -11.277  14.593  65.840  1.00  0.00    -0.336 A  
HETATM   30  C   UNL     1     -12.187  14.133  66.797  1.00  0.00    -0.429 A  
HETATM   31  C   UNL     1     -11.755  13.125  67.670  1.00  0.00    -0.369 A  
HETATM   32  N   UNL     1     -12.426  12.488  68.682  1.00  0.00     0.236 NA 
HETATM   33  H   UNL     1     -13.392  12.681  68.946  1.00  0.00     0.000 HD 
ENDBRANCH  19  20
ENDBRANCH  18  19
ENDBRANCH  15  18
ENDBRANCH  14  15
ENDBRANCH  12  14
ENDBRANCH  11  12
ENDBRANCH  10  11
ENDBRANCH   9  10
ENDBRANCH   8   9
ENDBRANCH   2   3
TORSDOF 10
ENDMDL
MODEL      218
REMARK 921   NORMALIZED FREE ENERGY PREDICTED BY IDOCK:   -4.54 KCAL/MOL
REMARK 922        TOTAL FREE ENERGY PREDICTED BY IDOCK:   -9.04 KCAL/MOL
REMARK 923 INTER-LIGAND FREE ENERGY PREDICTED BY IDOCK:   -7.82 KCAL/MOL
REMARK 924 INTRA-LIGAND FREE ENERGY PREDICTED BY IDOCK:   -1.21 KCAL/MOL
REMARK 927      BINDING AFFINITY PREDICTED BY RF-SCORE:    0.00 PKD
ROOT
HETATM    1  C   UNL     1     -11.021   7.603  71.799  1.00  0.00    -0.239 C  
HETATM    2  O   UNL     1      -9.905   6.871  71.299  1.00  0.00    -0.176 OA 
ENDROOT
BRANCH   2   3
HETATM    3  C   UNL     1      -8.794   7.607  70.972  1.00  0.00    -0.142 A  
HETATM    4  C   UNL     1      -8.016   8.231  71.961  1.00  0.00    -0.176 A  
HETATM    5  C   UNL     1      -6.860   8.936  71.626  1.00  0.00    -0.065 A  
HETATM    6  C   UNL     1      -6.479   9.051  70.296  1.00  0.00    -0.043 A  
HETATM    7  C   UNL     1      -7.271   8.480  69.301  1.00  0.00    -0.063 A  
HETATM    8  C   UNL     1      -8.435   7.765  69.619  1.00  0.00    -0.133 A  
BRANCH   8   9
HETATM    9  O   UNL     1      -9.065   7.283  68.496  1.00  0.00    -0.137 OA 
BRANCH   9  10
HETATM   10  C   UNL     1     -10.310   7.874  68.145  1.00  0.00    -0.200 C  
BRANCH  10  11
HETATM   11  C   UNL     1     -10.245   8.444  66.718  1.00  0.00    -0.306 C  
BRANCH  11  12
HETATM   12  N   UNL     1     -10.387   9.910  66.655  1.00  0.00    -0.224 NA 
HETATM   13  H   UNL     1      -9.833  10.366  67.380  1.00  0.00     0.000 HD 
BRANCH  12  14
HETATM   14  C   UNL     1     -10.061  10.449  65.316  1.00  0.00    -0.300 C  
BRANCH  14  15
HETATM   15  C   UNL     1     -10.871  11.720  64.980  1.00  0.00    -0.295 C  
HETATM   16  O   UNL     1     -11.815  11.422  63.947  1.00  0.00    -0.384 OA 
HETATM   17  H   UNL     1     -12.314  12.204  63.741  1.00  0.00     0.000 HD 
BRANCH  15  18
HETATM   18  C   UNL     1     -11.582  12.243  66.234  1.00  0.00    -0.385 C  
BRANCH  18  19
HETATM   19  O   UNL     1     -10.685  12.979  67.059  1.00  0.00    -0.255 OA 
BRANCH  19  20
HETATM   20  C   UNL     1     -11.177  13.365  68.283  1.00  0.00    -0.279 A  
HETATM   21  C   UNL     1     -11.789  12.497  69.206  1.00  0.00    -0.360 A  
HETATM   22  C   UNL     1     -12.238  12.951  70.442  1.00  0.00    -0.381 A  
HETATM   23  C   UNL     1     -12.096  14.287  70.812  1.00  0.00    -0.418 A  
HETATM   24  C   UNL     1     -11.494  15.149  69.887  1.00  0.00    -0.288 A  
HETATM   25  C   UNL     1     -11.038  14.729  68.637  1.00  0.00    -0.274 A  
HETATM   26  C   UNL     1     -10.508  15.884  67.970  1.00  0.00    -0.274 A  
HETATM   27  C   UNL     1      -9.931  16.106  66.700  1.00  0.00    -0.270 A  
HETATM   28  C   UNL     1      -9.497  17.389  66.351  1.00  0.00    -0.279 A  
HETATM   29  C   UNL     1      -9.631  18.447  67.247  1.00  0.00    -0.292 A  
HETATM   30  C   UNL     1     -10.203  18.257  68.509  1.00  0.00    -0.402 A  
HETATM   31  C   UNL     1     -10.634  16.965  68.837  1.00  0.00    -0.353 A  
HETATM   32  N   UNL     1     -11.230  16.497  69.980  1.00  0.00    -0.434 NA 
HETATM   33  H   UNL     1     -11.449  17.073  70.793  1.00  0.00     0.000 HD 
ENDBRANCH  19  20
ENDBRANCH  18  19
ENDBRANCH  15  18
ENDBRANCH  14  15
ENDBRANCH  12  14
ENDBRANCH  11  12
ENDBRANCH  10  11
ENDBRANCH   9  10
ENDBRANCH   8   9
ENDBRANCH   2   3
TORSDOF 10
ENDMDL
MODEL      219
REMARK 921   NORMALIZED FREE ENERGY PREDICTED BY IDOCK:   -4.53 KCAL/MOL
REMARK 922        TOTAL FREE ENERGY PREDICTED BY IDOCK:   -9.03 KCAL/MOL
REMARK 923 INTER-LIGAND FREE ENERGY PREDICTED BY IDOCK:   -7.62 KCAL/MOL
REMARK 924 INTRA-LIGAND FREE ENERGY PREDICTED BY IDOCK:   -1.41 KCAL/MOL
REMARK 927      BINDING AFFINITY PREDICTED BY RF-SCORE:    0.00 PKD
ROOT
HETATM    1  C   UNL     1     -11.508  15.598  70.558  1.00  0.00    -0.360 C  
HETATM    2  O   UNL     1     -11.772  14.696  69.486  1.00  0.00    -0.287 OA 
ENDROOT
BRANCH   2   3
HETATM    3  C   UNL     1     -11.416  15.125  68.232  1.00  0.00    -0.336 A  
HETATM    4  C   UNL     1     -10.871  16.403  68.026  1.00  0.00    -0.342 A  
HETATM    5  C   UNL     1     -10.465  16.814  66.756  1.00  0.00    -0.258 A  
HETATM    6  C   UNL     1     -10.623  15.964  65.669  1.00  0.00    -0.393 A  
HETATM    7  C   UNL     1     -11.210  14.713  65.852  1.00  0.00    -0.336 A  
HETATM    8  C   UNL     1     -11.622  14.282  67.122  1.00  0.00    -0.380 A  
BRANCH   8   9
HETATM    9  O   UNL     1     -12.171  13.022  67.084  1.00  0.00    -0.323 OA 
BRANCH   9  10
HETATM   10  C   UNL     1     -11.306  11.946  66.747  1.00  0.00    -0.330 C  
BRANCH  10  11
HETATM   11  C   UNL     1     -11.186  10.970  67.930  1.00  0.00    -0.310 C  
BRANCH  11  12
HETATM   12  N   UNL     1     -11.299  11.617  69.250  1.00  0.00    -0.268 NA 
HETATM   13  H   UNL     1     -11.305  12.634  69.162  1.00  0.00     0.000 HD 
BRANCH  12  14
HETATM   14  C   UNL     1     -12.473  11.139  70.012  1.00  0.00    -0.223 C  
BRANCH  14  15
HETATM   15  C   UNL     1     -12.073  10.425  71.321  1.00  0.00    -0.362 C  
HETATM   16  O   UNL     1     -13.058  10.687  72.325  1.00  0.00    -0.548 OA 
HETATM   17  H   UNL     1     -12.812  10.247  73.131  1.00  0.00     0.000 HD 
BRANCH  15  18
HETATM   18  C   UNL     1     -11.927   8.917  71.081  1.00  0.00    -0.293 C  
BRANCH  18  19
HETATM   19  O   UNL     1     -10.594   8.487  71.336  1.00  0.00    -0.215 OA 
BRANCH  19  20
HETATM   20  C   UNL     1     -10.170   7.393  70.619  1.00  0.00    -0.199 A  
HETATM   21  C   UNL     1     -10.718   6.103  70.735  1.00  0.00    -0.326 A  
HETATM   22  C   UNL     1     -10.259   5.046  69.955  1.00  0.00    -0.339 A  
HETATM   23  C   UNL     1      -9.236   5.230  69.026  1.00  0.00    -0.152 A  
HETATM   24  C   UNL     1      -8.687   6.514  68.920  1.00  0.00    -0.127 A  
HETATM   25  C   UNL     1      -9.120   7.594  69.691  1.00  0.00    -0.147 A  
HETATM   26  C   UNL     1      -8.318   8.725  69.321  1.00  0.00    -0.120 A  
HETATM   27  C   UNL     1      -8.260  10.070  69.749  1.00  0.00    -0.191 A  
HETATM   28  C   UNL     1      -7.339  10.945  69.163  1.00  0.00    -0.126 A  
HETATM   29  C   UNL     1      -6.481  10.498  68.161  1.00  0.00    -0.062 A  
HETATM   30  C   UNL     1      -6.513   9.171  67.721  1.00  0.00    -0.056 A  
HETATM   31  C   UNL     1      -7.440   8.310  68.325  1.00  0.00    -0.097 A  
HETATM   32  N   UNL     1      -7.682   6.978  68.103  1.00  0.00    -0.111 NA 
HETATM   33  H   UNL     1      -7.182   6.407  67.422  1.00  0.00     0.000 HD 
ENDBRANCH  19  20
ENDBRANCH  18  19
ENDBRANCH  15  18
ENDBRANCH  14  15
ENDBRANCH  12  14
ENDBRANCH  11  12
ENDBRANCH  10  11
ENDBRANCH   9  10
ENDBRANCH   8   9
ENDBRANCH   2   3
TORSDOF 10
ENDMDL
MODEL      220
REMARK 921   NORMALIZED FREE ENERGY PREDICTED BY IDOCK:   -4.51 KCAL/MOL
REMARK 922        TOTAL FREE ENERGY PREDICTED BY IDOCK:   -8.99 KCAL/MOL
REMARK 923 INTER-LIGAND FREE ENERGY PREDICTED BY IDOCK:   -7.69 KCAL/MOL
REMARK 924 INTRA-LIGAND FREE ENERGY PREDICTED BY IDOCK:   -1.30 KCAL/MOL
REMARK 927      BINDING AFFINITY PREDICTED BY RF-SCORE:    0.00 PKD
ROOT
HETATM    1  C   UNL     1     -10.255  17.808  66.458  1.00  0.00    -0.358 C  
HETATM    2  O   UNL     1      -9.754  16.494  66.217  1.00  0.00    -0.270 OA 
ENDROOT
BRANCH   2   3
HETATM    3  C   UNL     1     -10.692  15.527  65.956  1.00  0.00    -0.326 A  
HETATM    4  C   UNL     1     -11.337  15.454  64.710  1.00  0.00    -0.381 A  
HETATM    5  C   UNL     1     -12.252  14.438  64.434  1.00  0.00    -0.481 A  
HETATM    6  C   UNL     1     -12.557  13.497  65.409  1.00  0.00    -0.531 A  
HETATM    7  C   UNL     1     -11.962  13.589  66.666  1.00  0.00    -0.452 A  
HETATM    8  C   UNL     1     -11.038  14.602  66.961  1.00  0.00    -0.333 A  
BRANCH   8   9
HETATM    9  O   UNL     1     -10.570  14.512  68.250  1.00  0.00    -0.233 OA 
BRANCH   9  10
HETATM   10  C   UNL     1     -11.191  15.340  69.226  1.00  0.00    -0.284 C  
BRANCH  10  11
HETATM   11  C   UNL     1     -11.673  14.490  70.414  1.00  0.00    -0.290 C  
BRANCH  11  12
HETATM   12  N   UNL     1     -11.406  13.048  70.262  1.00  0.00    -0.397 NA 
HETATM   13  H   UNL     1     -10.585  12.767  70.800  1.00  0.00     0.000 HD 
BRANCH  12  14
HETATM   14  C   UNL     1     -12.581  12.219  70.609  1.00  0.00    -0.156 C  
BRANCH  14  15
HETATM   15  C   UNL     1     -12.342  10.718  70.336  1.00  0.00    -0.353 C  
HETATM   16  O   UNL     1     -13.572  10.005  70.498  1.00  0.00    -0.520 OA 
HETATM   17  H   UNL     1     -13.425   9.081  70.330  1.00  0.00     0.000 HD 
BRANCH  15  18
HETATM   18  C   UNL     1     -11.777  10.517  68.925  1.00  0.00    -0.146 C  
BRANCH  18  19
HETATM   19  O   UNL     1     -10.663   9.631  68.944  1.00  0.00    -0.218 OA 
BRANCH  19  20
HETATM   20  C   UNL     1     -10.017   9.456  67.743  1.00  0.00    -0.184 A  
HETATM   21  C   UNL     1     -10.143  10.316  66.637  1.00  0.00    -0.281 A  
HETATM   22  C   UNL     1      -9.435  10.093  65.460  1.00  0.00    -0.286 A  
HETATM   23  C   UNL     1      -8.572   9.006  65.334  1.00  0.00    -0.200 A  
HETATM   24  C   UNL     1      -8.457   8.147  66.435  1.00  0.00    -0.130 A  
HETATM   25  C   UNL     1      -9.156   8.337  67.628  1.00  0.00    -0.139 A  
HETATM   26  C   UNL     1      -8.800   7.258  68.503  1.00  0.00    -0.129 A  
HETATM   27  C   UNL     1      -9.181   6.888  69.812  1.00  0.00    -0.147 A  
HETATM   28  C   UNL     1      -8.627   5.746  70.398  1.00  0.00    -0.133 A  
HETATM   29  C   UNL     1      -7.703   4.972  69.700  1.00  0.00    -0.064 A  
HETATM   30  C   UNL     1      -7.312   5.311  68.401  1.00  0.00    -0.071 A  
HETATM   31  C   UNL     1      -7.882   6.457  67.831  1.00  0.00    -0.104 A  
HETATM   32  N   UNL     1      -7.694   7.012  66.591  1.00  0.00    -0.092 NA 
HETATM   33  H   UNL     1      -7.070   6.634  65.878  1.00  0.00     0.000 HD 
ENDBRANCH  19  20
ENDBRANCH  18  19
ENDBRANCH  15  18
ENDBRANCH  14  15
ENDBRANCH  12  14
ENDBRANCH  11  12
ENDBRANCH  10  11
ENDBRANCH   9  10
ENDBRANCH   8   9
ENDBRANCH   2   3
TORSDOF 10
ENDMDL
MODEL      221
REMARK 921   NORMALIZED FREE ENERGY PREDICTED BY IDOCK:   -4.50 KCAL/MOL
REMARK 922        TOTAL FREE ENERGY PREDICTED BY IDOCK:   -8.97 KCAL/MOL
REMARK 923 INTER-LIGAND FREE ENERGY PREDICTED BY IDOCK:   -6.66 KCAL/MOL
REMARK 924 INTRA-LIGAND FREE ENERGY PREDICTED BY IDOCK:   -2.32 KCAL/MOL
REMARK 927      BINDING AFFINITY PREDICTED BY RF-SCORE:    0.00 PKD
ROOT
HETATM    1  C   UNL     1      -8.797  10.970  62.437  1.00  0.00    -0.307 C  
HETATM    2  O   UNL     1      -9.569  10.028  63.178  1.00  0.00    -0.268 OA 
ENDROOT
BRANCH   2   3
HETATM    3  C   UNL     1      -9.008   9.566  64.342  1.00  0.00    -0.212 A  
HETATM    4  C   UNL     1      -8.162   8.445  64.350  1.00  0.00    -0.141 A  
HETATM    5  C   UNL     1      -7.555   8.012  65.528  1.00  0.00    -0.085 A  
HETATM    6  C   UNL     1      -7.806   8.676  66.722  1.00  0.00    -0.094 A  
HETATM    7  C   UNL     1      -8.684   9.758  66.736  1.00  0.00    -0.140 A  
HETATM    8  C   UNL     1      -9.302  10.210  65.561  1.00  0.00    -0.207 A  
BRANCH   8   9
HETATM    9  O   UNL     1     -10.125  11.286  65.793  1.00  0.00    -0.228 OA 
BRANCH   9  10
HETATM   10  C   UNL     1      -9.850  12.078  66.942  1.00  0.00    -0.204 C  
BRANCH  10  11
HETATM   11  C   UNL     1     -11.125  12.252  67.784  1.00  0.00    -0.255 C  
BRANCH  11  12
HETATM   12  N   UNL     1     -11.922  11.019  67.920  1.00  0.00    -0.727 NA 
HETATM   13  H   UNL     1     -12.000  10.530  67.028  1.00  0.00     0.000 HD 
BRANCH  12  14
HETATM   14  C   UNL     1     -11.398  10.125  68.975  1.00  0.00    -0.133 C  
BRANCH  14  15
HETATM   15  C   UNL     1     -11.977  10.457  70.368  1.00  0.00    -0.320 C  
HETATM   16  O   UNL     1     -13.406  10.425  70.308  1.00  0.00    -0.443 OA 
HETATM   17  H   UNL     1     -13.762  10.628  71.166  1.00  0.00     0.000 HD 
BRANCH  15  18
HETATM   18  C   UNL     1     -11.452   9.463  71.412  1.00  0.00    -0.379 C  
BRANCH  18  19
HETATM   19  O   UNL     1     -11.082   8.231  70.800  1.00  0.00    -0.250 OA 
BRANCH  19  20
HETATM   20  C   UNL     1      -9.811   7.785  71.075  1.00  0.00    -0.174 A  
HETATM   21  C   UNL     1      -9.080   8.122  72.229  1.00  0.00    -0.263 A  
HETATM   22  C   UNL     1      -7.807   7.609  72.458  1.00  0.00    -0.119 A  
HETATM   23  C   UNL     1      -7.208   6.739  71.549  1.00  0.00    -0.081 A  
HETATM   24  C   UNL     1      -7.935   6.414  70.397  1.00  0.00    -0.112 A  
HETATM   25  C   UNL     1      -9.212   6.914  70.133  1.00  0.00    -0.155 A  
HETATM   26  C   UNL     1      -9.622   6.381  68.866  1.00  0.00    -0.130 A  
HETATM   27  C   UNL     1     -10.776   6.528  68.066  1.00  0.00    -0.351 A  
HETATM   28  C   UNL     1     -10.867   5.844  66.849  1.00  0.00    -0.376 A  
HETATM   29  C   UNL     1      -9.828   5.020  66.423  1.00  0.00    -0.218 A  
HETATM   30  C   UNL     1      -8.672   4.859  67.193  1.00  0.00    -0.103 A  
HETATM   31  C   UNL     1      -8.599   5.557  68.406  1.00  0.00    -0.099 A  
HETATM   32  N   UNL     1      -7.599   5.594  69.343  1.00  0.00    -0.081 NA 
HETATM   33  H   UNL     1      -6.719   5.083  69.269  1.00  0.00     0.000 HD 
ENDBRANCH  19  20
ENDBRANCH  18  19
ENDBRANCH  15  18
ENDBRANCH  14  15
ENDBRANCH  12  14
ENDBRANCH  11  12
ENDBRANCH  10  11
ENDBRANCH   9  10
ENDBRANCH   8   9
ENDBRANCH   2   3
TORSDOF 10
ENDMDL
MODEL      222
REMARK 921   NORMALIZED FREE ENERGY PREDICTED BY IDOCK:   -4.50 KCAL/MOL
REMARK 922        TOTAL FREE ENERGY PREDICTED BY IDOCK:   -8.97 KCAL/MOL
REMARK 923 INTER-LIGAND FREE ENERGY PREDICTED BY IDOCK:   -7.87 KCAL/MOL
REMARK 924 INTRA-LIGAND FREE ENERGY PREDICTED BY IDOCK:   -1.11 KCAL/MOL
REMARK 927      BINDING AFFINITY PREDICTED BY RF-SCORE:    0.00 PKD
ROOT
HETATM    1  C   UNL     1      -7.094  10.258  65.462  1.00  0.00    -0.142 C  
HETATM    2  O   UNL     1      -8.327  10.701  66.026  1.00  0.00    -0.150 OA 
ENDROOT
BRANCH   2   3
HETATM    3  C   UNL     1      -9.002   9.791  66.799  1.00  0.00    -0.138 A  
HETATM    4  C   UNL     1      -9.110   8.444  66.413  1.00  0.00    -0.231 A  
HETATM    5  C   UNL     1      -9.753   7.514  67.228  1.00  0.00    -0.217 A  
HETATM    6  C   UNL     1     -10.322   7.919  68.428  1.00  0.00    -0.235 A  
HETATM    7  C   UNL     1     -10.266   9.262  68.798  1.00  0.00    -0.223 A  
HETATM    8  C   UNL     1      -9.621  10.212  67.992  1.00  0.00    -0.145 A  
BRANCH   8   9
HETATM    9  O   UNL     1      -9.678  11.472  68.538  1.00  0.00    -0.190 OA 
BRANCH   9  10
HETATM   10  C   UNL     1     -10.959  11.960  68.916  1.00  0.00    -0.238 C  
BRANCH  10  11
HETATM   11  C   UNL     1     -11.781  12.320  67.667  1.00  0.00    -0.334 C  
BRANCH  11  12
HETATM   12  N   UNL     1     -11.338  13.557  66.999  1.00  0.00    -0.312 NA 
HETATM   13  H   UNL     1     -10.537  13.969  67.479  1.00  0.00     0.000 HD 
BRANCH  12  14
HETATM   14  C   UNL     1     -11.052  13.349  65.563  1.00  0.00    -0.282 C  
BRANCH  14  15
HETATM   15  C   UNL     1     -11.096  14.665  64.758  1.00  0.00    -0.384 C  
HETATM   16  O   UNL     1     -12.346  14.757  64.067  1.00  0.00    -0.884 OA 
HETATM   17  H   UNL     1     -12.374  15.568  63.571  1.00  0.00     0.000 HD 
BRANCH  15  18
HETATM   18  C   UNL     1     -10.900  15.866  65.691  1.00  0.00    -0.284 C  
BRANCH  18  19
HETATM   19  O   UNL     1      -9.704  16.569  65.372  1.00  0.00    -0.496 OA 
BRANCH  19  20
HETATM   20  C   UNL     1      -9.297  17.506  66.291  1.00  0.00    -0.209 A  
HETATM   21  C   UNL     1      -9.611  18.876  66.225  1.00  0.00    -0.344 A  
HETATM   22  C   UNL     1      -9.190  19.766  67.209  1.00  0.00    -0.437 A  
HETATM   23  C   UNL     1      -8.439  19.329  68.299  1.00  0.00    -0.366 A  
HETATM   24  C   UNL     1      -8.121  17.967  68.356  1.00  0.00    -0.299 A  
HETATM   25  C   UNL     1      -8.522  17.048  67.384  1.00  0.00    -0.208 A  
HETATM   26  C   UNL     1      -7.996  15.770  67.768  1.00  0.00    -0.155 A  
HETATM   27  C   UNL     1      -8.040  14.479  67.198  1.00  0.00    -0.196 A  
HETATM   28  C   UNL     1      -7.411  13.412  67.848  1.00  0.00    -0.149 A  
HETATM   29  C   UNL     1      -6.743  13.615  69.054  1.00  0.00    -0.111 A  
HETATM   30  C   UNL     1      -6.680  14.884  69.639  1.00  0.00    -0.172 A  
HETATM   31  C   UNL     1      -7.313  15.939  68.968  1.00  0.00    -0.185 A  
HETATM   32  N   UNL     1      -7.402  17.267  69.299  1.00  0.00    -0.149 NA 
HETATM   33  H   UNL     1      -6.989  17.683  70.134  1.00  0.00     0.000 HD 
ENDBRANCH  19  20
ENDBRANCH  18  19
ENDBRANCH  15  18
ENDBRANCH  14  15
ENDBRANCH  12  14
ENDBRANCH  11  12
ENDBRANCH  10  11
ENDBRANCH   9  10
ENDBRANCH   8   9
ENDBRANCH   2   3
TORSDOF 10
ENDMDL
MODEL      223
REMARK 921   NORMALIZED FREE ENERGY PREDICTED BY IDOCK:   -4.49 KCAL/MOL
REMARK 922        TOTAL FREE ENERGY PREDICTED BY IDOCK:   -8.96 KCAL/MOL
REMARK 923 INTER-LIGAND FREE ENERGY PREDICTED BY IDOCK:   -8.20 KCAL/MOL
REMARK 924 INTRA-LIGAND FREE ENERGY PREDICTED BY IDOCK:   -0.76 KCAL/MOL
REMARK 927      BINDING AFFINITY PREDICTED BY RF-SCORE:    0.00 PKD
ROOT
HETATM    1  C   UNL     1     -10.057   5.125  68.992  1.00  0.00    -0.187 C  
HETATM    2  O   UNL     1     -11.070   6.128  69.005  1.00  0.00    -0.353 OA 
ENDROOT
BRANCH   2   3
HETATM    3  C   UNL     1     -11.170   6.873  70.153  1.00  0.00    -0.313 A  
HETATM    4  C   UNL     1     -11.931   6.429  71.247  1.00  0.00    -0.288 A  
HETATM    5  C   UNL     1     -11.987   7.167  72.429  1.00  0.00    -0.182 A  
HETATM    6  C   UNL     1     -11.307   8.373  72.525  1.00  0.00    -0.416 A  
HETATM    7  C   UNL     1     -10.590   8.850  71.429  1.00  0.00    -0.374 A  
HETATM    8  C   UNL     1     -10.520   8.120  70.233  1.00  0.00    -0.219 A  
BRANCH   8   9
HETATM    9  O   UNL     1      -9.763   8.764  69.282  1.00  0.00    -0.167 OA 
BRANCH   9  10
HETATM   10  C   UNL     1      -8.361   8.532  69.302  1.00  0.00    -0.120 C  
BRANCH  10  11
HETATM   11  C   UNL     1      -7.705   9.137  68.048  1.00  0.00    -0.092 C  
BRANCH  11  12
HETATM   12  N   UNL     1      -7.076  10.450  68.280  1.00  0.00    -0.077 NA 
HETATM   13  H   UNL     1      -6.063  10.399  68.167  1.00  0.00     0.000 HD 
BRANCH  12  14
HETATM   14  C   UNL     1      -7.656  11.509  67.426  1.00  0.00    -0.135 C  
BRANCH  14  15
HETATM   15  C   UNL     1      -7.627  12.895  68.107  1.00  0.00    -0.135 C  
HETATM   16  O   UNL     1      -6.683  13.735  67.435  1.00  0.00    -0.281 OA 
HETATM   17  H   UNL     1      -6.666  14.588  67.854  1.00  0.00     0.000 HD 
BRANCH  15  18
HETATM   18  C   UNL     1      -9.026  13.524  68.089  1.00  0.00    -0.187 C  
BRANCH  18  19
HETATM   19  O   UNL     1      -8.976  14.860  67.598  1.00  0.00    -0.172 OA 
BRANCH  19  20
HETATM   20  C   UNL     1      -9.724  15.112  66.472  1.00  0.00    -0.271 A  
HETATM   21  C   UNL     1     -10.173  14.124  65.576  1.00  0.00    -0.371 A  
HETATM   22  C   UNL     1     -10.953  14.448  64.470  1.00  0.00    -0.290 A  
HETATM   23  C   UNL     1     -11.319  15.768  64.210  1.00  0.00    -0.189 A  
HETATM   24  C   UNL     1     -10.863  16.748  65.099  1.00  0.00    -0.138 A  
HETATM   25  C   UNL     1     -10.074  16.459  66.215  1.00  0.00    -0.346 A  
HETATM   26  C   UNL     1      -9.789  17.706  66.866  1.00  0.00    -0.306 A  
HETATM   27  C   UNL     1      -9.041  18.069  68.006  1.00  0.00    -0.274 A  
HETATM   28  C   UNL     1      -8.966  19.413  68.387  1.00  0.00    -0.403 A  
HETATM   29  C   UNL     1      -9.625  20.393  67.649  1.00  0.00    -0.517 A  
HETATM   30  C   UNL     1     -10.369  20.063  66.512  1.00  0.00    -0.572 A  
HETATM   31  C   UNL     1     -10.428  18.711  66.146  1.00  0.00    -0.430 A  
HETATM   32  N   UNL     1     -11.064  18.110  65.090  1.00  0.00    -0.397 NA 
HETATM   33  H   UNL     1     -11.614  18.607  64.389  1.00  0.00     0.000 HD 
ENDBRANCH  19  20
ENDBRANCH  18  19
ENDBRANCH  15  18
ENDBRANCH  14  15
ENDBRANCH  12  14
ENDBRANCH  11  12
ENDBRANCH  10  11
ENDBRANCH   9  10
ENDBRANCH   8   9
ENDBRANCH   2   3
TORSDOF 10
ENDMDL
MODEL      224
REMARK 921   NORMALIZED FREE ENERGY PREDICTED BY IDOCK:   -4.49 KCAL/MOL
REMARK 922        TOTAL FREE ENERGY PREDICTED BY IDOCK:   -8.96 KCAL/MOL
REMARK 923 INTER-LIGAND FREE ENERGY PREDICTED BY IDOCK:   -7.82 KCAL/MOL
REMARK 924 INTRA-LIGAND FREE ENERGY PREDICTED BY IDOCK:   -1.14 KCAL/MOL
REMARK 927      BINDING AFFINITY PREDICTED BY RF-SCORE:    0.00 PKD
ROOT
HETATM    1  C   UNL     1      -5.480   8.649  63.713  1.00  0.00    -0.062 C  
HETATM    2  O   UNL     1      -6.601   9.268  64.341  1.00  0.00    -0.082 OA 
ENDROOT
BRANCH   2   3
HETATM    3  C   UNL     1      -7.019   8.709  65.521  1.00  0.00    -0.078 A  
HETATM    4  C   UNL     1      -8.071   7.778  65.556  1.00  0.00    -0.128 A  
HETATM    5  C   UNL     1      -8.457   7.175  66.753  1.00  0.00    -0.121 A  
HETATM    6  C   UNL     1      -7.817   7.515  67.937  1.00  0.00    -0.117 A  
HETATM    7  C   UNL     1      -6.807   8.475  67.924  1.00  0.00    -0.067 A  
HETATM    8  C   UNL     1      -6.403   9.089  66.730  1.00  0.00    -0.063 A  
BRANCH   8   9
HETATM    9  O   UNL     1      -5.395  10.001  66.936  1.00  0.00    -0.040 OA 
BRANCH   9  10
HETATM   10  C   UNL     1      -5.272  10.549  68.243  1.00  0.00    -0.034 C  
BRANCH  10  11
HETATM   11  C   UNL     1      -5.664  12.036  68.234  1.00  0.00    -0.051 C  
BRANCH  11  12
HETATM   12  N   UNL     1      -6.266  12.486  66.966  1.00  0.00    -0.466 NA 
HETATM   13  H   UNL     1      -5.888  11.967  66.174  1.00  0.00     0.000 HD 
BRANCH  12  14
HETATM   14  C   UNL     1      -7.744  12.420  66.991  1.00  0.00    -0.063 C  
BRANCH  14  15
HETATM   15  C   UNL     1      -8.305  12.354  68.428  1.00  0.00    -0.137 C  
HETATM   16  O   UNL     1      -8.882  13.617  68.771  1.00  0.00    -0.355 OA 
HETATM   17  H   UNL     1      -9.228  13.576  69.656  1.00  0.00     0.000 HD 
BRANCH  15  18
HETATM   18  C   UNL     1      -9.344  11.231  68.541  1.00  0.00    -0.182 C  
BRANCH  18  19
HETATM   19  O   UNL     1     -10.600  11.743  68.975  1.00  0.00    -0.204 OA 
BRANCH  19  20
HETATM   20  C   UNL     1     -11.275  10.972  69.891  1.00  0.00    -0.252 A  
HETATM   21  C   UNL     1     -11.120   9.580  70.031  1.00  0.00    -0.268 A  
HETATM   22  C   UNL     1     -11.816   8.866  71.002  1.00  0.00    -0.324 A  
HETATM   23  C   UNL     1     -12.694   9.506  71.875  1.00  0.00    -0.496 A  
HETATM   24  C   UNL     1     -12.852  10.890  71.727  1.00  0.00    -0.404 A  
HETATM   25  C   UNL     1     -12.175  11.636  70.760  1.00  0.00    -0.443 A  
HETATM   26  C   UNL     1     -12.605  12.998  70.900  1.00  0.00    -0.364 A  
HETATM   27  C   UNL     1     -12.305  14.197  70.218  1.00  0.00    -0.421 A  
HETATM   28  C   UNL     1     -12.909  15.393  70.619  1.00  0.00    -0.484 A  
HETATM   29  C   UNL     1     -13.803  15.408  71.687  1.00  0.00    -0.606 A  
HETATM   30  C   UNL     1     -14.122  14.234  72.378  1.00  0.00    -0.561 A  
HETATM   31  C   UNL     1     -13.509  13.047  71.956  1.00  0.00    -0.492 A  
HETATM   32  N   UNL     1     -13.640  11.768  72.435  1.00  0.00    -0.449 NA 
HETATM   33  H   UNL     1     -14.244  11.503  73.213  1.00  0.00     0.000 HD 
ENDBRANCH  19  20
ENDBRANCH  18  19
ENDBRANCH  15  18
ENDBRANCH  14  15
ENDBRANCH  12  14
ENDBRANCH  11  12
ENDBRANCH  10  11
ENDBRANCH   9  10
ENDBRANCH   8   9
ENDBRANCH   2   3
TORSDOF 10
ENDMDL
MODEL      225
REMARK 921   NORMALIZED FREE ENERGY PREDICTED BY IDOCK:   -4.49 KCAL/MOL
REMARK 922        TOTAL FREE ENERGY PREDICTED BY IDOCK:   -8.95 KCAL/MOL
REMARK 923 INTER-LIGAND FREE ENERGY PREDICTED BY IDOCK:   -8.28 KCAL/MOL
REMARK 924 INTRA-LIGAND FREE ENERGY PREDICTED BY IDOCK:   -0.67 KCAL/MOL
REMARK 927      BINDING AFFINITY PREDICTED BY RF-SCORE:    0.00 PKD
ROOT
HETATM    1  C   UNL     1     -13.329   7.675  71.442  1.00  0.00    -0.288 C  
HETATM    2  O   UNL     1     -12.622   6.628  72.103  1.00  0.00    -0.259 OA 
ENDROOT
BRANCH   2   3
HETATM    3  C   UNL     1     -11.260   6.776  72.186  1.00  0.00    -0.259 A  
HETATM    4  C   UNL     1     -10.666   7.483  73.244  1.00  0.00    -0.437 A  
HETATM    5  C   UNL     1      -9.279   7.586  73.350  1.00  0.00    -0.280 A  
HETATM    6  C   UNL     1      -8.466   7.008  72.384  1.00  0.00    -0.122 A  
HETATM    7  C   UNL     1      -9.044   6.347  71.302  1.00  0.00    -0.148 A  
HETATM    8  C   UNL     1     -10.437   6.231  71.180  1.00  0.00    -0.223 A  
BRANCH   8   9
HETATM    9  O   UNL     1     -10.799   5.544  70.046  1.00  0.00    -0.317 OA 
BRANCH   9  10
HETATM   10  C   UNL     1     -11.158   6.313  68.906  1.00  0.00    -0.362 C  
BRANCH  10  11
HETATM   11  C   UNL     1     -10.055   6.226  67.837  1.00  0.00    -0.145 C  
BRANCH  11  12
HETATM   12  N   UNL     1     -10.311   7.059  66.648  1.00  0.00    -0.462 NA 
HETATM   13  H   UNL     1     -10.988   6.616  66.026  1.00  0.00     0.000 HD 
BRANCH  12  14
HETATM   14  C   UNL     1     -10.732   8.432  67.003  1.00  0.00    -0.134 C  
BRANCH  14  15
HETATM   15  C   UNL     1      -9.569   9.443  66.920  1.00  0.00    -0.164 C  
HETATM   16  O   UNL     1      -8.393   8.778  66.447  1.00  0.00    -0.111 OA 
HETATM   17  H   UNL     1      -7.677   9.401  66.396  1.00  0.00     0.000 HD 
BRANCH  15  18
HETATM   18  C   UNL     1      -9.943  10.610  65.997  1.00  0.00    -0.239 C  
BRANCH  18  19
HETATM   19  O   UNL     1     -10.120  11.811  66.741  1.00  0.00    -0.205 OA 
BRANCH  19  20
HETATM   20  C   UNL     1     -10.770  12.830  66.086  1.00  0.00    -0.275 A  
HETATM   21  C   UNL     1     -12.024  12.704  65.460  1.00  0.00    -0.509 A  
HETATM   22  C   UNL     1     -12.638  13.787  64.839  1.00  0.00    -0.380 A  
HETATM   23  C   UNL     1     -12.031  15.042  64.817  1.00  0.00    -0.313 A  
HETATM   24  C   UNL     1     -10.779  15.161  65.434  1.00  0.00    -0.381 A  
HETATM   25  C   UNL     1     -10.132  14.094  66.060  1.00  0.00    -0.330 A  
HETATM   26  C   UNL     1      -8.878  14.589  66.551  1.00  0.00    -0.156 A  
HETATM   27  C   UNL     1      -7.793  14.003  67.239  1.00  0.00    -0.143 A  
HETATM   28  C   UNL     1      -6.689  14.788  67.588  1.00  0.00    -0.198 A  
HETATM   29  C   UNL     1      -6.654  16.142  67.261  1.00  0.00    -0.231 A  
HETATM   30  C   UNL     1      -7.712  16.747  66.576  1.00  0.00    -0.334 A  
HETATM   31  C   UNL     1      -8.806  15.942  66.232  1.00  0.00    -0.351 A  
HETATM   32  N   UNL     1      -9.960  16.260  65.561  1.00  0.00    -0.530 NA 
HETATM   33  H   UNL     1     -10.181  17.189  65.203  1.00  0.00     0.000 HD 
ENDBRANCH  19  20
ENDBRANCH  18  19
ENDBRANCH  15  18
ENDBRANCH  14  15
ENDBRANCH  12  14
ENDBRANCH  11  12
ENDBRANCH  10  11
ENDBRANCH   9  10
ENDBRANCH   8   9
ENDBRANCH   2   3
TORSDOF 10
ENDMDL
MODEL      226
REMARK 921   NORMALIZED FREE ENERGY PREDICTED BY IDOCK:   -4.47 KCAL/MOL
REMARK 922        TOTAL FREE ENERGY PREDICTED BY IDOCK:   -8.92 KCAL/MOL
REMARK 923 INTER-LIGAND FREE ENERGY PREDICTED BY IDOCK:   -7.25 KCAL/MOL
REMARK 924 INTRA-LIGAND FREE ENERGY PREDICTED BY IDOCK:   -1.68 KCAL/MOL
REMARK 927      BINDING AFFINITY PREDICTED BY RF-SCORE:    0.00 PKD
ROOT
HETATM    1  C   UNL     1      -7.144   6.067  67.473  1.00  0.00    -0.074 C  
HETATM    2  O   UNL     1      -8.424   6.131  66.847  1.00  0.00    -0.106 OA 
ENDROOT
BRANCH   2   3
HETATM    3  C   UNL     1      -8.704   7.282  66.155  1.00  0.00    -0.155 A  
HETATM    4  C   UNL     1      -7.982   7.634  65.003  1.00  0.00    -0.131 A  
HETATM    5  C   UNL     1      -8.304   8.779  64.276  1.00  0.00    -0.158 A  
HETATM    6  C   UNL     1      -9.335   9.605  64.704  1.00  0.00    -0.271 A  
HETATM    7  C   UNL     1     -10.026   9.294  65.874  1.00  0.00    -0.289 A  
HETATM    8  C   UNL     1      -9.717   8.145  66.617  1.00  0.00    -0.248 A  
BRANCH   8   9
HETATM    9  O   UNL     1     -10.515   8.023  67.730  1.00  0.00    -0.226 OA 
BRANCH   9  10
HETATM   10  C   UNL     1      -9.990   8.504  68.962  1.00  0.00    -0.193 C  
BRANCH  10  11
HETATM   11  C   UNL     1     -10.499   9.929  69.235  1.00  0.00    -0.221 C  
BRANCH  11  12
HETATM   12  N   UNL     1      -9.433  10.883  69.594  1.00  0.00    -0.363 NA 
HETATM   13  H   UNL     1      -9.168  10.787  70.575  1.00  0.00     0.000 HD 
BRANCH  12  14
HETATM   14  C   UNL     1      -8.254  10.768  68.708  1.00  0.00    -0.145 C  
BRANCH  14  15
HETATM   15  C   UNL     1      -7.024  11.517  69.266  1.00  0.00    -0.098 C  
HETATM   16  O   UNL     1      -5.845  10.749  69.011  1.00  0.00    -0.041 OA 
HETATM   17  H   UNL     1      -5.087  11.210  69.354  1.00  0.00     0.000 HD 
BRANCH  15  18
HETATM   18  C   UNL     1      -6.916  12.909  68.630  1.00  0.00    -0.101 C  
BRANCH  18  19
HETATM   19  O   UNL     1      -8.147  13.287  68.022  1.00  0.00    -0.133 OA 
BRANCH  19  20
HETATM   20  C   UNL     1      -8.168  14.532  67.440  1.00  0.00    -0.202 A  
HETATM   21  C   UNL     1      -7.211  15.537  67.671  1.00  0.00    -0.203 A  
HETATM   22  C   UNL     1      -7.279  16.767  67.023  1.00  0.00    -0.236 A  
HETATM   23  C   UNL     1      -8.300  17.047  66.117  1.00  0.00    -0.276 A  
HETATM   24  C   UNL     1      -9.256  16.047  65.896  1.00  0.00    -0.286 A  
HETATM   25  C   UNL     1      -9.222  14.806  66.533  1.00  0.00    -0.304 A  
HETATM   26  C   UNL     1     -10.362  14.064  66.076  1.00  0.00    -0.312 A  
HETATM   27  C   UNL     1     -10.878  12.782  66.362  1.00  0.00    -0.294 A  
HETATM   28  C   UNL     1     -12.042  12.344  65.721  1.00  0.00    -0.381 A  
HETATM   29  C   UNL     1     -12.693  13.165  64.803  1.00  0.00    -0.373 A  
HETATM   30  C   UNL     1     -12.206  14.441  64.504  1.00  0.00    -0.483 A  
HETATM   31  C   UNL     1     -11.042  14.862  65.161  1.00  0.00    -0.393 A  
HETATM   32  N   UNL     1     -10.358  16.047  65.072  1.00  0.00    -0.547 NA 
HETATM   33  H   UNL     1     -10.630  16.827  64.473  1.00  0.00     0.000 HD 
ENDBRANCH  19  20
ENDBRANCH  18  19
ENDBRANCH  15  18
ENDBRANCH  14  15
ENDBRANCH  12  14
ENDBRANCH  11  12
ENDBRANCH  10  11
ENDBRANCH   9  10
ENDBRANCH   8   9
ENDBRANCH   2   3
TORSDOF 10
ENDMDL
MODEL      227
REMARK 921   NORMALIZED FREE ENERGY PREDICTED BY IDOCK:   -4.47 KCAL/MOL
REMARK 922        TOTAL FREE ENERGY PREDICTED BY IDOCK:   -8.92 KCAL/MOL
REMARK 923 INTER-LIGAND FREE ENERGY PREDICTED BY IDOCK:   -8.03 KCAL/MOL
REMARK 924 INTRA-LIGAND FREE ENERGY PREDICTED BY IDOCK:   -0.90 KCAL/MOL
REMARK 927      BINDING AFFINITY PREDICTED BY RF-SCORE:    0.00 PKD
ROOT
HETATM    1  C   UNL     1     -11.839  14.626  68.098  1.00  0.00    -0.298 C  
HETATM    2  O   UNL     1     -12.213  13.317  67.674  1.00  0.00    -0.292 OA 
ENDROOT
BRANCH   2   3
HETATM    3  C   UNL     1     -11.958  13.009  66.362  1.00  0.00    -0.402 A  
HETATM    4  C   UNL     1     -12.557  13.728  65.314  1.00  0.00    -0.510 A  
HETATM    5  C   UNL     1     -12.253  13.443  63.983  1.00  0.00    -0.466 A  
HETATM    6  C   UNL     1     -11.368  12.418  63.678  1.00  0.00    -0.556 A  
HETATM    7  C   UNL     1     -10.806  11.664  64.707  1.00  0.00    -0.367 A  
HETATM    8  C   UNL     1     -11.097  11.938  66.052  1.00  0.00    -0.322 A  
BRANCH   8   9
HETATM    9  O   UNL     1     -10.440  11.082  66.904  1.00  0.00    -0.225 OA 
BRANCH   9  10
HETATM   10  C   UNL     1      -9.019  11.101  66.876  1.00  0.00    -0.161 C  
BRANCH  10  11
HETATM   11  C   UNL     1      -8.469  11.709  68.177  1.00  0.00    -0.156 C  
BRANCH  11  12
HETATM   12  N   UNL     1      -8.571  10.812  69.343  1.00  0.00    -0.375 NA 
HETATM   13  H   UNL     1      -9.130   9.987  69.126  1.00  0.00     0.000 HD 
BRANCH  12  14
HETATM   14  C   UNL     1      -7.245  10.433  69.877  1.00  0.00    -0.153 C  
BRANCH  14  15
HETATM   15  C   UNL     1      -7.128   8.915  70.138  1.00  0.00    -0.048 C  
HETATM   16  O   UNL     1      -5.814   8.472  69.783  1.00  0.00    -0.029 OA 
HETATM   17  H   UNL     1      -5.742   7.538  69.943  1.00  0.00     0.000 HD 
BRANCH  15  18
HETATM   18  C   UNL     1      -7.430   8.603  71.609  1.00  0.00    -0.092 C  
BRANCH  18  19
HETATM   19  O   UNL     1      -8.084   7.345  71.739  1.00  0.00    -0.100 OA 
BRANCH  19  20
HETATM   20  C   UNL     1      -9.457   7.376  71.682  1.00  0.00    -0.150 A  
HETATM   21  C   UNL     1     -10.288   7.822  72.726  1.00  0.00    -0.374 A  
HETATM   22  C   UNL     1     -11.672   7.854  72.589  1.00  0.00    -0.398 A  
HETATM   23  C   UNL     1     -12.288   7.445  71.408  1.00  0.00    -0.394 A  
HETATM   24  C   UNL     1     -11.457   6.993  70.374  1.00  0.00    -0.310 A  
HETATM   25  C   UNL     1     -10.066   6.943  70.480  1.00  0.00    -0.201 A  
HETATM   26  C   UNL     1      -9.567   6.412  69.243  1.00  0.00    -0.145 A  
HETATM   27  C   UNL     1      -8.278   6.108  68.755  1.00  0.00    -0.108 A  
HETATM   28  C   UNL     1      -8.130   5.593  67.462  1.00  0.00    -0.102 A  
HETATM   29  C   UNL     1      -9.246   5.379  66.657  1.00  0.00    -0.132 A  
HETATM   30  C   UNL     1     -10.535   5.666  67.117  1.00  0.00    -0.334 A  
HETATM   31  C   UNL     1     -10.661   6.177  68.415  1.00  0.00    -0.265 A  
HETATM   32  N   UNL     1     -11.783   6.534  69.118  1.00  0.00    -0.565 NA 
HETATM   33  H   UNL     1     -12.735   6.467  68.758  1.00  0.00     0.000 HD 
ENDBRANCH  19  20
ENDBRANCH  18  19
ENDBRANCH  15  18
ENDBRANCH  14  15
ENDBRANCH  12  14
ENDBRANCH  11  12
ENDBRANCH  10  11
ENDBRANCH   9  10
ENDBRANCH   8   9
ENDBRANCH   2   3
TORSDOF 10
ENDMDL
MODEL      228
REMARK 921   NORMALIZED FREE ENERGY PREDICTED BY IDOCK:   -4.46 KCAL/MOL
REMARK 922        TOTAL FREE ENERGY PREDICTED BY IDOCK:   -8.91 KCAL/MOL
REMARK 923 INTER-LIGAND FREE ENERGY PREDICTED BY IDOCK:   -8.31 KCAL/MOL
REMARK 924 INTRA-LIGAND FREE ENERGY PREDICTED BY IDOCK:   -0.60 KCAL/MOL
REMARK 927      BINDING AFFINITY PREDICTED BY RF-SCORE:    0.00 PKD
ROOT
HETATM    1  C   UNL     1      -6.942   7.793  66.555  1.00  0.00    -0.067 C  
HETATM    2  O   UNL     1      -8.337   7.723  66.268  1.00  0.00    -0.118 OA 
ENDROOT
BRANCH   2   3
HETATM    3  C   UNL     1      -8.841   8.717  65.468  1.00  0.00    -0.188 A  
HETATM    4  C   UNL     1      -8.266   9.013  64.222  1.00  0.00    -0.164 A  
HETATM    5  C   UNL     1      -8.814   9.990  63.392  1.00  0.00    -0.249 A  
HETATM    6  C   UNL     1      -9.930  10.705  63.807  1.00  0.00    -0.379 A  
HETATM    7  C   UNL     1     -10.479  10.457  65.063  1.00  0.00    -0.139 A  
HETATM    8  C   UNL     1      -9.943   9.476  65.910  1.00  0.00    -0.272 A  
BRANCH   8   9
HETATM    9  O   UNL     1     -10.632   9.389  67.097  1.00  0.00    -0.260 OA 
BRANCH   9  10
HETATM   10  C   UNL     1      -9.878   9.512  68.296  1.00  0.00    -0.155 C  
BRANCH  10  11
HETATM   11  C   UNL     1     -10.072  10.912  68.904  1.00  0.00    -0.198 C  
BRANCH  11  12
HETATM   12  N   UNL     1      -8.816  11.663  69.082  1.00  0.00    -0.349 NA 
HETATM   13  H   UNL     1      -8.162  11.153  69.676  1.00  0.00     0.000 HD 
BRANCH  12  14
HETATM   14  C   UNL     1      -8.192  12.027  67.791  1.00  0.00    -0.151 C  
BRANCH  14  15
HETATM   15  C   UNL     1      -7.135  13.142  67.942  1.00  0.00    -0.129 C  
HETATM   16  O   UNL     1      -6.209  13.070  66.853  1.00  0.00    -0.449 OA 
HETATM   17  H   UNL     1      -5.559  13.757  66.946  1.00  0.00     0.000 HD 
BRANCH  15  18
HETATM   18  C   UNL     1      -7.815  14.516  67.990  1.00  0.00    -0.137 C  
BRANCH  18  19
HETATM   19  O   UNL     1      -9.231  14.381  68.037  1.00  0.00    -0.181 OA 
BRANCH  19  20
HETATM   20  C   UNL     1      -9.897  14.643  66.863  1.00  0.00    -0.249 A  
HETATM   21  C   UNL     1     -10.382  13.657  65.984  1.00  0.00    -0.305 A  
HETATM   22  C   UNL     1     -11.074  13.994  64.825  1.00  0.00    -0.391 A  
HETATM   23  C   UNL     1     -11.314  15.326  64.493  1.00  0.00    -0.307 A  
HETATM   24  C   UNL     1     -10.822  16.305  65.365  1.00  0.00    -0.273 A  
HETATM   25  C   UNL     1     -10.119  16.002  66.533  1.00  0.00    -0.297 A  
HETATM   26  C   UNL     1      -9.763  17.249  67.148  1.00  0.00    -0.259 A  
HETATM   27  C   UNL     1      -9.046  17.600  68.312  1.00  0.00    -0.276 A  
HETATM   28  C   UNL     1      -8.877  18.949  68.642  1.00  0.00    -0.374 A  
HETATM   29  C   UNL     1      -9.413  19.946  67.830  1.00  0.00    -0.474 A  
HETATM   30  C   UNL     1     -10.124  19.627  66.669  1.00  0.00    -0.555 A  
HETATM   31  C   UNL     1     -10.277  18.270  66.354  1.00  0.00    -0.403 A  
HETATM   32  N   UNL     1     -10.907  17.677  65.291  1.00  0.00    -0.561 NA 
HETATM   33  H   UNL     1     -11.377  18.185  64.541  1.00  0.00     0.000 HD 
ENDBRANCH  19  20
ENDBRANCH  18  19
ENDBRANCH  15  18
ENDBRANCH  14  15
ENDBRANCH  12  14
ENDBRANCH  11  12
ENDBRANCH  10  11
ENDBRANCH   9  10
ENDBRANCH   8   9
ENDBRANCH   2   3
TORSDOF 10
ENDMDL
MODEL      229
REMARK 921   NORMALIZED FREE ENERGY PREDICTED BY IDOCK:   -4.46 KCAL/MOL
REMARK 922        TOTAL FREE ENERGY PREDICTED BY IDOCK:   -8.91 KCAL/MOL
REMARK 923 INTER-LIGAND FREE ENERGY PREDICTED BY IDOCK:   -8.07 KCAL/MOL
REMARK 924 INTRA-LIGAND FREE ENERGY PREDICTED BY IDOCK:   -0.84 KCAL/MOL
REMARK 927      BINDING AFFINITY PREDICTED BY RF-SCORE:    0.00 PKD
ROOT
HETATM    1  C   UNL     1      -7.683   8.699  64.997  1.00  0.00    -0.103 C  
HETATM    2  O   UNL     1      -8.245   8.063  66.143  1.00  0.00    -0.105 OA 
ENDROOT
BRANCH   2   3
HETATM    3  C   UNL     1      -8.832   6.841  65.932  1.00  0.00    -0.110 A  
HETATM    4  C   UNL     1      -8.393   5.989  64.906  1.00  0.00    -0.104 A  
HETATM    5  C   UNL     1      -8.960   4.727  64.729  1.00  0.00    -0.146 A  
HETATM    6  C   UNL     1      -9.993   4.309  65.558  1.00  0.00    -0.233 A  
HETATM    7  C   UNL     1     -10.472   5.166  66.547  1.00  0.00    -0.346 A  
HETATM    8  C   UNL     1      -9.912   6.438  66.742  1.00  0.00    -0.171 A  
BRANCH   8   9
HETATM    9  O   UNL     1     -10.526   7.119  67.766  1.00  0.00    -0.191 OA 
BRANCH   9  10
HETATM   10  C   UNL     1     -10.631   6.453  69.018  1.00  0.00    -0.257 C  
BRANCH  10  11
HETATM   11  C   UNL     1     -11.261   7.387  70.065  1.00  0.00    -0.180 C  
BRANCH  11  12
HETATM   12  N   UNL     1     -10.290   8.269  70.738  1.00  0.00    -0.192 NA 
HETATM   13  H   UNL     1      -9.630   8.668  70.070  1.00  0.00     0.000 HD 
BRANCH  12  14
HETATM   14  C   UNL     1     -10.950   9.327  71.533  1.00  0.00    -0.375 C  
BRANCH  14  15
HETATM   15  C   UNL     1     -12.097  10.015  70.760  1.00  0.00    -0.327 C  
HETATM   16  O   UNL     1     -13.047  10.543  71.691  1.00  0.00    -0.412 OA 
HETATM   17  H   UNL     1     -13.752  10.967  71.215  1.00  0.00     0.000 HD 
BRANCH  15  18
HETATM   18  C   UNL     1     -11.540  11.125  69.860  1.00  0.00    -0.337 C  
BRANCH  18  19
HETATM   19  O   UNL     1     -12.457  12.210  69.765  1.00  0.00    -0.061 OA 
BRANCH  19  20
HETATM   20  C   UNL     1     -11.999  13.324  69.103  1.00  0.00    -0.296 A  
HETATM   21  C   UNL     1     -11.648  13.354  67.741  1.00  0.00    -0.375 A  
HETATM   22  C   UNL     1     -11.219  14.527  67.127  1.00  0.00    -0.341 A  
HETATM   23  C   UNL     1     -11.121  15.719  67.843  1.00  0.00    -0.326 A  
HETATM   24  C   UNL     1     -11.462  15.683  69.201  1.00  0.00    -0.359 A  
HETATM   25  C   UNL     1     -11.891  14.523  69.849  1.00  0.00    -0.373 A  
HETATM   26  C   UNL     1     -12.125  14.868  71.222  1.00  0.00    -0.385 A  
HETATM   27  C   UNL     1     -12.541  14.143  72.360  1.00  0.00    -0.286 A  
HETATM   28  C   UNL     1     -12.680  14.799  73.587  1.00  0.00    -0.511 A  
HETATM   29  C   UNL     1     -12.411  16.161  73.694  1.00  0.00    -0.684 A  
HETATM   30  C   UNL     1     -11.993  16.903  72.585  1.00  0.00     0.180 A  
HETATM   31  C   UNL     1     -11.855  16.226  71.366  1.00  0.00    -0.339 A  
HETATM   32  N   UNL     1     -11.459  16.691  70.138  1.00  0.00    -0.331 NA 
HETATM   33  H   UNL     1     -11.196  17.657  69.945  1.00  0.00     0.000 HD 
ENDBRANCH  19  20
ENDBRANCH  18  19
ENDBRANCH  15  18
ENDBRANCH  14  15
ENDBRANCH  12  14
ENDBRANCH  11  12
ENDBRANCH  10  11
ENDBRANCH   9  10
ENDBRANCH   8   9
ENDBRANCH   2   3
TORSDOF 10
ENDMDL
MODEL      230
REMARK 921   NORMALIZED FREE ENERGY PREDICTED BY IDOCK:   -4.43 KCAL/MOL
REMARK 922        TOTAL FREE ENERGY PREDICTED BY IDOCK:   -8.86 KCAL/MOL
REMARK 923 INTER-LIGAND FREE ENERGY PREDICTED BY IDOCK:   -7.93 KCAL/MOL
REMARK 924 INTRA-LIGAND FREE ENERGY PREDICTED BY IDOCK:   -0.93 KCAL/MOL
REMARK 927      BINDING AFFINITY PREDICTED BY RF-SCORE:    0.00 PKD
ROOT
HETATM    1  C   UNL     1     -10.889   5.948  69.222  1.00  0.00    -0.344 C  
HETATM    2  O   UNL     1     -10.244   7.211  69.074  1.00  0.00    -0.178 OA 
ENDROOT
BRANCH   2   3
HETATM    3  C   UNL     1      -9.446   7.358  67.968  1.00  0.00    -0.141 A  
HETATM    4  C   UNL     1      -8.321   6.541  67.766  1.00  0.00    -0.119 A  
HETATM    5  C   UNL     1      -7.544   6.662  66.615  1.00  0.00    -0.094 A  
HETATM    6  C   UNL     1      -7.862   7.619  65.661  1.00  0.00    -0.109 A  
HETATM    7  C   UNL     1      -8.945   8.470  65.874  1.00  0.00    -0.235 A  
HETATM    8  C   UNL     1      -9.740   8.362  67.024  1.00  0.00    -0.206 A  
BRANCH   8   9
HETATM    9  O   UNL     1     -10.754   9.290  67.038  1.00  0.00    -0.232 OA 
BRANCH   9  10
HETATM   10  C   UNL     1     -10.379  10.661  67.076  1.00  0.00    -0.231 C  
BRANCH  10  11
HETATM   11  C   UNL     1      -9.556  10.952  68.342  1.00  0.00    -0.177 C  
BRANCH  11  12
HETATM   12  N   UNL     1      -9.856  12.256  68.961  1.00  0.00    -0.406 NA 
HETATM   13  H   UNL     1      -9.122  12.937  68.763  1.00  0.00     0.000 HD 
BRANCH  12  14
HETATM   14  C   UNL     1     -11.184  12.773  68.565  1.00  0.00    -0.279 C  
BRANCH  14  15
HETATM   15  C   UNL     1     -11.162  14.289  68.273  1.00  0.00    -0.276 C  
HETATM   16  O   UNL     1     -12.442  14.851  68.578  1.00  0.00    -0.575 OA 
HETATM   17  H   UNL     1     -12.428  15.784  68.399  1.00  0.00     0.000 HD 
BRANCH  15  18
HETATM   18  C   UNL     1     -10.059  14.972  69.091  1.00  0.00    -0.245 C  
BRANCH  18  19
HETATM   19  O   UNL     1      -8.873  15.125  68.318  1.00  0.00    -0.165 OA 
BRANCH  19  20
HETATM   20  C   UNL     1      -7.882  15.890  68.886  1.00  0.00    -0.198 A  
HETATM   21  C   UNL     1      -6.847  15.383  69.692  1.00  0.00    -0.185 A  
HETATM   22  C   UNL     1      -5.858  16.214  70.211  1.00  0.00    -0.117 A  
HETATM   23  C   UNL     1      -5.858  17.582  69.949  1.00  0.00    -0.249 A  
HETATM   24  C   UNL     1      -6.896  18.084  69.154  1.00  0.00    -0.223 A  
HETATM   25  C   UNL     1      -7.906  17.281  68.622  1.00  0.00    -0.272 A  
HETATM   26  C   UNL     1      -8.789  18.143  67.889  1.00  0.00    -0.273 A  
HETATM   27  C   UNL     1      -9.980  17.936  67.159  1.00  0.00    -0.327 A  
HETATM   28  C   UNL     1     -10.610  19.021  66.540  1.00  0.00    -0.495 A  
HETATM   29  C   UNL     1     -10.070  20.301  66.639  1.00  0.00    -0.538 A  
HETATM   30  C   UNL     1      -8.895  20.535  67.359  1.00  0.00    -0.393 A  
HETATM   31  C   UNL     1      -8.282  19.436  67.975  1.00  0.00    -0.318 A  
HETATM   32  N   UNL     1      -7.146  19.373  68.740  1.00  0.00    -0.332 NA 
HETATM   33  H   UNL     1      -6.562  20.177  68.973  1.00  0.00     0.000 HD 
ENDBRANCH  19  20
ENDBRANCH  18  19
ENDBRANCH  15  18
ENDBRANCH  14  15
ENDBRANCH  12  14
ENDBRANCH  11  12
ENDBRANCH  10  11
ENDBRANCH   9  10
ENDBRANCH   8   9
ENDBRANCH   2   3
TORSDOF 10
ENDMDL
MODEL      231
REMARK 921   NORMALIZED FREE ENERGY PREDICTED BY IDOCK:   -4.43 KCAL/MOL
REMARK 922        TOTAL FREE ENERGY PREDICTED BY IDOCK:   -8.86 KCAL/MOL
REMARK 923 INTER-LIGAND FREE ENERGY PREDICTED BY IDOCK:   -7.95 KCAL/MOL
REMARK 924 INTRA-LIGAND FREE ENERGY PREDICTED BY IDOCK:   -0.91 KCAL/MOL
REMARK 927      BINDING AFFINITY PREDICTED BY RF-SCORE:    0.00 PKD
ROOT
HETATM    1  C   UNL     1      -7.471   7.528  72.546  1.00  0.00    -0.079 C  
HETATM    2  O   UNL     1      -8.665   6.880  72.980  1.00  0.00    -0.119 OA 
ENDROOT
BRANCH   2   3
HETATM    3  C   UNL     1      -9.684   6.810  72.064  1.00  0.00    -0.153 A  
HETATM    4  C   UNL     1     -11.016   6.622  72.467  1.00  0.00    -0.280 A  
HETATM    5  C   UNL     1     -12.053   6.603  71.535  1.00  0.00    -0.406 A  
HETATM    6  C   UNL     1     -11.771   6.744  70.182  1.00  0.00    -0.370 A  
HETATM    7  C   UNL     1     -10.448   6.879  69.765  1.00  0.00    -0.240 A  
HETATM    8  C   UNL     1      -9.392   6.904  70.689  1.00  0.00    -0.162 A  
BRANCH   8   9
HETATM    9  O   UNL     1      -8.172   7.047  70.072  1.00  0.00    -0.128 OA 
BRANCH   9  10
HETATM   10  C   UNL     1      -8.177   7.442  68.706  1.00  0.00    -0.129 C  
BRANCH  10  11
HETATM   11  C   UNL     1      -7.396   8.755  68.529  1.00  0.00    -0.085 C  
BRANCH  11  12
HETATM   12  N   UNL     1      -8.253   9.953  68.464  1.00  0.00    -0.104 NA 
HETATM   13  H   UNL     1      -9.036   9.882  69.114  1.00  0.00     0.000 HD 
BRANCH  12  14
HETATM   14  C   UNL     1      -7.490  11.202  68.681  1.00  0.00    -0.119 C  
BRANCH  14  15
HETATM   15  C   UNL     1      -7.807  12.276  67.618  1.00  0.00    -0.156 C  
HETATM   16  O   UNL     1      -6.602  12.639  66.936  1.00  0.00    -0.444 OA 
HETATM   17  H   UNL     1      -6.797  13.300  66.281  1.00  0.00     0.000 HD 
BRANCH  15  18
HETATM   18  C   UNL     1      -8.857  11.753  66.630  1.00  0.00    -0.189 C  
BRANCH  18  19
HETATM   19  O   UNL     1     -10.171  11.904  67.157  1.00  0.00    -0.206 OA 
BRANCH  19  20
HETATM   20  C   UNL     1     -10.507  13.170  67.572  1.00  0.00    -0.228 A  
HETATM   21  C   UNL     1     -10.177  14.350  66.880  1.00  0.00    -0.265 A  
HETATM   22  C   UNL     1     -10.577  15.600  67.344  1.00  0.00    -0.301 A  
HETATM   23  C   UNL     1     -11.323  15.727  68.514  1.00  0.00    -0.374 A  
HETATM   24  C   UNL     1     -11.642  14.551  69.204  1.00  0.00    -0.298 A  
HETATM   25  C   UNL     1     -11.252  13.283  68.771  1.00  0.00    -0.317 A  
HETATM   26  C   UNL     1     -11.739  12.338  69.735  1.00  0.00    -0.368 A  
HETATM   27  C   UNL     1     -11.653  10.935  69.865  1.00  0.00    -0.410 A  
HETATM   28  C   UNL     1     -12.261  10.301  70.954  1.00  0.00    -0.465 A  
HETATM   29  C   UNL     1     -12.951  11.046  71.908  1.00  0.00    -0.485 A  
HETATM   30  C   UNL     1     -13.048  12.437  71.807  1.00  0.00    -0.446 A  
HETATM   31  C   UNL     1     -12.428  13.052  70.712  1.00  0.00    -0.302 A  
HETATM   32  N   UNL     1     -12.354  14.378  70.369  1.00  0.00    -0.323 NA 
HETATM   33  H   UNL     1     -12.771  15.137  70.909  1.00  0.00     0.000 HD 
ENDBRANCH  19  20
ENDBRANCH  18  19
ENDBRANCH  15  18
ENDBRANCH  14  15
ENDBRANCH  12  14
ENDBRANCH  11  12
ENDBRANCH  10  11
ENDBRANCH   9  10
ENDBRANCH   8   9
ENDBRANCH   2   3
TORSDOF 10
ENDMDL
MODEL      232
REMARK 921   NORMALIZED FREE ENERGY PREDICTED BY IDOCK:   -4.42 KCAL/MOL
REMARK 922        TOTAL FREE ENERGY PREDICTED BY IDOCK:   -8.86 KCAL/MOL
REMARK 923 INTER-LIGAND FREE ENERGY PREDICTED BY IDOCK:   -7.71 KCAL/MOL
REMARK 924 INTRA-LIGAND FREE ENERGY PREDICTED BY IDOCK:   -1.15 KCAL/MOL
REMARK 927      BINDING AFFINITY PREDICTED BY RF-SCORE:    0.00 PKD
ROOT
HETATM    1  C   UNL     1      -8.083  15.318  69.374  1.00  0.00    -0.230 C  
HETATM    2  O   UNL     1      -9.390  15.219  68.814  1.00  0.00    -0.190 OA 
ENDROOT
BRANCH   2   3
HETATM    3  C   UNL     1      -9.779  16.249  67.996  1.00  0.00    -0.230 A  
HETATM    4  C   UNL     1      -9.820  17.574  68.461  1.00  0.00    -0.330 A  
HETATM    5  C   UNL     1     -10.166  18.623  67.609  1.00  0.00    -0.425 A  
HETATM    6  C   UNL     1     -10.503  18.361  66.288  1.00  0.00    -0.421 A  
HETATM    7  C   UNL     1     -10.516  17.045  65.828  1.00  0.00    -0.261 A  
HETATM    8  C   UNL     1     -10.167  15.978  66.669  1.00  0.00    -0.291 A  
BRANCH   8   9
HETATM    9  O   UNL     1     -10.242  14.768  66.021  1.00  0.00    -0.275 OA 
BRANCH   9  10
HETATM   10  C   UNL     1     -11.512  14.380  65.513  1.00  0.00    -0.340 C  
BRANCH  10  11
HETATM   11  C   UNL     1     -11.338  13.506  64.259  1.00  0.00    -0.375 C  
BRANCH  11  12
HETATM   12  N   UNL     1     -10.091  12.720  64.249  1.00  0.00    -0.590 NA 
HETATM   13  H   UNL     1      -9.897  12.326  65.170  1.00  0.00     0.000 HD 
BRANCH  12  14
HETATM   14  C   UNL     1     -10.099  11.668  63.209  1.00  0.00    -0.423 C  
BRANCH  14  15
HETATM   15  C   UNL     1      -9.712  10.282  63.771  1.00  0.00    -0.235 C  
HETATM   16  O   UNL     1      -9.513   9.369  62.688  1.00  0.00    -0.564 OA 
HETATM   17  H   UNL     1      -9.275   8.516  63.034  1.00  0.00     0.000 HD 
BRANCH  15  18
HETATM   18  C   UNL     1      -8.447  10.392  64.631  1.00  0.00    -0.173 C  
BRANCH  18  19
HETATM   19  O   UNL     1      -8.685   9.912  65.950  1.00  0.00    -0.133 OA 
BRANCH  19  20
HETATM   20  C   UNL     1      -7.953  10.512  66.947  1.00  0.00    -0.121 A  
HETATM   21  C   UNL     1      -6.949  11.474  66.730  1.00  0.00    -0.108 A  
HETATM   22  C   UNL     1      -6.268  12.064  67.790  1.00  0.00    -0.081 A  
HETATM   23  C   UNL     1      -6.557  11.722  69.110  1.00  0.00    -0.102 A  
HETATM   24  C   UNL     1      -7.550  10.758  69.321  1.00  0.00    -0.129 A  
HETATM   25  C   UNL     1      -8.249  10.142  68.281  1.00  0.00    -0.110 A  
HETATM   26  C   UNL     1      -9.160   9.208  68.879  1.00  0.00    -0.139 A  
HETATM   27  C   UNL     1     -10.102   8.290  68.366  1.00  0.00    -0.227 A  
HETATM   28  C   UNL     1     -10.857   7.508  69.245  1.00  0.00    -0.131 A  
HETATM   29  C   UNL     1     -10.685   7.629  70.622  1.00  0.00    -0.237 A  
HETATM   30  C   UNL     1      -9.756   8.526  71.158  1.00  0.00    -0.257 A  
HETATM   31  C   UNL     1      -9.007   9.297  70.259  1.00  0.00    -0.229 A  
HETATM   32  N   UNL     1      -8.034  10.234  70.498  1.00  0.00    -0.354 NA 
HETATM   33  H   UNL     1      -7.711  10.506  71.427  1.00  0.00     0.000 HD 
ENDBRANCH  19  20
ENDBRANCH  18  19
ENDBRANCH  15  18
ENDBRANCH  14  15
ENDBRANCH  12  14
ENDBRANCH  11  12
ENDBRANCH  10  11
ENDBRANCH   9  10
ENDBRANCH   8   9
ENDBRANCH   2   3
TORSDOF 10
ENDMDL
MODEL      233
REMARK 921   NORMALIZED FREE ENERGY PREDICTED BY IDOCK:   -4.42 KCAL/MOL
REMARK 922        TOTAL FREE ENERGY PREDICTED BY IDOCK:   -8.85 KCAL/MOL
REMARK 923 INTER-LIGAND FREE ENERGY PREDICTED BY IDOCK:   -7.83 KCAL/MOL
REMARK 924 INTRA-LIGAND FREE ENERGY PREDICTED BY IDOCK:   -1.02 KCAL/MOL
REMARK 927      BINDING AFFINITY PREDICTED BY RF-SCORE:    0.00 PKD
ROOT
HETATM    1  C   UNL     1     -11.947  15.576  69.084  1.00  0.00    -0.309 C  
HETATM    2  O   UNL     1     -11.834  14.172  69.306  1.00  0.00    -0.295 OA 
ENDROOT
BRANCH   2   3
HETATM    3  C   UNL     1     -11.305  13.436  68.276  1.00  0.00    -0.295 A  
HETATM    4  C   UNL     1     -10.554  14.043  67.256  1.00  0.00    -0.273 A  
HETATM    5  C   UNL     1      -9.977  13.282  66.240  1.00  0.00    -0.291 A  
HETATM    6  C   UNL     1     -10.165  11.907  66.212  1.00  0.00    -0.247 A  
HETATM    7  C   UNL     1     -10.951  11.299  67.189  1.00  0.00    -0.348 A  
HETATM    8  C   UNL     1     -11.537  12.047  68.221  1.00  0.00    -0.334 A  
BRANCH   8   9
HETATM    9  O   UNL     1     -12.267  11.258  69.078  1.00  0.00    -0.444 OA 
BRANCH   9  10
HETATM   10  C   UNL     1     -11.823  11.180  70.426  1.00  0.00    -0.369 C  
BRANCH  10  11
HETATM   11  C   UNL     1     -10.799  10.043  70.584  1.00  0.00    -0.297 C  
BRANCH  11  12
HETATM   12  N   UNL     1     -11.409   8.715  70.780  1.00  0.00    -0.263 NA 
HETATM   13  H   UNL     1     -10.839   7.982  70.357  1.00  0.00     0.000 HD 
BRANCH  12  14
HETATM   14  C   UNL     1     -11.679   8.427  72.205  1.00  0.00    -0.385 C  
BRANCH  14  15
HETATM   15  C   UNL     1     -10.434   7.887  72.942  1.00  0.00    -0.355 C  
HETATM   16  O   UNL     1     -10.837   7.283  74.175  1.00  0.00    -0.536 OA 
HETATM   17  H   UNL     1     -10.071   6.950  74.629  1.00  0.00     0.000 HD 
BRANCH  15  18
HETATM   18  C   UNL     1      -9.689   6.878  72.059  1.00  0.00    -0.152 C  
BRANCH  18  19
HETATM   19  O   UNL     1     -10.581   5.893  71.549  1.00  0.00    -0.228 OA 
BRANCH  19  20
HETATM   20  C   UNL     1     -10.094   4.608  71.512  1.00  0.00    -0.185 A  
HETATM   21  C   UNL     1      -9.925   3.785  72.641  1.00  0.00    -0.220 A  
HETATM   22  C   UNL     1      -9.453   2.481  72.525  1.00  0.00    -0.155 A  
HETATM   23  C   UNL     1      -9.132   1.940  71.282  1.00  0.00    -0.149 A  
HETATM   24  C   UNL     1      -9.293   2.765  70.161  1.00  0.00    -0.129 A  
HETATM   25  C   UNL     1      -9.758   4.079  70.242  1.00  0.00    -0.263 A  
HETATM   26  C   UNL     1      -9.769   4.606  68.907  1.00  0.00    -0.236 A  
HETATM   27  C   UNL     1     -10.110   5.857  68.348  1.00  0.00    -0.206 A  
HETATM   28  C   UNL     1     -10.013   6.048  66.965  1.00  0.00    -0.197 A  
HETATM   29  C   UNL     1      -9.584   5.012  66.139  1.00  0.00    -0.178 A  
HETATM   30  C   UNL     1      -9.236   3.764  66.665  1.00  0.00    -0.188 A  
HETATM   31  C   UNL     1      -9.336   3.596  68.053  1.00  0.00    -0.183 A  
HETATM   32  N   UNL     1      -9.056   2.502  68.831  1.00  0.00    -0.122 NA 
HETATM   33  H   UNL     1      -8.716   1.610  68.471  1.00  0.00     0.000 HD 
ENDBRANCH  19  20
ENDBRANCH  18  19
ENDBRANCH  15  18
ENDBRANCH  14  15
ENDBRANCH  12  14
ENDBRANCH  11  12
ENDBRANCH  10  11
ENDBRANCH   9  10
ENDBRANCH   8   9
ENDBRANCH   2   3
TORSDOF 10
ENDMDL
MODEL      234
REMARK 921   NORMALIZED FREE ENERGY PREDICTED BY IDOCK:   -4.41 KCAL/MOL
REMARK 922        TOTAL FREE ENERGY PREDICTED BY IDOCK:   -8.83 KCAL/MOL
REMARK 923 INTER-LIGAND FREE ENERGY PREDICTED BY IDOCK:   -7.71 KCAL/MOL
REMARK 924 INTRA-LIGAND FREE ENERGY PREDICTED BY IDOCK:   -1.12 KCAL/MOL
REMARK 927      BINDING AFFINITY PREDICTED BY RF-SCORE:    0.00 PKD
ROOT
HETATM    1  C   UNL     1     -10.940   6.281  68.311  1.00  0.00    -0.321 C  
HETATM    2  O   UNL     1      -9.852   6.236  69.232  1.00  0.00    -0.138 OA 
ENDROOT
BRANCH   2   3
HETATM    3  C   UNL     1     -10.042   6.883  70.426  1.00  0.00    -0.187 A  
HETATM    4  C   UNL     1     -10.870   6.343  71.425  1.00  0.00    -0.301 A  
HETATM    5  C   UNL     1     -11.019   6.981  72.656  1.00  0.00    -0.313 A  
HETATM    6  C   UNL     1     -10.365   8.181  72.898  1.00  0.00    -0.333 A  
HETATM    7  C   UNL     1      -9.582   8.753  71.898  1.00  0.00    -0.372 A  
HETATM    8  C   UNL     1      -9.418   8.125  70.654  1.00  0.00    -0.162 A  
BRANCH   8   9
HETATM    9  O   UNL     1      -8.608   8.852  69.814  1.00  0.00    -0.123 OA 
BRANCH   9  10
HETATM   10  C   UNL     1      -7.256   8.429  69.687  1.00  0.00    -0.057 C  
BRANCH  10  11
HETATM   11  C   UNL     1      -6.561   9.202  68.554  1.00  0.00    -0.055 C  
BRANCH  11  12
HETATM   12  N   UNL     1      -7.495   9.845  67.611  1.00  0.00    -0.090 NA 
HETATM   13  H   UNL     1      -8.423   9.945  68.023  1.00  0.00     0.000 HD 
BRANCH  12  14
HETATM   14  C   UNL     1      -6.988  11.143  67.116  1.00  0.00    -0.112 C  
BRANCH  14  15
HETATM   15  C   UNL     1      -8.123  12.162  66.869  1.00  0.00    -0.112 C  
HETATM   16  O   UNL     1      -8.928  11.718  65.773  1.00  0.00    -0.372 OA 
HETATM   17  H   UNL     1      -9.627  12.344  65.621  1.00  0.00     0.000 HD 
BRANCH  15  18
HETATM   18  C   UNL     1      -8.971  12.330  68.136  1.00  0.00    -0.192 C  
BRANCH  18  19
HETATM   19  O   UNL     1     -10.189  13.008  67.845  1.00  0.00    -0.222 OA 
BRANCH  19  20
HETATM   20  C   UNL     1     -10.221  14.345  68.165  1.00  0.00    -0.232 A  
HETATM   21  C   UNL     1      -9.593  15.358  67.417  1.00  0.00    -0.210 A  
HETATM   22  C   UNL     1      -9.691  16.697  67.783  1.00  0.00    -0.240 A  
HETATM   23  C   UNL     1     -10.419  17.084  68.907  1.00  0.00    -0.347 A  
HETATM   24  C   UNL     1     -11.035  16.071  69.653  1.00  0.00    -0.326 A  
HETATM   25  C   UNL     1     -10.952  14.719  69.318  1.00  0.00    -0.275 A  
HETATM   26  C   UNL     1     -11.683  13.990  70.316  1.00  0.00    -0.308 A  
HETATM   27  C   UNL     1     -11.945  12.620  70.536  1.00  0.00    -0.279 A  
HETATM   28  C   UNL     1     -12.722  12.231  71.632  1.00  0.00    -0.309 A  
HETATM   29  C   UNL     1     -13.239  13.185  72.505  1.00  0.00    -0.437 A  
HETATM   30  C   UNL     1     -12.992  14.548  72.313  1.00  0.00    -0.441 A  
HETATM   31  C   UNL     1     -12.207  14.916  71.212  1.00  0.00    -0.325 A  
HETATM   32  N   UNL     1     -11.803  16.158  70.792  1.00  0.00    -0.522 NA 
HETATM   33  H   UNL     1     -12.040  17.031  71.263  1.00  0.00     0.000 HD 
ENDBRANCH  19  20
ENDBRANCH  18  19
ENDBRANCH  15  18
ENDBRANCH  14  15
ENDBRANCH  12  14
ENDBRANCH  11  12
ENDBRANCH  10  11
ENDBRANCH   9  10
ENDBRANCH   8   9
ENDBRANCH   2   3
TORSDOF 10
ENDMDL
MODEL      235
REMARK 921   NORMALIZED FREE ENERGY PREDICTED BY IDOCK:   -4.41 KCAL/MOL
REMARK 922        TOTAL FREE ENERGY PREDICTED BY IDOCK:   -8.83 KCAL/MOL
REMARK 923 INTER-LIGAND FREE ENERGY PREDICTED BY IDOCK:   -7.85 KCAL/MOL
REMARK 924 INTRA-LIGAND FREE ENERGY PREDICTED BY IDOCK:   -0.98 KCAL/MOL
REMARK 927      BINDING AFFINITY PREDICTED BY RF-SCORE:    0.00 PKD
ROOT
HETATM    1  C   UNL     1     -11.612   6.607  70.621  1.00  0.00    -0.382 C  
HETATM    2  O   UNL     1     -10.880   7.810  70.396  1.00  0.00    -0.237 OA 
ENDROOT
BRANCH   2   3
HETATM    3  C   UNL     1     -10.452   8.027  69.110  1.00  0.00    -0.208 A  
HETATM    4  C   UNL     1      -9.611   7.111  68.457  1.00  0.00    -0.139 A  
HETATM    5  C   UNL     1      -9.221   7.313  67.133  1.00  0.00    -0.156 A  
HETATM    6  C   UNL     1      -9.644   8.446  66.451  1.00  0.00    -0.307 A  
HETATM    7  C   UNL     1     -10.437   9.387  67.105  1.00  0.00    -0.315 A  
HETATM    8  C   UNL     1     -10.841   9.201  68.435  1.00  0.00    -0.048 A  
BRANCH   8   9
HETATM    9  O   UNL     1     -11.617  10.241  68.887  1.00  0.00    -0.180 OA 
BRANCH   9  10
HETATM   10  C   UNL     1     -11.007  11.524  68.960  1.00  0.00    -0.234 C  
BRANCH  10  11
HETATM   11  C   UNL     1     -12.024  12.617  68.594  1.00  0.00    -0.223 C  
BRANCH  11  12
HETATM   12  N   UNL     1     -11.468  13.689  67.749  1.00  0.00    -0.299 NA 
HETATM   13  H   UNL     1     -11.214  14.505  68.307  1.00  0.00     0.000 HD 
BRANCH  12  14
HETATM   14  C   UNL     1     -10.326  13.225  66.931  1.00  0.00    -0.255 C  
BRANCH  14  15
HETATM   15  C   UNL     1      -9.067  14.097  67.130  1.00  0.00    -0.232 C  
HETATM   16  O   UNL     1      -7.925  13.408  66.612  1.00  0.00    -0.343 OA 
HETATM   17  H   UNL     1      -7.151  13.945  66.734  1.00  0.00     0.000 HD 
BRANCH  15  18
HETATM   18  C   UNL     1      -9.246  15.453  66.435  1.00  0.00    -0.305 C  
BRANCH  18  19
HETATM   19  O   UNL     1      -9.673  16.446  67.362  1.00  0.00    -0.233 OA 
BRANCH  19  20
HETATM   20  C   UNL     1      -9.687  17.737  66.890  1.00  0.00    -0.300 A  
HETATM   21  C   UNL     1     -10.650  18.252  66.002  1.00  0.00    -0.318 A  
HETATM   22  C   UNL     1     -10.620  19.580  65.589  1.00  0.00    -0.434 A  
HETATM   23  C   UNL     1      -9.632  20.452  66.042  1.00  0.00    -0.226 A  
HETATM   24  C   UNL     1      -8.670  19.934  66.918  1.00  0.00    -0.340 A  
HETATM   25  C   UNL     1      -8.667  18.606  67.348  1.00  0.00    -0.281 A  
HETATM   26  C   UNL     1      -7.531  18.444  68.211  1.00  0.00    -0.293 A  
HETATM   27  C   UNL     1      -6.989  17.353  68.925  1.00  0.00    -0.244 A  
HETATM   28  C   UNL     1      -5.840  17.536  69.702  1.00  0.00    -0.243 A  
HETATM   29  C   UNL     1      -5.230  18.786  69.776  1.00  0.00    -0.198 A  
HETATM   30  C   UNL     1      -5.743  19.882  69.076  1.00  0.00    -0.266 A  
HETATM   31  C   UNL     1      -6.892  19.676  68.300  1.00  0.00    -0.289 A  
HETATM   32  N   UNL     1      -7.595  20.553  67.514  1.00  0.00    -0.317 NA 
HETATM   33  H   UNL     1      -7.352  21.536  67.387  1.00  0.00     0.000 HD 
ENDBRANCH  19  20
ENDBRANCH  18  19
ENDBRANCH  15  18
ENDBRANCH  14  15
ENDBRANCH  12  14
ENDBRANCH  11  12
ENDBRANCH  10  11
ENDBRANCH   9  10
ENDBRANCH   8   9
ENDBRANCH   2   3
TORSDOF 10
ENDMDL
MODEL      236
REMARK 921   NORMALIZED FREE ENERGY PREDICTED BY IDOCK:   -4.40 KCAL/MOL
REMARK 922        TOTAL FREE ENERGY PREDICTED BY IDOCK:   -8.82 KCAL/MOL
REMARK 923 INTER-LIGAND FREE ENERGY PREDICTED BY IDOCK:   -7.79 KCAL/MOL
REMARK 924 INTRA-LIGAND FREE ENERGY PREDICTED BY IDOCK:   -1.03 KCAL/MOL
REMARK 927      BINDING AFFINITY PREDICTED BY RF-SCORE:    0.00 PKD
ROOT
HETATM    1  C   UNL     1     -10.943   6.534  67.888  1.00  0.00    -0.294 C  
HETATM    2  O   UNL     1     -10.135   6.906  69.002  1.00  0.00    -0.161 OA 
ENDROOT
BRANCH   2   3
HETATM    3  C   UNL     1     -10.419   6.285  70.192  1.00  0.00    -0.222 A  
HETATM    4  C   UNL     1      -9.879   5.028  70.506  1.00  0.00    -0.290 A  
HETATM    5  C   UNL     1     -10.131   4.425  71.738  1.00  0.00    -0.238 A  
HETATM    6  C   UNL     1     -10.951   5.058  72.664  1.00  0.00    -0.280 A  
HETATM    7  C   UNL     1     -11.535   6.282  72.344  1.00  0.00    -0.335 A  
HETATM    8  C   UNL     1     -11.290   6.905  71.110  1.00  0.00    -0.290 A  
BRANCH   8   9
HETATM    9  O   UNL     1     -11.958   8.101  70.997  1.00  0.00    -0.295 OA 
BRANCH   9  10
HETATM   10  C   UNL     1     -12.950   8.387  71.974  1.00  0.00    -0.358 C  
BRANCH  10  11
HETATM   11  C   UNL     1     -13.519   9.799  71.756  1.00  0.00    -0.376 C  
BRANCH  11  12
HETATM   12  N   UNL     1     -12.499  10.864  71.790  1.00  0.00    -0.232 NA 
HETATM   13  H   UNL     1     -11.562  10.480  71.673  1.00  0.00     0.000 HD 
BRANCH  12  14
HETATM   14  C   UNL     1     -12.767  11.929  70.799  1.00  0.00    -0.153 C  
BRANCH  14  15
HETATM   15  C   UNL     1     -13.072  13.288  71.465  1.00  0.00    -0.328 C  
HETATM   16  O   UNL     1     -12.955  13.158  72.885  1.00  0.00    -0.215 OA 
HETATM   17  H   UNL     1     -13.142  13.995  73.295  1.00  0.00     0.000 HD 
BRANCH  15  18
HETATM   18  C   UNL     1     -12.118  14.366  70.935  1.00  0.00    -0.344 C  
BRANCH  18  19
HETATM   19  O   UNL     1     -11.867  14.184  69.545  1.00  0.00    -0.280 OA 
BRANCH  19  20
HETATM   20  C   UNL     1     -10.692  14.720  69.075  1.00  0.00    -0.250 A  
HETATM   21  C   UNL     1     -10.161  15.958  69.481  1.00  0.00    -0.277 A  
HETATM   22  C   UNL     1      -8.948  16.426  68.984  1.00  0.00    -0.239 A  
HETATM   23  C   UNL     1      -8.213  15.683  68.063  1.00  0.00    -0.146 A  
HETATM   24  C   UNL     1      -8.750  14.456  67.654  1.00  0.00    -0.189 A  
HETATM   25  C   UNL     1      -9.965  13.958  68.127  1.00  0.00    -0.240 A  
HETATM   26  C   UNL     1     -10.192  12.701  67.473  1.00  0.00    -0.215 A  
HETATM   27  C   UNL     1     -11.231  11.747  67.514  1.00  0.00    -0.354 A  
HETATM   28  C   UNL     1     -11.140  10.589  66.734  1.00  0.00    -0.061 A  
HETATM   29  C   UNL     1     -10.031  10.373  65.919  1.00  0.00    -0.317 A  
HETATM   30  C   UNL     1      -8.989  11.304  65.856  1.00  0.00    -0.206 A  
HETATM   31  C   UNL     1      -9.103  12.459  66.641  1.00  0.00    -0.204 A  
HETATM   32  N   UNL     1      -8.253  13.527  66.768  1.00  0.00    -0.398 NA 
HETATM   33  H   UNL     1      -7.367  13.622  66.270  1.00  0.00     0.000 HD 
ENDBRANCH  19  20
ENDBRANCH  18  19
ENDBRANCH  15  18
ENDBRANCH  14  15
ENDBRANCH  12  14
ENDBRANCH  11  12
ENDBRANCH  10  11
ENDBRANCH   9  10
ENDBRANCH   8   9
ENDBRANCH   2   3
TORSDOF 10
ENDMDL
MODEL      237
REMARK 921   NORMALIZED FREE ENERGY PREDICTED BY IDOCK:   -4.40 KCAL/MOL
REMARK 922        TOTAL FREE ENERGY PREDICTED BY IDOCK:   -8.82 KCAL/MOL
REMARK 923 INTER-LIGAND FREE ENERGY PREDICTED BY IDOCK:   -7.68 KCAL/MOL
REMARK 924 INTRA-LIGAND FREE ENERGY PREDICTED BY IDOCK:   -1.14 KCAL/MOL
REMARK 927      BINDING AFFINITY PREDICTED BY RF-SCORE:    0.00 PKD
ROOT
HETATM    1  C   UNL     1     -12.299   6.686  71.550  1.00  0.00    -0.313 C  
HETATM    2  O   UNL     1     -11.736   5.829  72.541  1.00  0.00    -0.309 OA 
ENDROOT
BRANCH   2   3
HETATM    3  C   UNL     1     -10.495   6.179  73.010  1.00  0.00    -0.226 A  
HETATM    4  C   UNL     1     -10.174   7.516  73.296  1.00  0.00    -0.398 A  
HETATM    5  C   UNL     1      -8.928   7.858  73.821  1.00  0.00    -0.324 A  
HETATM    6  C   UNL     1      -7.975   6.873  74.042  1.00  0.00    -0.124 A  
HETATM    7  C   UNL     1      -8.263   5.550  73.714  1.00  0.00    -0.111 A  
HETATM    8  C   UNL     1      -9.512   5.186  73.188  1.00  0.00    -0.134 A  
BRANCH   8   9
HETATM    9  O   UNL     1      -9.591   3.837  72.937  1.00  0.00    -0.119 OA 
BRANCH   9  10
HETATM   10  C   UNL     1      -9.851   3.439  71.597  1.00  0.00    -0.152 C  
BRANCH  10  11
HETATM   11  C   UNL     1      -8.545   3.421  70.785  1.00  0.00    -0.071 C  
BRANCH  11  12
HETATM   12  N   UNL     1      -8.643   4.107  69.483  1.00  0.00    -0.071 NA 
HETATM   13  H   UNL     1      -9.351   3.672  68.890  1.00  0.00     0.000 HD 
BRANCH  12  14
HETATM   14  C   UNL     1      -8.889   5.558  69.630  1.00  0.00    -0.111 C  
BRANCH  14  15
HETATM   15  C   UNL     1      -9.050   6.268  68.269  1.00  0.00    -0.113 C  
HETATM   16  O   UNL     1      -9.338   5.297  67.258  1.00  0.00    -0.114 OA 
HETATM   17  H   UNL     1      -9.438   5.734  66.420  1.00  0.00     0.000 HD 
BRANCH  15  18
HETATM   18  C   UNL     1     -10.164   7.320  68.347  1.00  0.00    -0.180 C  
BRANCH  18  19
HETATM   19  O   UNL     1      -9.626   8.636  68.281  1.00  0.00    -0.144 OA 
BRANCH  19  20
HETATM   20  C   UNL     1     -10.420   9.633  68.797  1.00  0.00    -0.215 A  
HETATM   21  C   UNL     1     -10.794   9.735  70.150  1.00  0.00    -0.340 A  
HETATM   22  C   UNL     1     -11.577  10.790  70.609  1.00  0.00    -0.388 A  
HETATM   23  C   UNL     1     -12.019  11.788  69.742  1.00  0.00    -0.392 A  
HETATM   24  C   UNL     1     -11.652  11.678  68.395  1.00  0.00    -0.312 A  
HETATM   25  C   UNL     1     -10.873  10.631  67.900  1.00  0.00    -0.328 A  
HETATM   26  C   UNL     1     -10.725  10.845  66.488  1.00  0.00    -0.270 A  
HETATM   27  C   UNL     1     -10.079  10.138  65.451  1.00  0.00    -0.342 A  
HETATM   28  C   UNL     1     -10.120  10.635  64.144  1.00  0.00    -0.402 A  
HETATM   29  C   UNL     1     -10.792  11.822  63.861  1.00  0.00    -0.468 A  
HETATM   30  C   UNL     1     -11.443  12.540  64.869  1.00  0.00    -0.367 A  
HETATM   31  C   UNL     1     -11.394  12.022  66.170  1.00  0.00    -0.351 A  
HETATM   32  N   UNL     1     -11.943  12.502  67.332  1.00  0.00    -0.488 NA 
HETATM   33  H   UNL     1     -12.494  13.357  67.399  1.00  0.00     0.000 HD 
ENDBRANCH  19  20
ENDBRANCH  18  19
ENDBRANCH  15  18
ENDBRANCH  14  15
ENDBRANCH  12  14
ENDBRANCH  11  12
ENDBRANCH  10  11
ENDBRANCH   9  10
ENDBRANCH   8   9
ENDBRANCH   2   3
TORSDOF 10
ENDMDL
MODEL      238
REMARK 921   NORMALIZED FREE ENERGY PREDICTED BY IDOCK:   -4.38 KCAL/MOL
REMARK 922        TOTAL FREE ENERGY PREDICTED BY IDOCK:   -8.78 KCAL/MOL
REMARK 923 INTER-LIGAND FREE ENERGY PREDICTED BY IDOCK:   -7.80 KCAL/MOL
REMARK 924 INTRA-LIGAND FREE ENERGY PREDICTED BY IDOCK:   -0.98 KCAL/MOL
REMARK 927      BINDING AFFINITY PREDICTED BY RF-SCORE:    0.00 PKD
ROOT
HETATM    1  C   UNL     1     -11.545  16.120  68.341  1.00  0.00    -0.228 C  
HETATM    2  O   UNL     1     -10.689  16.176  67.201  1.00  0.00    -0.310 OA 
ENDROOT
BRANCH   2   3
HETATM    3  C   UNL     1      -9.626  17.039  67.284  1.00  0.00    -0.244 A  
HETATM    4  C   UNL     1      -9.801  18.378  67.670  1.00  0.00    -0.328 A  
HETATM    5  C   UNL     1      -8.710  19.236  67.801  1.00  0.00    -0.345 A  
HETATM    6  C   UNL     1      -7.430  18.777  67.522  1.00  0.00    -0.241 A  
HETATM    7  C   UNL     1      -7.248  17.464  67.088  1.00  0.00    -0.201 A  
HETATM    8  C   UNL     1      -8.333  16.586  66.953  1.00  0.00    -0.212 A  
BRANCH   8   9
HETATM    9  O   UNL     1      -7.938  15.344  66.517  1.00  0.00    -0.137 OA 
BRANCH   9  10
HETATM   10  C   UNL     1      -7.414  14.450  67.491  1.00  0.00    -0.186 C  
BRANCH  10  11
HETATM   11  C   UNL     1      -8.498  14.091  68.521  1.00  0.00    -0.143 C  
BRANCH  11  12
HETATM   12  N   UNL     1      -8.447  12.689  68.975  1.00  0.00    -0.254 NA 
HETATM   13  H   UNL     1      -9.365  12.248  68.914  1.00  0.00     0.000 HD 
BRANCH  12  14
HETATM   14  C   UNL     1      -7.426  11.901  68.251  1.00  0.00    -0.104 C  
BRANCH  14  15
HETATM   15  C   UNL     1      -7.981  10.556  67.731  1.00  0.00    -0.106 C  
HETATM   16  O   UNL     1      -7.126   9.492  68.161  1.00  0.00    -0.077 OA 
HETATM   17  H   UNL     1      -7.468   8.665  67.841  1.00  0.00     0.000 HD 
BRANCH  15  18
HETATM   18  C   UNL     1      -9.413  10.342  68.236  1.00  0.00    -0.142 C  
BRANCH  18  19
HETATM   19  O   UNL     1      -9.415   9.902  69.590  1.00  0.00    -0.206 OA 
BRANCH  19  20
HETATM   20  C   UNL     1     -10.617  10.000  70.250  1.00  0.00    -0.295 A  
HETATM   21  C   UNL     1     -11.658  10.873  69.884  1.00  0.00    -0.410 A  
HETATM   22  C   UNL     1     -12.862  10.899  70.581  1.00  0.00    -0.340 A  
HETATM   23  C   UNL     1     -13.081  10.058  71.671  1.00  0.00    -0.547 A  
HETATM   24  C   UNL     1     -12.038   9.198  72.038  1.00  0.00    -0.361 A  
HETATM   25  C   UNL     1     -10.816   9.150  71.365  1.00  0.00    -0.419 A  
HETATM   26  C   UNL     1     -10.003   8.176  72.034  1.00  0.00    -0.299 A  
HETATM   27  C   UNL     1      -8.687   7.699  71.846  1.00  0.00    -0.138 A  
HETATM   28  C   UNL     1      -8.180   6.709  72.696  1.00  0.00    -0.108 A  
HETATM   29  C   UNL     1      -8.965   6.192  73.724  1.00  0.00    -0.129 A  
HETATM   30  C   UNL     1     -10.270   6.649  73.936  1.00  0.00    -0.379 A  
HETATM   31  C   UNL     1     -10.756   7.644  73.076  1.00  0.00    -0.391 A  
HETATM   32  N   UNL     1     -11.973   8.275  73.057  1.00  0.00    -0.523 NA 
HETATM   33  H   UNL     1     -12.732   8.086  73.713  1.00  0.00     0.000 HD 
ENDBRANCH  19  20
ENDBRANCH  18  19
ENDBRANCH  15  18
ENDBRANCH  14  15
ENDBRANCH  12  14
ENDBRANCH  11  12
ENDBRANCH  10  11
ENDBRANCH   9  10
ENDBRANCH   8   9
ENDBRANCH   2   3
TORSDOF 10
ENDMDL
MODEL      239
REMARK 921   NORMALIZED FREE ENERGY PREDICTED BY IDOCK:   -4.37 KCAL/MOL
REMARK 922        TOTAL FREE ENERGY PREDICTED BY IDOCK:   -8.77 KCAL/MOL
REMARK 923 INTER-LIGAND FREE ENERGY PREDICTED BY IDOCK:   -7.90 KCAL/MOL
REMARK 924 INTRA-LIGAND FREE ENERGY PREDICTED BY IDOCK:   -0.87 KCAL/MOL
REMARK 927      BINDING AFFINITY PREDICTED BY RF-SCORE:    0.00 PKD
ROOT
HETATM    1  C   UNL     1     -10.840  19.564  66.342  1.00  0.00    -0.340 C  
HETATM    2  O   UNL     1      -9.584  19.008  65.958  1.00  0.00    -0.453 OA 
ENDROOT
BRANCH   2   3
HETATM    3  C   UNL     1      -8.751  18.632  66.981  1.00  0.00    -0.280 A  
HETATM    4  C   UNL     1      -8.348  19.546  67.968  1.00  0.00    -0.355 A  
HETATM    5  C   UNL     1      -7.542  19.145  69.032  1.00  0.00    -0.337 A  
HETATM    6  C   UNL     1      -7.103  17.830  69.112  1.00  0.00    -0.180 A  
HETATM    7  C   UNL     1      -7.453  16.925  68.111  1.00  0.00    -0.178 A  
HETATM    8  C   UNL     1      -8.266  17.310  67.034  1.00  0.00    -0.208 A  
BRANCH   8   9
HETATM    9  O   UNL     1      -8.493  16.270  66.164  1.00  0.00    -0.325 OA 
BRANCH   9  10
HETATM   10  C   UNL     1      -9.532  15.359  66.498  1.00  0.00    -0.273 C  
BRANCH  10  11
HETATM   11  C   UNL     1     -10.443  15.124  65.281  1.00  0.00    -0.409 C  
BRANCH  11  12
HETATM   12  N   UNL     1      -9.967  14.061  64.377  1.00  0.00    -0.658 NA 
HETATM   13  H   UNL     1      -9.062  13.699  64.677  1.00  0.00     0.000 HD 
BRANCH  12  14
HETATM   14  C   UNL     1     -10.954  12.970  64.223  1.00  0.00    -0.399 C  
BRANCH  14  15
HETATM   15  C   UNL     1     -12.194  13.169  65.122  1.00  0.00    -0.450 C  
HETATM   16  O   UNL     1     -13.359  12.703  64.433  1.00  0.00    -0.568 OA 
HETATM   17  H   UNL     1     -14.122  12.824  64.986  1.00  0.00     0.000 HD 
BRANCH  15  18
HETATM   18  C   UNL     1     -12.012  12.424  66.450  1.00  0.00    -0.274 C  
BRANCH  18  19
HETATM   19  O   UNL     1     -11.263  11.228  66.265  1.00  0.00    -0.232 OA 
BRANCH  19  20
HETATM   20  C   UNL     1     -10.626  10.742  67.382  1.00  0.00    -0.242 A  
HETATM   21  C   UNL     1     -11.213  10.649  68.657  1.00  0.00    -0.337 A  
HETATM   22  C   UNL     1     -10.519  10.117  69.739  1.00  0.00    -0.301 A  
HETATM   23  C   UNL     1      -9.211   9.655  69.598  1.00  0.00    -0.225 A  
HETATM   24  C   UNL     1      -8.627   9.758  68.329  1.00  0.00    -0.119 A  
HETATM   25  C   UNL     1      -9.293  10.291  67.224  1.00  0.00    -0.169 A  
HETATM   26  C   UNL     1      -8.378  10.250  66.119  1.00  0.00    -0.140 A  
HETATM   27  C   UNL     1      -8.452  10.654  64.768  1.00  0.00    -0.102 A  
HETATM   28  C   UNL     1      -7.351  10.462  63.926  1.00  0.00     0.010 A  
HETATM   29  C   UNL     1      -6.185   9.875  64.413  1.00  0.00    -0.122 A  
HETATM   30  C   UNL     1      -6.083   9.469  65.747  1.00  0.00    -0.060 A  
HETATM   31  C   UNL     1      -7.196   9.675  66.574  1.00  0.00    -0.090 A  
HETATM   32  N   UNL     1      -7.371   9.390  67.904  1.00  0.00    -0.083 NA 
HETATM   33  H   UNL     1      -6.663   8.961  68.500  1.00  0.00     0.000 HD 
ENDBRANCH  19  20
ENDBRANCH  18  19
ENDBRANCH  15  18
ENDBRANCH  14  15
ENDBRANCH  12  14
ENDBRANCH  11  12
ENDBRANCH  10  11
ENDBRANCH   9  10
ENDBRANCH   8   9
ENDBRANCH   2   3
TORSDOF 10
ENDMDL
MODEL      240
REMARK 921   NORMALIZED FREE ENERGY PREDICTED BY IDOCK:   -4.36 KCAL/MOL
REMARK 922        TOTAL FREE ENERGY PREDICTED BY IDOCK:   -8.75 KCAL/MOL
REMARK 923 INTER-LIGAND FREE ENERGY PREDICTED BY IDOCK:   -7.67 KCAL/MOL
REMARK 924 INTRA-LIGAND FREE ENERGY PREDICTED BY IDOCK:   -1.08 KCAL/MOL
REMARK 927      BINDING AFFINITY PREDICTED BY RF-SCORE:    0.00 PKD
ROOT
HETATM    1  C   UNL     1     -11.012   7.159  73.141  1.00  0.00    -0.305 C  
HETATM    2  O   UNL     1     -10.985   5.790  72.745  1.00  0.00    -0.239 OA 
ENDROOT
BRANCH   2   3
HETATM    3  C   UNL     1      -9.777   5.310  72.303  1.00  0.00    -0.158 A  
HETATM    4  C   UNL     1      -8.647   5.302  73.137  1.00  0.00    -0.117 A  
HETATM    5  C   UNL     1      -7.436   4.767  72.699  1.00  0.00    -0.086 A  
HETATM    6  C   UNL     1      -7.329   4.257  71.412  1.00  0.00    -0.051 A  
HETATM    7  C   UNL     1      -8.429   4.306  70.558  1.00  0.00    -0.100 A  
HETATM    8  C   UNL     1      -9.656   4.838  70.982  1.00  0.00    -0.175 A  
BRANCH   8   9
HETATM    9  O   UNL     1     -10.607   4.790  69.990  1.00  0.00    -0.093 OA 
BRANCH   9  10
HETATM   10  C   UNL     1     -10.983   6.023  69.390  1.00  0.00    -0.385 C  
BRANCH  10  11
HETATM   11  C   UNL     1      -9.832   6.567  68.528  1.00  0.00    -0.138 C  
BRANCH  11  12
HETATM   12  N   UNL     1      -9.436   7.947  68.865  1.00  0.00    -0.150 NA 
HETATM   13  H   UNL     1      -8.901   7.975  69.733  1.00  0.00     0.000 HD 
BRANCH  12  14
HETATM   14  C   UNL     1      -8.701   8.605  67.763  1.00  0.00    -0.137 C  
BRANCH  14  15
HETATM   15  C   UNL     1      -9.631   9.425  66.843  1.00  0.00    -0.164 C  
HETATM   16  O   UNL     1     -10.012   8.625  65.719  1.00  0.00    -0.456 OA 
HETATM   17  H   UNL     1     -10.585   9.130  65.152  1.00  0.00     0.000 HD 
BRANCH  15  18
HETATM   18  C   UNL     1     -10.866   9.897  67.620  1.00  0.00    -0.257 C  
BRANCH  18  19
HETATM   19  O   UNL     1     -10.496  10.768  68.683  1.00  0.00    -0.173 OA 
BRANCH  19  20
HETATM   20  C   UNL     1     -11.372  10.827  69.741  1.00  0.00    -0.300 A  
HETATM   21  C   UNL     1     -11.812   9.710  70.475  1.00  0.00    -0.284 A  
HETATM   22  C   UNL     1     -12.678   9.847  71.555  1.00  0.00    -0.515 A  
HETATM   23  C   UNL     1     -13.143  11.100  71.950  1.00  0.00    -0.513 A  
HETATM   24  C   UNL     1     -12.711  12.208  71.211  1.00  0.00    -0.261 A  
HETATM   25  C   UNL     1     -11.847  12.106  70.119  1.00  0.00    -0.368 A  
HETATM   26  C   UNL     1     -11.651  13.434  69.611  1.00  0.00    -0.334 A  
HETATM   27  C   UNL     1     -10.917  13.973  68.531  1.00  0.00    -0.274 A  
HETATM   28  C   UNL     1     -10.931  15.354  68.305  1.00  0.00    -0.288 A  
HETATM   29  C   UNL     1     -11.663  16.197  69.137  1.00  0.00    -0.239 A  
HETATM   30  C   UNL     1     -12.402  15.690  70.211  1.00  0.00    -0.402 A  
HETATM   31  C   UNL     1     -12.378  14.304  70.417  1.00  0.00    -0.352 A  
HETATM   32  N   UNL     1     -13.006  13.543  71.369  1.00  0.00    -0.352 NA 
HETATM   33  H   UNL     1     -13.612  13.917  72.099  1.00  0.00     0.000 HD 
ENDBRANCH  19  20
ENDBRANCH  18  19
ENDBRANCH  15  18
ENDBRANCH  14  15
ENDBRANCH  12  14
ENDBRANCH  11  12
ENDBRANCH  10  11
ENDBRANCH   9  10
ENDBRANCH   8   9
ENDBRANCH   2   3
TORSDOF 10
ENDMDL
MODEL      241
REMARK 921   NORMALIZED FREE ENERGY PREDICTED BY IDOCK:   -4.36 KCAL/MOL
REMARK 922        TOTAL FREE ENERGY PREDICTED BY IDOCK:   -8.75 KCAL/MOL
REMARK 923 INTER-LIGAND FREE ENERGY PREDICTED BY IDOCK:   -8.09 KCAL/MOL
REMARK 924 INTRA-LIGAND FREE ENERGY PREDICTED BY IDOCK:   -0.66 KCAL/MOL
REMARK 927      BINDING AFFINITY PREDICTED BY RF-SCORE:    0.00 PKD
ROOT
HETATM    1  C   UNL     1      -7.380   6.585  70.666  1.00  0.00    -0.079 C  
HETATM    2  O   UNL     1      -8.727   6.316  70.286  1.00  0.00    -0.139 OA 
ENDROOT
BRANCH   2   3
HETATM    3  C   UNL     1      -9.695   7.046  70.927  1.00  0.00    -0.174 A  
HETATM    4  C   UNL     1     -10.012   6.813  72.276  1.00  0.00    -0.173 A  
HETATM    5  C   UNL     1     -10.961   7.593  72.936  1.00  0.00    -0.456 A  
HETATM    6  C   UNL     1     -11.628   8.599  72.251  1.00  0.00    -0.424 A  
HETATM    7  C   UNL     1     -11.360   8.807  70.899  1.00  0.00    -0.322 A  
HETATM    8  C   UNL     1     -10.407   8.035  70.219  1.00  0.00    -0.212 A  
BRANCH   8   9
HETATM    9  O   UNL     1     -10.295   8.402  68.899  1.00  0.00    -0.214 OA 
BRANCH   9  10
HETATM   10  C   UNL     1      -9.230   9.281  68.557  1.00  0.00    -0.135 C  
BRANCH  10  11
HETATM   11  C   UNL     1      -9.527  10.700  69.071  1.00  0.00    -0.191 C  
BRANCH  11  12
HETATM   12  N   UNL     1      -8.321  11.466  69.434  1.00  0.00    -0.318 NA 
HETATM   13  H   UNL     1      -7.762  10.968  70.127  1.00  0.00     0.000 HD 
BRANCH  12  14
HETATM   14  C   UNL     1      -7.507  11.825  68.252  1.00  0.00    -0.103 C  
BRANCH  14  15
HETATM   15  C   UNL     1      -7.416  13.353  68.043  1.00  0.00    -0.139 C  
HETATM   16  O   UNL     1      -6.385  13.641  67.094  1.00  0.00    -0.438 OA 
HETATM   17  H   UNL     1      -6.329  14.582  66.965  1.00  0.00     0.000 HD 
BRANCH  15  18
HETATM   18  C   UNL     1      -8.765  13.905  67.566  1.00  0.00    -0.193 C  
BRANCH  18  19
HETATM   19  O   UNL     1      -9.625  12.852  67.143  1.00  0.00    -0.213 OA 
BRANCH  19  20
HETATM   20  C   UNL     1     -10.511  13.170  66.141  1.00  0.00    -0.281 A  
HETATM   21  C   UNL     1     -11.470  14.196  66.220  1.00  0.00    -0.358 A  
HETATM   22  C   UNL     1     -12.317  14.482  65.153  1.00  0.00    -0.324 A  
HETATM   23  C   UNL     1     -12.243  13.760  63.963  1.00  0.00    -0.429 A  
HETATM   24  C   UNL     1     -11.293  12.734  63.892  1.00  0.00    -0.442 A  
HETATM   25  C   UNL     1     -10.433  12.416  64.944  1.00  0.00    -0.327 A  
HETATM   26  C   UNL     1      -9.627  11.310  64.512  1.00  0.00    -0.260 A  
HETATM   27  C   UNL     1      -8.610  10.540  65.119  1.00  0.00    -0.187 A  
HETATM   28  C   UNL     1      -8.004   9.504  64.401  1.00  0.00    -0.135 A  
HETATM   29  C   UNL     1      -8.397   9.228  63.093  1.00  0.00    -0.196 A  
HETATM   30  C   UNL     1      -9.404   9.971  62.470  1.00  0.00    -0.297 A  
HETATM   31  C   UNL     1     -10.001  11.001  63.208  1.00  0.00    -0.369 A  
HETATM   32  N   UNL     1     -11.003  11.870  62.860  1.00  0.00    -0.562 NA 
HETATM   33  H   UNL     1     -11.473  11.876  61.954  1.00  0.00     0.000 HD 
ENDBRANCH  19  20
ENDBRANCH  18  19
ENDBRANCH  15  18
ENDBRANCH  14  15
ENDBRANCH  12  14
ENDBRANCH  11  12
ENDBRANCH  10  11
ENDBRANCH   9  10
ENDBRANCH   8   9
ENDBRANCH   2   3
TORSDOF 10
ENDMDL
MODEL      242
REMARK 921   NORMALIZED FREE ENERGY PREDICTED BY IDOCK:   -4.34 KCAL/MOL
REMARK 922        TOTAL FREE ENERGY PREDICTED BY IDOCK:   -8.72 KCAL/MOL
REMARK 923 INTER-LIGAND FREE ENERGY PREDICTED BY IDOCK:   -8.16 KCAL/MOL
REMARK 924 INTRA-LIGAND FREE ENERGY PREDICTED BY IDOCK:   -0.56 KCAL/MOL
REMARK 927      BINDING AFFINITY PREDICTED BY RF-SCORE:    0.00 PKD
ROOT
HETATM    1  C   UNL     1     -10.175  18.262  68.533  1.00  0.00    -0.379 C  
HETATM    2  O   UNL     1      -9.654  18.950  67.397  1.00  0.00    -0.299 OA 
ENDROOT
BRANCH   2   3
HETATM    3  C   UNL     1      -8.370  19.421  67.510  1.00  0.00    -0.291 A  
HETATM    4  C   UNL     1      -8.069  20.776  67.294  1.00  0.00    -0.248 A  
HETATM    5  C   UNL     1      -6.770  21.257  67.460  1.00  0.00    -0.329 A  
HETATM    6  C   UNL     1      -5.749  20.387  67.818  1.00  0.00    -0.241 A  
HETATM    7  C   UNL     1      -6.026  19.031  67.985  1.00  0.00    -0.211 A  
HETATM    8  C   UNL     1      -7.326  18.529  67.825  1.00  0.00    -0.229 A  
BRANCH   8   9
HETATM    9  O   UNL     1      -7.383  17.172  68.036  1.00  0.00    -0.179 OA 
BRANCH   9  10
HETATM   10  C   UNL     1      -7.081  16.329  66.931  1.00  0.00    -0.211 C  
BRANCH  10  11
HETATM   11  C   UNL     1      -6.724  14.916  67.423  1.00  0.00    -0.050 C  
BRANCH  11  12
HETATM   12  N   UNL     1      -7.855  14.196  68.037  1.00  0.00    -0.131 NA 
HETATM   13  H   UNL     1      -8.744  14.642  67.809  1.00  0.00     0.000 HD 
BRANCH  12  14
HETATM   14  C   UNL     1      -7.870  12.762  67.677  1.00  0.00    -0.165 C  
BRANCH  14  15
HETATM   15  C   UNL     1      -9.270  12.281  67.236  1.00  0.00    -0.185 C  
HETATM   16  O   UNL     1      -9.396  10.880  67.500  1.00  0.00    -0.153 OA 
HETATM   17  H   UNL     1     -10.257  10.584  67.230  1.00  0.00     0.000 HD 
BRANCH  15  18
HETATM   18  C   UNL     1     -10.359  13.073  67.970  1.00  0.00    -0.234 C  
BRANCH  18  19
HETATM   19  O   UNL     1     -11.375  12.206  68.462  1.00  0.00    -0.229 OA 
BRANCH  19  20
HETATM   20  C   UNL     1     -11.988  12.602  69.627  1.00  0.00    -0.286 A  
HETATM   21  C   UNL     1     -12.384  13.922  69.911  1.00  0.00    -0.358 A  
HETATM   22  C   UNL     1     -13.027  14.246  71.101  1.00  0.00    -0.423 A  
HETATM   23  C   UNL     1     -13.304  13.272  72.058  1.00  0.00    -0.582 A  
HETATM   24  C   UNL     1     -12.900  11.961  71.776  1.00  0.00    -0.284 A  
HETATM   25  C   UNL     1     -12.248  11.601  70.595  1.00  0.00    -0.461 A  
HETATM   26  C   UNL     1     -11.978  10.194  70.673  1.00  0.00    -0.423 A  
HETATM   27  C   UNL     1     -11.338   9.268  69.819  1.00  0.00    -0.029 A  
HETATM   28  C   UNL     1     -11.244   7.925  70.200  1.00  0.00    -0.157 A  
HETATM   29  C   UNL     1     -11.776   7.497  71.413  1.00  0.00    -0.310 A  
HETATM   30  C   UNL     1     -12.411   8.393  72.280  1.00  0.00    -0.436 A  
HETATM   31  C   UNL     1     -12.490   9.734  71.882  1.00  0.00    -0.366 A  
HETATM   32  N   UNL     1     -13.038  10.814  72.525  1.00  0.00    -0.283 NA 
HETATM   33  H   UNL     1     -13.488  10.774  73.439  1.00  0.00     0.000 HD 
ENDBRANCH  19  20
ENDBRANCH  18  19
ENDBRANCH  15  18
ENDBRANCH  14  15
ENDBRANCH  12  14
ENDBRANCH  11  12
ENDBRANCH  10  11
ENDBRANCH   9  10
ENDBRANCH   8   9
ENDBRANCH   2   3
TORSDOF 10
ENDMDL
MODEL      243
REMARK 921   NORMALIZED FREE ENERGY PREDICTED BY IDOCK:   -4.34 KCAL/MOL
REMARK 922        TOTAL FREE ENERGY PREDICTED BY IDOCK:   -8.72 KCAL/MOL
REMARK 923 INTER-LIGAND FREE ENERGY PREDICTED BY IDOCK:   -7.71 KCAL/MOL
REMARK 924 INTRA-LIGAND FREE ENERGY PREDICTED BY IDOCK:   -1.01 KCAL/MOL
REMARK 927      BINDING AFFINITY PREDICTED BY RF-SCORE:    0.00 PKD
ROOT
HETATM    1  C   UNL     1     -11.535  10.756  67.859  1.00  0.00    -0.227 C  
HETATM    2  O   UNL     1     -12.019  12.098  67.827  1.00  0.00    -0.506 OA 
ENDROOT
BRANCH   2   3
HETATM    3  C   UNL     1     -11.621  12.860  66.757  1.00  0.00    -0.360 A  
HETATM    4  C   UNL     1     -12.369  12.895  65.569  1.00  0.00    -0.517 A  
HETATM    5  C   UNL     1     -11.987  13.711  64.504  1.00  0.00    -0.454 A  
HETATM    6  C   UNL     1     -10.837  14.482  64.601  1.00  0.00    -0.351 A  
HETATM    7  C   UNL     1     -10.059  14.417  65.755  1.00  0.00    -0.361 A  
HETATM    8  C   UNL     1     -10.428  13.605  66.837  1.00  0.00    -0.272 A  
BRANCH   8   9
HETATM    9  O   UNL     1      -9.529  13.687  67.873  1.00  0.00    -0.198 OA 
BRANCH   9  10
HETATM   10  C   UNL     1      -8.241  13.124  67.662  1.00  0.00    -0.175 C  
BRANCH  10  11
HETATM   11  C   UNL     1      -8.165  11.721  68.289  1.00  0.00    -0.157 C  
BRANCH  11  12
HETATM   12  N   UNL     1      -7.415  10.745  67.478  1.00  0.00    -0.091 NA 
HETATM   13  H   UNL     1      -6.658  10.323  68.015  1.00  0.00     0.000 HD 
BRANCH  12  14
HETATM   14  C   UNL     1      -8.294   9.711  66.890  1.00  0.00    -0.117 C  
BRANCH  14  15
HETATM   15  C   UNL     1      -8.096   8.328  67.549  1.00  0.00    -0.122 C  
HETATM   16  O   UNL     1      -6.888   8.336  68.315  1.00  0.00    -0.063 OA 
HETATM   17  H   UNL     1      -6.767   7.485  68.721  1.00  0.00     0.000 HD 
BRANCH  15  18
HETATM   18  C   UNL     1      -9.301   7.985  68.434  1.00  0.00    -0.138 C  
BRANCH  18  19
HETATM   19  O   UNL     1      -8.949   8.036  69.813  1.00  0.00    -0.143 OA 
BRANCH  19  20
HETATM   20  C   UNL     1      -9.995   8.193  70.692  1.00  0.00    -0.189 A  
HETATM   21  C   UNL     1     -10.706   9.393  70.880  1.00  0.00    -0.393 A  
HETATM   22  C   UNL     1     -11.775   9.472  71.766  1.00  0.00    -0.411 A  
HETATM   23  C   UNL     1     -12.183   8.361  72.502  1.00  0.00    -0.381 A  
HETATM   24  C   UNL     1     -11.467   7.171  72.319  1.00  0.00    -0.271 A  
HETATM   25  C   UNL     1     -10.387   7.058  71.443  1.00  0.00    -0.211 A  
HETATM   26  C   UNL     1      -9.902   5.710  71.541  1.00  0.00    -0.213 A  
HETATM   27  C   UNL     1      -8.842   5.002  70.934  1.00  0.00    -0.156 A  
HETATM   28  C   UNL     1      -8.637   3.655  71.252  1.00  0.00    -0.113 A  
HETATM   29  C   UNL     1      -9.472   3.010  72.161  1.00  0.00    -0.196 A  
HETATM   30  C   UNL     1     -10.527   3.689  72.780  1.00  0.00    -0.219 A  
HETATM   31  C   UNL     1     -10.711   5.038  72.451  1.00  0.00    -0.200 A  
HETATM   32  N   UNL     1     -11.642   5.937  72.904  1.00  0.00    -0.504 NA 
HETATM   33  H   UNL     1     -12.369   5.721  73.587  1.00  0.00     0.000 HD 
ENDBRANCH  19  20
ENDBRANCH  18  19
ENDBRANCH  15  18
ENDBRANCH  14  15
ENDBRANCH  12  14
ENDBRANCH  11  12
ENDBRANCH  10  11
ENDBRANCH   9  10
ENDBRANCH   8   9
ENDBRANCH   2   3
TORSDOF 10
ENDMDL
MODEL      244
REMARK 921   NORMALIZED FREE ENERGY PREDICTED BY IDOCK:   -4.33 KCAL/MOL
REMARK 922        TOTAL FREE ENERGY PREDICTED BY IDOCK:   -8.71 KCAL/MOL
REMARK 923 INTER-LIGAND FREE ENERGY PREDICTED BY IDOCK:   -7.36 KCAL/MOL
REMARK 924 INTRA-LIGAND FREE ENERGY PREDICTED BY IDOCK:   -1.35 KCAL/MOL
REMARK 927      BINDING AFFINITY PREDICTED BY RF-SCORE:    0.00 PKD
ROOT
HETATM    1  C   UNL     1      -7.479  16.189  67.912  1.00  0.00    -0.128 C  
HETATM    2  O   UNL     1      -8.897  16.231  68.060  1.00  0.00    -0.179 OA 
ENDROOT
BRANCH   2   3
HETATM    3  C   UNL     1      -9.510  17.401  67.686  1.00  0.00    -0.251 A  
HETATM    4  C   UNL     1      -9.738  18.433  68.612  1.00  0.00    -0.387 A  
HETATM    5  C   UNL     1     -10.316  19.638  68.214  1.00  0.00    -0.539 A  
HETATM    6  C   UNL     1     -10.700  19.820  66.892  1.00  0.00    -0.541 A  
HETATM    7  C   UNL     1     -10.526  18.785  65.976  1.00  0.00    -0.483 A  
HETATM    8  C   UNL     1      -9.944  17.566  66.356  1.00  0.00    -0.325 A  
BRANCH   8   9
HETATM    9  O   UNL     1      -9.863  16.685  65.304  1.00  0.00    -0.496 OA 
BRANCH   9  10
HETATM   10  C   UNL     1     -10.957  15.797  65.114  1.00  0.00    -0.382 C  
BRANCH  10  11
HETATM   11  C   UNL     1     -10.470  14.339  65.141  1.00  0.00    -0.411 C  
BRANCH  11  12
HETATM   12  N   UNL     1      -9.576  14.031  66.273  1.00  0.00    -0.375 NA 
HETATM   13  H   UNL     1      -9.843  14.553  67.107  1.00  0.00     0.000 HD 
BRANCH  12  14
HETATM   14  C   UNL     1      -9.504  12.580  66.552  1.00  0.00    -0.240 C  
BRANCH  14  15
HETATM   15  C   UNL     1      -9.186  12.282  68.034  1.00  0.00    -0.195 C  
HETATM   16  O   UNL     1      -9.513  13.425  68.829  1.00  0.00    -0.394 OA 
HETATM   17  H   UNL     1      -9.318  13.242  69.741  1.00  0.00     0.000 HD 
BRANCH  15  18
HETATM   18  C   UNL     1      -9.967  11.049  68.506  1.00  0.00    -0.193 C  
BRANCH  18  19
HETATM   19  O   UNL     1      -9.080  10.015  68.921  1.00  0.00    -0.142 OA 
BRANCH  19  20
HETATM   20  C   UNL     1      -9.559   8.732  68.798  1.00  0.00    -0.158 A  
HETATM   21  C   UNL     1     -10.620   8.200  69.554  1.00  0.00    -0.215 A  
HETATM   22  C   UNL     1     -11.073   6.900  69.355  1.00  0.00    -0.249 A  
HETATM   23  C   UNL     1     -10.489   6.073  68.396  1.00  0.00    -0.290 A  
HETATM   24  C   UNL     1      -9.427   6.603  67.653  1.00  0.00    -0.124 A  
HETATM   25  C   UNL     1      -8.944   7.901  67.830  1.00  0.00    -0.129 A  
HETATM   26  C   UNL     1      -7.851   8.074  66.916  1.00  0.00    -0.103 A  
HETATM   27  C   UNL     1      -6.963   9.135  66.638  1.00  0.00    -0.081 A  
HETATM   28  C   UNL     1      -5.983   8.979  65.651  1.00  0.00    -0.051 A  
HETATM   29  C   UNL     1      -5.881   7.784  64.942  1.00  0.00    -0.038 A  
HETATM   30  C   UNL     1      -6.745   6.715  65.200  1.00  0.00    -0.050 A  
HETATM   31  C   UNL     1      -7.715   6.891  66.195  1.00  0.00    -0.091 A  
HETATM   32  N   UNL     1      -8.672   6.024  66.658  1.00  0.00    -0.120 NA 
HETATM   33  H   UNL     1      -8.807   5.075  66.310  1.00  0.00     0.000 HD 
ENDBRANCH  19  20
ENDBRANCH  18  19
ENDBRANCH  15  18
ENDBRANCH  14  15
ENDBRANCH  12  14
ENDBRANCH  11  12
ENDBRANCH  10  11
ENDBRANCH   9  10
ENDBRANCH   8   9
ENDBRANCH   2   3
TORSDOF 10
ENDMDL
MODEL      245
REMARK 921   NORMALIZED FREE ENERGY PREDICTED BY IDOCK:   -4.33 KCAL/MOL
REMARK 922        TOTAL FREE ENERGY PREDICTED BY IDOCK:   -8.70 KCAL/MOL
REMARK 923 INTER-LIGAND FREE ENERGY PREDICTED BY IDOCK:   -7.08 KCAL/MOL
REMARK 924 INTRA-LIGAND FREE ENERGY PREDICTED BY IDOCK:   -1.62 KCAL/MOL
REMARK 927      BINDING AFFINITY PREDICTED BY RF-SCORE:    0.00 PKD
ROOT
HETATM    1  C   UNL     1      -8.999   9.565  63.326  1.00  0.00    -0.182 C  
HETATM    2  O   UNL     1      -8.275   9.280  64.521  1.00  0.00    -0.133 OA 
ENDROOT
BRANCH   2   3
HETATM    3  C   UNL     1      -7.574   8.100  64.538  1.00  0.00    -0.113 A  
HETATM    4  C   UNL     1      -7.194   7.460  63.347  1.00  0.00    -0.079 A  
HETATM    5  C   UNL     1      -6.439   6.288  63.371  1.00  0.00    -0.033 A  
HETATM    6  C   UNL     1      -6.076   5.723  64.587  1.00  0.00    -0.025 A  
HETATM    7  C   UNL     1      -6.490   6.321  65.775  1.00  0.00    -0.043 A  
HETATM    8  C   UNL     1      -7.248   7.501  65.771  1.00  0.00    -0.066 A  
BRANCH   8   9
HETATM    9  O   UNL     1      -7.549   7.924  67.044  1.00  0.00    -0.096 OA 
BRANCH   9  10
HETATM   10  C   UNL     1      -7.773   6.921  68.026  1.00  0.00    -0.113 C  
BRANCH  10  11
HETATM   11  C   UNL     1      -7.311   7.416  69.407  1.00  0.00    -0.086 C  
BRANCH  11  12
HETATM   12  N   UNL     1      -8.324   8.213  70.123  1.00  0.00    -0.123 NA 
HETATM   13  H   UNL     1      -8.428   7.896  71.087  1.00  0.00     0.000 HD 
BRANCH  12  14
HETATM   14  C   UNL     1      -8.041   9.664  70.066  1.00  0.00    -0.178 C  
BRANCH  14  15
HETATM   15  C   UNL     1      -9.132  10.446  69.302  1.00  0.00    -0.175 C  
HETATM   16  O   UNL     1      -8.808  10.475  67.909  1.00  0.00    -0.131 OA 
HETATM   17  H   UNL     1      -9.479  10.956  67.439  1.00  0.00     0.000 HD 
BRANCH  15  18
HETATM   18  C   UNL     1     -10.505   9.801  69.529  1.00  0.00    -0.232 C  
BRANCH  18  19
HETATM   19  O   UNL     1     -11.517  10.491  68.803  1.00  0.00    -0.260 OA 
BRANCH  19  20
HETATM   20  C   UNL     1     -11.860  11.731  69.287  1.00  0.00    -0.326 A  
HETATM   21  C   UNL     1     -12.202  11.998  70.625  1.00  0.00    -0.409 A  
HETATM   22  C   UNL     1     -12.510  13.286  71.053  1.00  0.00    -0.422 A  
HETATM   23  C   UNL     1     -12.490  14.362  70.167  1.00  0.00    -0.395 A  
HETATM   24  C   UNL     1     -12.157  14.090  68.834  1.00  0.00    -0.316 A  
HETATM   25  C   UNL     1     -11.849  12.811  68.370  1.00  0.00    -0.353 A  
HETATM   26  C   UNL     1     -11.585  12.922  66.964  1.00  0.00    -0.419 A  
HETATM   27  C   UNL     1     -11.246  11.998  65.952  1.00  0.00    -0.385 A  
HETATM   28  C   UNL     1     -11.045  12.447  64.642  1.00  0.00    -0.348 A  
HETATM   29  C   UNL     1     -11.177  13.798  64.332  1.00  0.00    -0.364 A  
HETATM   30  C   UNL     1     -11.516  14.735  65.313  1.00  0.00    -0.352 A  
HETATM   31  C   UNL     1     -11.717  14.263  66.617  1.00  0.00    -0.400 A  
HETATM   32  N   UNL     1     -12.062  14.943  67.758  1.00  0.00    -0.528 NA 
HETATM   33  H   UNL     1     -12.227  15.949  67.803  1.00  0.00     0.000 HD 
ENDBRANCH  19  20
ENDBRANCH  18  19
ENDBRANCH  15  18
ENDBRANCH  14  15
ENDBRANCH  12  14
ENDBRANCH  11  12
ENDBRANCH  10  11
ENDBRANCH   9  10
ENDBRANCH   8   9
ENDBRANCH   2   3
TORSDOF 10
ENDMDL
MODEL      246
REMARK 921   NORMALIZED FREE ENERGY PREDICTED BY IDOCK:   -4.32 KCAL/MOL
REMARK 922        TOTAL FREE ENERGY PREDICTED BY IDOCK:   -8.70 KCAL/MOL
REMARK 923 INTER-LIGAND FREE ENERGY PREDICTED BY IDOCK:   -7.13 KCAL/MOL
REMARK 924 INTRA-LIGAND FREE ENERGY PREDICTED BY IDOCK:   -1.57 KCAL/MOL
REMARK 927      BINDING AFFINITY PREDICTED BY RF-SCORE:    0.00 PKD
ROOT
HETATM    1  C   UNL     1      -7.446   5.571  70.053  1.00  0.00    -0.070 C  
HETATM    2  O   UNL     1      -8.758   5.280  69.577  1.00  0.00    -0.102 OA 
ENDROOT
BRANCH   2   3
HETATM    3  C   UNL     1      -9.791   5.565  70.435  1.00  0.00    -0.197 A  
HETATM    4  C   UNL     1      -9.850   4.999  71.719  1.00  0.00    -0.234 A  
HETATM    5  C   UNL     1     -10.875   5.332  72.604  1.00  0.00    -0.307 A  
HETATM    6  C   UNL     1     -11.872   6.215  72.209  1.00  0.00    -0.326 A  
HETATM    7  C   UNL     1     -11.852   6.744  70.920  1.00  0.00    -0.438 A  
HETATM    8  C   UNL     1     -10.828   6.423  70.017  1.00  0.00    -0.307 A  
BRANCH   8   9
HETATM    9  O   UNL     1     -10.995   7.050  68.805  1.00  0.00    -0.183 OA 
BRANCH   9  10
HETATM   10  C   UNL     1     -10.116   8.127  68.505  1.00  0.00    -0.200 C  
BRANCH  10  11
HETATM   11  C   UNL     1     -10.692   9.448  69.042  1.00  0.00    -0.187 C  
BRANCH  11  12
HETATM   12  N   UNL     1      -9.836  10.107  70.045  1.00  0.00    -0.404 NA 
HETATM   13  H   UNL     1     -10.200   9.969  70.988  1.00  0.00     0.000 HD 
BRANCH  12  14
HETATM   14  C   UNL     1      -8.425   9.675  69.949  1.00  0.00    -0.198 C  
BRANCH  14  15
HETATM   15  C   UNL     1      -7.469  10.852  69.655  1.00  0.00    -0.022 C  
HETATM   16  O   UNL     1      -6.556  11.007  70.746  1.00  0.00    -0.467 OA 
HETATM   17  H   UNL     1      -5.968  11.731  70.565  1.00  0.00     0.000 HD 
BRANCH  15  18
HETATM   18  C   UNL     1      -6.712  10.607  68.343  1.00  0.00    -0.060 C  
BRANCH  18  19
HETATM   19  O   UNL     1      -7.119  11.532  67.341  1.00  0.00    -0.101 OA 
BRANCH  19  20
HETATM   20  C   UNL     1      -8.157  11.125  66.537  1.00  0.00    -0.163 A  
HETATM   21  C   UNL     1      -8.109  10.015  65.674  1.00  0.00    -0.138 A  
HETATM   22  C   UNL     1      -9.209   9.642  64.909  1.00  0.00    -0.306 A  
HETATM   23  C   UNL     1     -10.404  10.357  64.970  1.00  0.00    -0.249 A  
HETATM   24  C   UNL     1     -10.445  11.466  65.824  1.00  0.00    -0.262 A  
HETATM   25  C   UNL     1      -9.359  11.872  66.601  1.00  0.00    -0.210 A  
HETATM   26  C   UNL     1      -9.767  13.045  67.320  1.00  0.00    -0.225 A  
HETATM   27  C   UNL     1      -9.125  13.911  68.231  1.00  0.00    -0.191 A  
HETATM   28  C   UNL     1      -9.827  14.993  68.772  1.00  0.00    -0.233 A  
HETATM   29  C   UNL     1     -11.155  15.220  68.417  1.00  0.00    -0.289 A  
HETATM   30  C   UNL     1     -11.815  14.381  67.513  1.00  0.00    -0.418 A  
HETATM   31  C   UNL     1     -11.091  13.306  66.980  1.00  0.00    -0.282 A  
HETATM   32  N   UNL     1     -11.474  12.344  66.080  1.00  0.00    -0.359 NA 
HETATM   33  H   UNL     1     -12.400  12.287  65.656  1.00  0.00     0.000 HD 
ENDBRANCH  19  20
ENDBRANCH  18  19
ENDBRANCH  15  18
ENDBRANCH  14  15
ENDBRANCH  12  14
ENDBRANCH  11  12
ENDBRANCH  10  11
ENDBRANCH   9  10
ENDBRANCH   8   9
ENDBRANCH   2   3
TORSDOF 10
ENDMDL
MODEL      247
REMARK 921   NORMALIZED FREE ENERGY PREDICTED BY IDOCK:   -4.32 KCAL/MOL
REMARK 922        TOTAL FREE ENERGY PREDICTED BY IDOCK:   -8.69 KCAL/MOL
REMARK 923 INTER-LIGAND FREE ENERGY PREDICTED BY IDOCK:   -7.91 KCAL/MOL
REMARK 924 INTRA-LIGAND FREE ENERGY PREDICTED BY IDOCK:   -0.78 KCAL/MOL
REMARK 927      BINDING AFFINITY PREDICTED BY RF-SCORE:    0.00 PKD
ROOT
HETATM    1  C   UNL     1     -12.200   8.499  72.113  1.00  0.00    -0.382 C  
HETATM    2  O   UNL     1     -12.352   7.496  71.111  1.00  0.00    -0.320 OA 
ENDROOT
BRANCH   2   3
HETATM    3  C   UNL     1     -11.411   6.498  71.106  1.00  0.00    -0.314 A  
HETATM    4  C   UNL     1     -10.909   5.962  72.304  1.00  0.00    -0.292 A  
HETATM    5  C   UNL     1      -9.991   4.913  72.292  1.00  0.00    -0.232 A  
HETATM    6  C   UNL     1      -9.540   4.401  71.082  1.00  0.00    -0.245 A  
HETATM    7  C   UNL     1      -9.991   4.957  69.887  1.00  0.00    -0.317 A  
HETATM    8  C   UNL     1     -10.917   6.012  69.879  1.00  0.00    -0.388 A  
BRANCH   8   9
HETATM    9  O   UNL     1     -11.231   6.410  68.602  1.00  0.00    -0.329 OA 
BRANCH   9  10
HETATM   10  C   UNL     1     -10.235   6.234  67.602  1.00  0.00    -0.169 C  
BRANCH  10  11
HETATM   11  C   UNL     1      -9.806   7.597  67.033  1.00  0.00    -0.215 C  
BRANCH  11  12
HETATM   12  N   UNL     1      -9.339   7.538  65.636  1.00  0.00    -0.375 NA 
HETATM   13  H   UNL     1     -10.122   7.572  64.984  1.00  0.00     0.000 HD 
BRANCH  12  14
HETATM   14  C   UNL     1      -8.345   8.591  65.332  1.00  0.00    -0.156 C  
BRANCH  14  15
HETATM   15  C   UNL     1      -8.830   9.555  64.227  1.00  0.00    -0.213 C  
HETATM   16  O   UNL     1      -9.187   8.803  63.063  1.00  0.00    -0.387 OA 
HETATM   17  H   UNL     1      -9.486   9.397  62.384  1.00  0.00     0.000 HD 
BRANCH  15  18
HETATM   18  C   UNL     1     -10.022  10.381  64.728  1.00  0.00    -0.339 C  
BRANCH  18  19
HETATM   19  O   UNL     1      -9.616  11.296  65.741  1.00  0.00    -0.211 OA 
BRANCH  19  20
HETATM   20  C   UNL     1     -10.467  12.351  65.970  1.00  0.00    -0.254 A  
HETATM   21  C   UNL     1     -11.820  12.383  65.584  1.00  0.00    -0.468 A  
HETATM   22  C   UNL     1     -12.633  13.474  65.875  1.00  0.00    -0.454 A  
HETATM   23  C   UNL     1     -12.134  14.579  66.563  1.00  0.00    -0.330 A  
HETATM   24  C   UNL     1     -10.785  14.548  66.937  1.00  0.00    -0.288 A  
HETATM   25  C   UNL     1      -9.940  13.473  66.656  1.00  0.00    -0.282 A  
HETATM   26  C   UNL     1      -8.643  13.808  67.170  1.00  0.00    -0.210 A  
HETATM   27  C   UNL     1      -7.391  13.155  67.179  1.00  0.00     0.052 A  
HETATM   28  C   UNL     1      -6.292  13.772  67.786  1.00  0.00    -0.171 A  
HETATM   29  C   UNL     1      -6.426  15.024  68.382  1.00  0.00    -0.104 A  
HETATM   30  C   UNL     1      -7.652  15.695  68.384  1.00  0.00    -0.121 A  
HETATM   31  C   UNL     1      -8.739  15.062  67.766  1.00  0.00    -0.164 A  
HETATM   32  N   UNL     1     -10.035  15.484  67.612  1.00  0.00    -0.232 NA 
HETATM   33  H   UNL     1     -10.396  16.375  67.952  1.00  0.00     0.000 HD 
ENDBRANCH  19  20
ENDBRANCH  18  19
ENDBRANCH  15  18
ENDBRANCH  14  15
ENDBRANCH  12  14
ENDBRANCH  11  12
ENDBRANCH  10  11
ENDBRANCH   9  10
ENDBRANCH   8   9
ENDBRANCH   2   3
TORSDOF 10
ENDMDL
MODEL      248
REMARK 921   NORMALIZED FREE ENERGY PREDICTED BY IDOCK:   -4.32 KCAL/MOL
REMARK 922        TOTAL FREE ENERGY PREDICTED BY IDOCK:   -8.69 KCAL/MOL
REMARK 923 INTER-LIGAND FREE ENERGY PREDICTED BY IDOCK:   -7.49 KCAL/MOL
REMARK 924 INTRA-LIGAND FREE ENERGY PREDICTED BY IDOCK:   -1.19 KCAL/MOL
REMARK 927      BINDING AFFINITY PREDICTED BY RF-SCORE:    0.00 PKD
ROOT
HETATM    1  C   UNL     1      -6.111   7.212  71.123  1.00  0.00    -0.036 C  
HETATM    2  O   UNL     1      -6.834   6.027  71.451  1.00  0.00    -0.063 OA 
ENDROOT
BRANCH   2   3
HETATM    3  C   UNL     1      -7.937   6.192  72.251  1.00  0.00    -0.105 A  
HETATM    4  C   UNL     1      -7.810   6.424  73.630  1.00  0.00    -0.092 A  
HETATM    5  C   UNL     1      -8.933   6.642  74.428  1.00  0.00    -0.203 A  
HETATM    6  C   UNL     1     -10.201   6.603  73.864  1.00  0.00    -0.379 A  
HETATM    7  C   UNL     1     -10.343   6.323  72.507  1.00  0.00    -0.214 A  
HETATM    8  C   UNL     1      -9.226   6.104  71.688  1.00  0.00    -0.145 A  
BRANCH   8   9
HETATM    9  O   UNL     1      -9.584   5.847  70.386  1.00  0.00    -0.162 OA 
BRANCH   9  10
HETATM   10  C   UNL     1      -9.578   6.945  69.481  1.00  0.00    -0.148 C  
BRANCH  10  11
HETATM   11  C   UNL     1     -11.018   7.326  69.099  1.00  0.00    -0.068 C  
BRANCH  11  12
HETATM   12  N   UNL     1     -11.292   8.773  69.181  1.00  0.00    -0.273 NA 
HETATM   13  H   UNL     1     -11.804   9.003  70.033  1.00  0.00     0.000 HD 
BRANCH  12  14
HETATM   14  C   UNL     1     -10.062   9.585  69.062  1.00  0.00    -0.193 C  
BRANCH  14  15
HETATM   15  C   UNL     1     -10.304  11.072  69.401  1.00  0.00    -0.104 C  
HETATM   16  O   UNL     1      -9.101  11.813  69.177  1.00  0.00    -0.373 OA 
HETATM   17  H   UNL     1      -9.250  12.728  69.386  1.00  0.00     0.000 HD 
BRANCH  15  18
HETATM   18  C   UNL     1     -11.454  11.631  68.553  1.00  0.00    -0.298 C  
BRANCH  18  19
HETATM   19  O   UNL     1     -11.439  11.070  67.244  1.00  0.00    -0.470 OA 
BRANCH  19  20
HETATM   20  C   UNL     1     -11.576  11.963  66.209  1.00  0.00    -0.246 A  
HETATM   21  C   UNL     1     -12.393  13.108  66.246  1.00  0.00    -0.346 A  
HETATM   22  C   UNL     1     -12.461  13.987  65.169  1.00  0.00    -0.472 A  
HETATM   23  C   UNL     1     -11.718  13.764  64.011  1.00  0.00    -0.364 A  
HETATM   24  C   UNL     1     -10.912  12.619  63.975  1.00  0.00    -0.406 A  
HETATM   25  C   UNL     1     -10.825  11.714  65.034  1.00  0.00    -0.346 A  
HETATM   26  C   UNL     1      -9.929  10.670  64.625  1.00  0.00    -0.401 A  
HETATM   27  C   UNL     1      -9.460   9.485  65.233  1.00  0.00    -0.326 A  
HETATM   28  C   UNL     1      -8.560   8.663  64.546  1.00  0.00    -0.097 A  
HETATM   29  C   UNL     1      -8.124   9.008  63.269  1.00  0.00    -0.170 A  
HETATM   30  C   UNL     1      -8.575  10.173  62.642  1.00  0.00    -0.200 A  
HETATM   31  C   UNL     1      -9.480  10.979  63.345  1.00  0.00    -0.310 A  
HETATM   32  N   UNL     1     -10.086  12.153  62.978  1.00  0.00    -0.478 NA 
HETATM   33  H   UNL     1      -9.943  12.621  62.082  1.00  0.00     0.000 HD 
ENDBRANCH  19  20
ENDBRANCH  18  19
ENDBRANCH  15  18
ENDBRANCH  14  15
ENDBRANCH  12  14
ENDBRANCH  11  12
ENDBRANCH  10  11
ENDBRANCH   9  10
ENDBRANCH   8   9
ENDBRANCH   2   3
TORSDOF 10
ENDMDL
MODEL      249
REMARK 921   NORMALIZED FREE ENERGY PREDICTED BY IDOCK:   -4.31 KCAL/MOL
REMARK 922        TOTAL FREE ENERGY PREDICTED BY IDOCK:   -8.68 KCAL/MOL
REMARK 923 INTER-LIGAND FREE ENERGY PREDICTED BY IDOCK:   -7.22 KCAL/MOL
REMARK 924 INTRA-LIGAND FREE ENERGY PREDICTED BY IDOCK:   -1.47 KCAL/MOL
REMARK 927      BINDING AFFINITY PREDICTED BY RF-SCORE:    0.00 PKD
ROOT
HETATM    1  C   UNL     1     -13.902  15.602  72.863  1.00  0.00    -0.491 C  
HETATM    2  O   UNL     1     -13.183  15.532  71.634  1.00  0.00    -0.437 OA 
ENDROOT
BRANCH   2   3
HETATM    3  C   UNL     1     -12.823  14.277  71.212  1.00  0.00    -0.352 A  
HETATM    4  C   UNL     1     -13.156  13.134  71.957  1.00  0.00    -0.476 A  
HETATM    5  C   UNL     1     -12.832  11.858  71.497  1.00  0.00    -0.421 A  
HETATM    6  C   UNL     1     -12.146  11.707  70.300  1.00  0.00    -0.443 A  
HETATM    7  C   UNL     1     -11.765  12.836  69.577  1.00  0.00    -0.383 A  
HETATM    8  C   UNL     1     -12.085  14.127  70.022  1.00  0.00    -0.346 A  
BRANCH   8   9
HETATM    9  O   UNL     1     -11.621  15.096  69.165  1.00  0.00    -0.287 OA 
BRANCH   9  10
HETATM   10  C   UNL     1     -10.377  15.706  69.485  1.00  0.00    -0.277 C  
BRANCH  10  11
HETATM   11  C   UNL     1      -9.373  15.501  68.338  1.00  0.00    -0.192 C  
BRANCH  11  12
HETATM   12  N   UNL     1      -8.637  14.225  68.412  1.00  0.00    -0.171 NA 
HETATM   13  H   UNL     1      -9.120  13.555  69.010  1.00  0.00     0.000 HD 
BRANCH  12  14
HETATM   14  C   UNL     1      -8.372  13.652  67.074  1.00  0.00    -0.082 C  
BRANCH  14  15
HETATM   15  C   UNL     1      -9.472  12.663  66.630  1.00  0.00    -0.244 C  
HETATM   16  O   UNL     1      -9.747  12.852  65.239  1.00  0.00    -0.469 OA 
HETATM   17  H   UNL     1     -10.423  12.243  64.965  1.00  0.00     0.000 HD 
BRANCH  15  18
HETATM   18  C   UNL     1      -9.031  11.220  66.907  1.00  0.00    -0.162 C  
BRANCH  18  19
HETATM   19  O   UNL     1      -9.107  10.923  68.297  1.00  0.00    -0.145 OA 
BRANCH  19  20
HETATM   20  C   UNL     1      -8.012  10.287  68.834  1.00  0.00    -0.113 A  
HETATM   21  C   UNL     1      -6.872  10.945  69.330  1.00  0.00    -0.114 A  
HETATM   22  C   UNL     1      -5.811  10.238  69.888  1.00  0.00    -0.051 A  
HETATM   23  C   UNL     1      -5.840   8.848  69.975  1.00  0.00    -0.031 A  
HETATM   24  C   UNL     1      -6.973   8.196  69.472  1.00  0.00    -0.050 A  
HETATM   25  C   UNL     1      -8.052   8.873  68.901  1.00  0.00    -0.112 A  
HETATM   26  C   UNL     1      -9.002   7.881  68.486  1.00  0.00    -0.133 A  
HETATM   27  C   UNL     1     -10.257   7.933  67.841  1.00  0.00    -0.263 A  
HETATM   28  C   UNL     1     -10.951   6.746  67.578  1.00  0.00    -0.375 A  
HETATM   29  C   UNL     1     -10.411   5.517  67.949  1.00  0.00    -0.244 A  
HETATM   30  C   UNL     1      -9.169   5.436  68.585  1.00  0.00    -0.139 A  
HETATM   31  C   UNL     1      -8.489   6.636  68.834  1.00  0.00    -0.123 A  
HETATM   32  N   UNL     1      -7.270   6.853  69.424  1.00  0.00    -0.086 NA 
HETATM   33  H   UNL     1      -6.661   6.115  69.780  1.00  0.00     0.000 HD 
ENDBRANCH  19  20
ENDBRANCH  18  19
ENDBRANCH  15  18
ENDBRANCH  14  15
ENDBRANCH  12  14
ENDBRANCH  11  12
ENDBRANCH  10  11
ENDBRANCH   9  10
ENDBRANCH   8   9
ENDBRANCH   2   3
TORSDOF 10
ENDMDL
MODEL      250
REMARK 921   NORMALIZED FREE ENERGY PREDICTED BY IDOCK:   -4.30 KCAL/MOL
REMARK 922        TOTAL FREE ENERGY PREDICTED BY IDOCK:   -8.67 KCAL/MOL
REMARK 923 INTER-LIGAND FREE ENERGY PREDICTED BY IDOCK:   -7.55 KCAL/MOL
REMARK 924 INTRA-LIGAND FREE ENERGY PREDICTED BY IDOCK:   -1.12 KCAL/MOL
REMARK 927      BINDING AFFINITY PREDICTED BY RF-SCORE:    0.00 PKD
ROOT
HETATM    1  C   UNL     1      -8.843  10.451  66.346  1.00  0.00    -0.147 C  
HETATM    2  O   UNL     1      -9.909  11.335  66.685  1.00  0.00    -0.198 OA 
ENDROOT
BRANCH   2   3
HETATM    3  C   UNL     1     -10.636  11.838  65.635  1.00  0.00    -0.268 A  
HETATM    4  C   UNL     1     -10.643  11.203  64.382  1.00  0.00    -0.411 A  
HETATM    5  C   UNL     1     -11.425  11.690  63.335  1.00  0.00    -0.360 A  
HETATM    6  C   UNL     1     -12.189  12.835  63.516  1.00  0.00    -0.613 A  
HETATM    7  C   UNL     1     -12.151  13.503  64.738  1.00  0.00    -0.442 A  
HETATM    8  C   UNL     1     -11.373  13.026  65.804  1.00  0.00    -0.301 A  
BRANCH   8   9
HETATM    9  O   UNL     1     -11.478  13.828  66.916  1.00  0.00    -0.319 OA 
BRANCH   9  10
HETATM   10  C   UNL     1     -12.193  13.305  68.029  1.00  0.00    -0.077 C  
BRANCH  10  11
HETATM   11  C   UNL     1     -11.665  13.919  69.336  1.00  0.00    -0.315 C  
BRANCH  11  12
HETATM   12  N   UNL     1     -11.897  13.079  70.525  1.00  0.00    -0.537 NA 
HETATM   13  H   UNL     1     -12.742  13.365  71.019  1.00  0.00     0.000 HD 
BRANCH  12  14
HETATM   14  C   UNL     1     -11.933  11.638  70.196  1.00  0.00    -0.359 C  
BRANCH  14  15
HETATM   15  C   UNL     1     -12.055  10.750  71.453  1.00  0.00    -0.195 C  
HETATM   16  O   UNL     1     -13.287  11.039  72.121  1.00  0.00    -0.594 OA 
HETATM   17  H   UNL     1     -13.363  10.493  72.895  1.00  0.00     0.000 HD 
BRANCH  15  18
HETATM   18  C   UNL     1     -11.980   9.267  71.067  1.00  0.00    -0.300 C  
BRANCH  18  19
HETATM   19  O   UNL     1     -10.631   8.810  71.065  1.00  0.00    -0.204 OA 
BRANCH  19  20
HETATM   20  C   UNL     1     -10.330   7.841  70.138  1.00  0.00    -0.218 A  
HETATM   21  C   UNL     1     -11.154   6.741  69.838  1.00  0.00    -0.374 A  
HETATM   22  C   UNL     1     -10.799   5.812  68.865  1.00  0.00    -0.305 A  
HETATM   23  C   UNL     1      -9.610   5.939  68.149  1.00  0.00    -0.130 A  
HETATM   24  C   UNL     1      -8.788   7.030  68.457  1.00  0.00    -0.124 A  
HETATM   25  C   UNL     1      -9.111   7.977  69.430  1.00  0.00    -0.148 A  
HETATM   26  C   UNL     1      -8.031   8.921  69.476  1.00  0.00    -0.092 A  
HETATM   27  C   UNL     1      -7.764  10.071  70.251  1.00  0.00    -0.093 A  
HETATM   28  C   UNL     1      -6.586  10.794  70.035  1.00  0.00    -0.159 A  
HETATM   29  C   UNL     1      -5.677  10.387  69.061  1.00  0.00    -0.041 A  
HETATM   30  C   UNL     1      -5.914   9.250  68.282  1.00  0.00    -0.045 A  
HETATM   31  C   UNL     1      -7.097   8.538  68.518  1.00  0.00    -0.073 A  
HETATM   32  N   UNL     1      -7.576   7.400  67.921  1.00  0.00    -0.111 NA 
HETATM   33  H   UNL     1      -7.095   6.893  67.177  1.00  0.00     0.000 HD 
ENDBRANCH  19  20
ENDBRANCH  18  19
ENDBRANCH  15  18
ENDBRANCH  14  15
ENDBRANCH  12  14
ENDBRANCH  11  12
ENDBRANCH  10  11
ENDBRANCH   9  10
ENDBRANCH   8   9
ENDBRANCH   2   3
TORSDOF 10
ENDMDL
MODEL      251
REMARK 921   NORMALIZED FREE ENERGY PREDICTED BY IDOCK:   -4.30 KCAL/MOL
REMARK 922        TOTAL FREE ENERGY PREDICTED BY IDOCK:   -8.67 KCAL/MOL
REMARK 923 INTER-LIGAND FREE ENERGY PREDICTED BY IDOCK:   -8.06 KCAL/MOL
REMARK 924 INTRA-LIGAND FREE ENERGY PREDICTED BY IDOCK:   -0.61 KCAL/MOL
REMARK 927      BINDING AFFINITY PREDICTED BY RF-SCORE:    0.00 PKD
ROOT
HETATM    1  C   UNL     1     -11.909   6.667  72.077  1.00  0.00    -0.324 C  
HETATM    2  O   UNL     1     -10.557   6.818  71.650  1.00  0.00    -0.212 OA 
ENDROOT
BRANCH   2   3
HETATM    3  C   UNL     1     -10.208   6.159  70.498  1.00  0.00    -0.199 A  
HETATM    4  C   UNL     1      -9.963   4.776  70.495  1.00  0.00    -0.306 A  
HETATM    5  C   UNL     1      -9.659   4.104  69.311  1.00  0.00    -0.256 A  
HETATM    6  C   UNL     1      -9.568   4.808  68.118  1.00  0.00    -0.200 A  
HETATM    7  C   UNL     1      -9.759   6.189  68.117  1.00  0.00    -0.125 A  
HETATM    8  C   UNL     1     -10.068   6.881  69.297  1.00  0.00    -0.170 A  
BRANCH   8   9
HETATM    9  O   UNL     1     -10.218   8.230  69.077  1.00  0.00    -0.208 OA 
BRANCH   9  10
HETATM   10  C   UNL     1      -9.832   9.107  70.128  1.00  0.00    -0.198 C  
BRANCH  10  11
HETATM   11  C   UNL     1      -8.306   9.297  70.128  1.00  0.00    -0.178 C  
BRANCH  11  12
HETATM   12  N   UNL     1      -7.869  10.603  69.600  1.00  0.00    -0.350 NA 
HETATM   13  H   UNL     1      -7.222  11.062  70.241  1.00  0.00     0.000 HD 
BRANCH  12  14
HETATM   14  C   UNL     1      -7.289  10.495  68.244  1.00  0.00    -0.088 C  
BRANCH  14  15
HETATM   15  C   UNL     1      -6.561  11.786  67.811  1.00  0.00    -0.075 C  
HETATM   16  O   UNL     1      -6.513  11.848  66.382  1.00  0.00    -0.394 OA 
HETATM   17  H   UNL     1      -6.065  12.643  66.116  1.00  0.00     0.000 HD 
BRANCH  15  18
HETATM   18  C   UNL     1      -7.274  13.016  68.386  1.00  0.00    -0.110 C  
BRANCH  18  19
HETATM   19  O   UNL     1      -8.009  13.697  67.375  1.00  0.00    -0.171 OA 
BRANCH  19  20
HETATM   20  C   UNL     1      -9.187  14.278  67.781  1.00  0.00    -0.194 A  
HETATM   21  C   UNL     1      -9.314  15.131  68.893  1.00  0.00    -0.207 A  
HETATM   22  C   UNL     1     -10.534  15.709  69.229  1.00  0.00    -0.247 A  
HETATM   23  C   UNL     1     -11.679  15.464  68.472  1.00  0.00    -0.355 A  
HETATM   24  C   UNL     1     -11.550  14.608  67.371  1.00  0.00    -0.389 A  
HETATM   25  C   UNL     1     -10.343  14.007  67.009  1.00  0.00    -0.267 A  
HETATM   26  C   UNL     1     -10.605  13.193  65.857  1.00  0.00    -0.290 A  
HETATM   27  C   UNL     1      -9.813  12.341  65.056  1.00  0.00    -0.158 A  
HETATM   28  C   UNL     1     -10.390  11.678  63.968  1.00  0.00    -0.405 A  
HETATM   29  C   UNL     1     -11.740  11.853  63.671  1.00  0.00    -0.572 A  
HETATM   30  C   UNL     1     -12.549  12.687  64.449  1.00  0.00    -0.470 A  
HETATM   31  C   UNL     1     -11.951  13.338  65.537  1.00  0.00    -0.405 A  
HETATM   32  N   UNL     1     -12.496  14.192  66.462  1.00  0.00    -0.534 NA 
HETATM   33  H   UNL     1     -13.474  14.481  66.474  1.00  0.00     0.000 HD 
ENDBRANCH  19  20
ENDBRANCH  18  19
ENDBRANCH  15  18
ENDBRANCH  14  15
ENDBRANCH  12  14
ENDBRANCH  11  12
ENDBRANCH  10  11
ENDBRANCH   9  10
ENDBRANCH   8   9
ENDBRANCH   2   3
TORSDOF 10
ENDMDL
MODEL      252
REMARK 921   NORMALIZED FREE ENERGY PREDICTED BY IDOCK:   -4.30 KCAL/MOL
REMARK 922        TOTAL FREE ENERGY PREDICTED BY IDOCK:   -8.66 KCAL/MOL
REMARK 923 INTER-LIGAND FREE ENERGY PREDICTED BY IDOCK:   -8.45 KCAL/MOL
REMARK 924 INTRA-LIGAND FREE ENERGY PREDICTED BY IDOCK:   -0.20 KCAL/MOL
REMARK 927      BINDING AFFINITY PREDICTED BY RF-SCORE:    0.00 PKD
ROOT
HETATM    1  C   UNL     1     -11.263   6.177  68.780  1.00  0.00    -0.224 C  
HETATM    2  O   UNL     1     -10.397   5.371  69.575  1.00  0.00    -0.244 OA 
ENDROOT
BRANCH   2   3
HETATM    3  C   UNL     1      -9.769   4.336  68.929  1.00  0.00    -0.125 A  
HETATM    4  C   UNL     1      -9.342   3.193  69.626  1.00  0.00    -0.222 A  
HETATM    5  C   UNL     1      -8.751   2.123  68.955  1.00  0.00    -0.126 A  
HETATM    6  C   UNL     1      -8.553   2.190  67.582  1.00  0.00    -0.111 A  
HETATM    7  C   UNL     1      -8.925   3.340  66.888  1.00  0.00    -0.174 A  
HETATM    8  C   UNL     1      -9.524   4.425  67.545  1.00  0.00    -0.166 A  
BRANCH   8   9
HETATM    9  O   UNL     1      -9.814   5.453  66.680  1.00  0.00    -0.146 OA 
BRANCH   9  10
HETATM   10  C   UNL     1      -8.861   5.737  65.664  1.00  0.00    -0.136 C  
BRANCH  10  11
HETATM   11  C   UNL     1      -8.581   7.248  65.604  1.00  0.00    -0.109 C  
BRANCH  11  12
HETATM   12  N   UNL     1      -9.647   8.075  66.198  1.00  0.00    -0.420 NA 
HETATM   13  H   UNL     1     -10.323   7.500  66.702  1.00  0.00     0.000 HD 
BRANCH  12  14
HETATM   14  C   UNL     1      -9.110   9.149  67.062  1.00  0.00    -0.123 C  
BRANCH  14  15
HETATM   15  C   UNL     1      -9.921  10.458  66.947  1.00  0.00    -0.206 C  
HETATM   16  O   UNL     1     -10.395  10.606  65.605  1.00  0.00    -0.255 OA 
HETATM   17  H   UNL     1     -10.894  11.412  65.534  1.00  0.00     0.000 HD 
BRANCH  15  18
HETATM   18  C   UNL     1     -11.091  10.447  67.939  1.00  0.00    -0.299 C  
BRANCH  18  19
HETATM   19  O   UNL     1     -10.628  10.632  69.273  1.00  0.00    -0.208 OA 
BRANCH  19  20
HETATM   20  C   UNL     1     -11.517  10.296  70.266  1.00  0.00    -0.317 A  
HETATM   21  C   UNL     1     -11.743   8.985  70.725  1.00  0.00    -0.286 A  
HETATM   22  C   UNL     1     -12.638   8.721  71.757  1.00  0.00    -0.409 A  
HETATM   23  C   UNL     1     -13.345   9.750  72.376  1.00  0.00    -0.374 A  
HETATM   24  C   UNL     1     -13.124  11.052  71.911  1.00  0.00    -0.419 A  
HETATM   25  C   UNL     1     -12.239  11.352  70.874  1.00  0.00    -0.447 A  
HETATM   26  C   UNL     1     -12.296  12.771  70.667  1.00  0.00    -0.381 A  
HETATM   27  C   UNL     1     -11.663  13.657  69.769  1.00  0.00    -0.364 A  
HETATM   28  C   UNL     1     -11.941  15.027  69.835  1.00  0.00    -0.374 A  
HETATM   29  C   UNL     1     -12.837  15.519  70.781  1.00  0.00    -0.513 A  
HETATM   30  C   UNL     1     -13.482  14.663  71.679  1.00  0.00    -0.452 A  
HETATM   31  C   UNL     1     -13.192  13.295  71.593  1.00  0.00    -0.359 A  
HETATM   32  N   UNL     1     -13.676  12.242  72.327  1.00  0.00    -0.467 NA 
HETATM   33  H   UNL     1     -14.356  12.330  73.082  1.00  0.00     0.000 HD 
ENDBRANCH  19  20
ENDBRANCH  18  19
ENDBRANCH  15  18
ENDBRANCH  14  15
ENDBRANCH  12  14
ENDBRANCH  11  12
ENDBRANCH  10  11
ENDBRANCH   9  10
ENDBRANCH   8   9
ENDBRANCH   2   3
TORSDOF 10
ENDMDL
MODEL      253
REMARK 921   NORMALIZED FREE ENERGY PREDICTED BY IDOCK:   -4.29 KCAL/MOL
REMARK 922        TOTAL FREE ENERGY PREDICTED BY IDOCK:   -8.64 KCAL/MOL
REMARK 923 INTER-LIGAND FREE ENERGY PREDICTED BY IDOCK:   -7.65 KCAL/MOL
REMARK 924 INTRA-LIGAND FREE ENERGY PREDICTED BY IDOCK:   -0.99 KCAL/MOL
REMARK 927      BINDING AFFINITY PREDICTED BY RF-SCORE:    0.00 PKD
ROOT
HETATM    1  C   UNL     1      -7.138   6.919  70.505  1.00  0.00    -0.067 C  
HETATM    2  O   UNL     1      -8.136   7.931  70.388  1.00  0.00    -0.109 OA 
ENDROOT
BRANCH   2   3
HETATM    3  C   UNL     1      -9.264   7.760  71.149  1.00  0.00    -0.146 A  
HETATM    4  C   UNL     1      -9.486   6.573  71.868  1.00  0.00    -0.153 A  
HETATM    5  C   UNL     1     -10.610   6.426  72.680  1.00  0.00    -0.250 A  
HETATM    6  C   UNL     1     -11.543   7.451  72.765  1.00  0.00    -0.255 A  
HETATM    7  C   UNL     1     -11.360   8.613  72.017  1.00  0.00    -0.432 A  
HETATM    8  C   UNL     1     -10.234   8.780  71.197  1.00  0.00    -0.246 A  
BRANCH   8   9
HETATM    9  O   UNL     1     -10.245   9.993  70.550  1.00  0.00    -0.251 OA 
BRANCH   9  10
HETATM   10  C   UNL     1     -11.131  10.134  69.447  1.00  0.00    -0.243 C  
BRANCH  10  11
HETATM   11  C   UNL     1     -11.729  11.551  69.424  1.00  0.00    -0.346 C  
BRANCH  11  12
HETATM   12  N   UNL     1     -10.722  12.621  69.310  1.00  0.00    -0.442 NA 
HETATM   13  H   UNL     1      -9.853  12.269  68.908  1.00  0.00     0.000 HD 
BRANCH  12  14
HETATM   14  C   UNL     1     -11.226  13.788  68.554  1.00  0.00    -0.275 C  
BRANCH  14  15
HETATM   15  C   UNL     1     -11.571  14.980  69.473  1.00  0.00    -0.311 C  
HETATM   16  O   UNL     1     -10.595  15.075  70.515  1.00  0.00    -0.504 OA 
HETATM   17  H   UNL     1     -10.807  15.808  71.081  1.00  0.00     0.000 HD 
BRANCH  15  18
HETATM   18  C   UNL     1     -11.627  16.280  68.660  1.00  0.00    -0.216 C  
BRANCH  18  19
HETATM   19  O   UNL     1     -10.464  16.423  67.850  1.00  0.00    -0.286 OA 
BRANCH  19  20
HETATM   20  C   UNL     1      -9.761  17.593  68.014  1.00  0.00    -0.301 A  
HETATM   21  C   UNL     1     -10.292  18.879  67.803  1.00  0.00    -0.490 A  
HETATM   22  C   UNL     1      -9.530  20.023  68.018  1.00  0.00    -0.427 A  
HETATM   23  C   UNL     1      -8.209  19.936  68.452  1.00  0.00    -0.223 A  
HETATM   24  C   UNL     1      -7.681  18.654  68.652  1.00  0.00    -0.317 A  
HETATM   25  C   UNL     1      -8.415  17.486  68.441  1.00  0.00    -0.275 A  
HETATM   26  C   UNL     1      -7.544  16.382  68.726  1.00  0.00    -0.211 A  
HETATM   27  C   UNL     1      -7.690  14.978  68.680  1.00  0.00    -0.128 A  
HETATM   28  C   UNL     1      -6.616  14.157  69.037  1.00  0.00    -0.104 A  
HETATM   29  C   UNL     1      -5.404  14.715  69.439  1.00  0.00    -0.086 A  
HETATM   30  C   UNL     1      -5.230  16.102  69.489  1.00  0.00    -0.115 A  
HETATM   31  C   UNL     1      -6.318  16.906  69.123  1.00  0.00    -0.204 A  
HETATM   32  N   UNL     1      -6.426  18.272  69.069  1.00  0.00    -0.238 NA 
HETATM   33  H   UNL     1      -5.675  18.920  69.306  1.00  0.00     0.000 HD 
ENDBRANCH  19  20
ENDBRANCH  18  19
ENDBRANCH  15  18
ENDBRANCH  14  15
ENDBRANCH  12  14
ENDBRANCH  11  12
ENDBRANCH  10  11
ENDBRANCH   9  10
ENDBRANCH   8   9
ENDBRANCH   2   3
TORSDOF 10
ENDMDL
MODEL      254
REMARK 921   NORMALIZED FREE ENERGY PREDICTED BY IDOCK:   -4.25 KCAL/MOL
REMARK 922        TOTAL FREE ENERGY PREDICTED BY IDOCK:   -8.58 KCAL/MOL
REMARK 923 INTER-LIGAND FREE ENERGY PREDICTED BY IDOCK:   -7.42 KCAL/MOL
REMARK 924 INTRA-LIGAND FREE ENERGY PREDICTED BY IDOCK:   -1.17 KCAL/MOL
REMARK 927      BINDING AFFINITY PREDICTED BY RF-SCORE:    0.00 PKD
ROOT
HETATM    1  C   UNL     1     -11.194  15.398  65.084  1.00  0.00    -0.350 C  
HETATM    2  O   UNL     1     -12.017  14.261  65.335  1.00  0.00    -0.359 OA 
ENDROOT
BRANCH   2   3
HETATM    3  C   UNL     1     -11.444  13.035  65.104  1.00  0.00    -0.306 A  
HETATM    4  C   UNL     1     -10.739  12.771  63.918  1.00  0.00    -0.443 A  
HETATM    5  C   UNL     1     -10.117  11.540  63.713  1.00  0.00    -0.407 A  
HETATM    6  C   UNL     1     -10.212  10.546  64.677  1.00  0.00    -0.364 A  
HETATM    7  C   UNL     1     -10.952  10.778  65.835  1.00  0.00     0.003 A  
HETATM    8  C   UNL     1     -11.583  12.010  66.061  1.00  0.00    -0.305 A  
BRANCH   8   9
HETATM    9  O   UNL     1     -12.255  12.032  67.259  1.00  0.00    -0.496 OA 
BRANCH   9  10
HETATM   10  C   UNL     1     -11.535  12.478  68.401  1.00  0.00    -0.312 C  
BRANCH  10  11
HETATM   11  C   UNL     1     -11.404  11.339  69.426  1.00  0.00    -0.292 C  
BRANCH  11  12
HETATM   12  N   UNL     1     -12.641  10.557  69.608  1.00  0.00    -0.618 NA 
HETATM   13  H   UNL     1     -12.472   9.561  69.463  1.00  0.00     0.000 HD 
BRANCH  12  14
HETATM   14  C   UNL     1     -13.274  10.805  70.921  1.00  0.00    -0.078 C  
BRANCH  14  15
HETATM   15  C   UNL     1     -13.511   9.502  71.716  1.00  0.00    -0.402 C  
HETATM   16  O   UNL     1     -13.797   8.436  70.805  1.00  0.00    -0.379 OA 
HETATM   17  H   UNL     1     -13.943   7.634  71.294  1.00  0.00     0.000 HD 
BRANCH  15  18
HETATM   18  C   UNL     1     -12.283   9.172  72.573  1.00  0.00    -0.082 C  
BRANCH  18  19
HETATM   19  O   UNL     1     -11.244   8.611  71.778  1.00  0.00    -0.280 OA 
BRANCH  19  20
HETATM   20  C   UNL     1     -10.333   7.829  72.449  1.00  0.00    -0.253 A  
HETATM   21  C   UNL     1     -10.639   7.030  73.566  1.00  0.00    -0.405 A  
HETATM   22  C   UNL     1      -9.672   6.239  74.179  1.00  0.00    -0.244 A  
HETATM   23  C   UNL     1      -8.361   6.209  73.706  1.00  0.00    -0.113 A  
HETATM   24  C   UNL     1      -8.059   7.013  72.599  1.00  0.00    -0.107 A  
HETATM   25  C   UNL     1      -9.003   7.823  71.964  1.00  0.00    -0.175 A  
HETATM   26  C   UNL     1      -8.326   8.505  70.898  1.00  0.00    -0.166 A  
HETATM   27  C   UNL     1      -8.724   9.453  69.931  1.00  0.00    -0.209 A  
HETATM   28  C   UNL     1      -7.792   9.928  69.002  1.00  0.00    -0.095 A  
HETATM   29  C   UNL     1      -6.476   9.472  69.026  1.00  0.00    -0.046 A  
HETATM   30  C   UNL     1      -6.054   8.536  69.976  1.00  0.00    -0.031 A  
HETATM   31  C   UNL     1      -7.002   8.077  70.900  1.00  0.00    -0.045 A  
HETATM   32  N   UNL     1      -6.868   7.183  71.931  1.00  0.00    -0.059 NA 
HETATM   33  H   UNL     1      -5.999   6.706  72.171  1.00  0.00     0.000 HD 
ENDBRANCH  19  20
ENDBRANCH  18  19
ENDBRANCH  15  18
ENDBRANCH  14  15
ENDBRANCH  12  14
ENDBRANCH  11  12
ENDBRANCH  10  11
ENDBRANCH   9  10
ENDBRANCH   8   9
ENDBRANCH   2   3
TORSDOF 10
ENDMDL
MODEL      255
REMARK 921   NORMALIZED FREE ENERGY PREDICTED BY IDOCK:   -4.25 KCAL/MOL
REMARK 922        TOTAL FREE ENERGY PREDICTED BY IDOCK:   -8.57 KCAL/MOL
REMARK 923 INTER-LIGAND FREE ENERGY PREDICTED BY IDOCK:   -7.66 KCAL/MOL
REMARK 924 INTRA-LIGAND FREE ENERGY PREDICTED BY IDOCK:   -0.91 KCAL/MOL
REMARK 927      BINDING AFFINITY PREDICTED BY RF-SCORE:    0.00 PKD
ROOT
HETATM    1  C   UNL     1      -7.685  15.472  67.397  1.00  0.00    -0.194 C  
HETATM    2  O   UNL     1      -8.496  16.108  66.412  1.00  0.00    -0.283 OA 
ENDROOT
BRANCH   2   3
HETATM    3  C   UNL     1      -8.998  17.341  66.744  1.00  0.00    -0.250 A  
HETATM    4  C   UNL     1      -8.270  18.516  66.497  1.00  0.00    -0.299 A  
HETATM    5  C   UNL     1      -8.807  19.769  66.791  1.00  0.00    -0.410 A  
HETATM    6  C   UNL     1     -10.069  19.865  67.362  1.00  0.00    -0.567 A  
HETATM    7  C   UNL     1     -10.781  18.704  67.659  1.00  0.00    -0.428 A  
HETATM    8  C   UNL     1     -10.258  17.436  67.368  1.00  0.00    -0.326 A  
BRANCH   8   9
HETATM    9  O   UNL     1     -11.118  16.428  67.737  1.00  0.00    -0.297 OA 
BRANCH   9  10
HETATM   10  C   UNL     1     -10.931  15.854  69.024  1.00  0.00    -0.277 C  
BRANCH  10  11
HETATM   11  C   UNL     1     -12.282  15.402  69.605  1.00  0.00    -0.282 C  
BRANCH  11  12
HETATM   12  N   UNL     1     -12.440  13.938  69.676  1.00  0.00    -0.362 NA 
HETATM   13  H   UNL     1     -13.424  13.671  69.643  1.00  0.00     0.000 HD 
BRANCH  12  14
HETATM   14  C   UNL     1     -11.662  13.238  68.631  1.00  0.00    -0.341 C  
BRANCH  14  15
HETATM   15  C   UNL     1     -11.181  11.844  69.090  1.00  0.00    -0.255 C  
HETATM   16  O   UNL     1     -12.000  10.837  68.490  1.00  0.00    -0.722 OA 
HETATM   17  H   UNL     1     -11.704   9.979  68.772  1.00  0.00     0.000 HD 
BRANCH  15  18
HETATM   18  C   UNL     1      -9.707  11.641  68.718  1.00  0.00    -0.095 C  
BRANCH  18  19
HETATM   19  O   UNL     1      -9.569  11.347  67.331  1.00  0.00    -0.172 OA 
BRANCH  19  20
HETATM   20  C   UNL     1      -8.323  10.924  66.931  1.00  0.00    -0.133 A  
HETATM   21  C   UNL     1      -7.213  11.771  66.751  1.00  0.00    -0.050 A  
HETATM   22  C   UNL     1      -5.972  11.269  66.372  1.00  0.00    -0.128 A  
HETATM   23  C   UNL     1      -5.783   9.905  66.156  1.00  0.00    -0.058 A  
HETATM   24  C   UNL     1      -6.892   9.068  66.327  1.00  0.00    -0.078 A  
HETATM   25  C   UNL     1      -8.152   9.537  66.701  1.00  0.00    -0.108 A  
HETATM   26  C   UNL     1      -9.028   8.402  66.754  1.00  0.00    -0.172 A  
HETATM   27  C   UNL     1     -10.400   8.233  67.045  1.00  0.00    -0.393 A  
HETATM   28  C   UNL     1     -10.962   6.952  67.014  1.00  0.00    -0.404 A  
HETATM   29  C   UNL     1     -10.177   5.845  66.700  1.00  0.00    -0.258 A  
HETATM   30  C   UNL     1      -8.818   5.984  66.404  1.00  0.00    -0.137 A  
HETATM   31  C   UNL     1      -8.276   7.276  66.435  1.00  0.00    -0.120 A  
HETATM   32  N   UNL     1      -6.998   7.703  66.183  1.00  0.00    -0.064 NA 
HETATM   33  H   UNL     1      -6.225   7.089  65.921  1.00  0.00     0.000 HD 
ENDBRANCH  19  20
ENDBRANCH  18  19
ENDBRANCH  15  18
ENDBRANCH  14  15
ENDBRANCH  12  14
ENDBRANCH  11  12
ENDBRANCH  10  11
ENDBRANCH   9  10
ENDBRANCH   8   9
ENDBRANCH   2   3
TORSDOF 10
ENDMDL
MODEL      256
REMARK 921   NORMALIZED FREE ENERGY PREDICTED BY IDOCK:   -4.24 KCAL/MOL
REMARK 922        TOTAL FREE ENERGY PREDICTED BY IDOCK:   -8.56 KCAL/MOL
REMARK 923 INTER-LIGAND FREE ENERGY PREDICTED BY IDOCK:   -7.01 KCAL/MOL
REMARK 924 INTRA-LIGAND FREE ENERGY PREDICTED BY IDOCK:   -1.54 KCAL/MOL
REMARK 927      BINDING AFFINITY PREDICTED BY RF-SCORE:    0.00 PKD
ROOT
HETATM    1  C   UNL     1     -11.231   6.432  68.937  1.00  0.00    -0.307 C  
HETATM    2  O   UNL     1      -9.851   6.083  68.846  1.00  0.00    -0.131 OA 
ENDROOT
BRANCH   2   3
HETATM    3  C   UNL     1      -9.571   4.861  68.289  1.00  0.00    -0.145 A  
HETATM    4  C   UNL     1      -9.450   3.708  69.083  1.00  0.00    -0.235 A  
HETATM    5  C   UNL     1      -9.216   2.461  68.505  1.00  0.00    -0.242 A  
HETATM    6  C   UNL     1      -9.071   2.351  67.129  1.00  0.00    -0.164 A  
HETATM    7  C   UNL     1      -9.137   3.494  66.335  1.00  0.00    -0.166 A  
HETATM    8  C   UNL     1      -9.375   4.757  66.898  1.00  0.00    -0.134 A  
BRANCH   8   9
HETATM    9  O   UNL     1      -9.405   5.747  65.944  1.00  0.00    -0.152 OA 
BRANCH   9  10
HETATM   10  C   UNL     1      -8.254   5.894  65.123  1.00  0.00    -0.141 C  
BRANCH  10  11
HETATM   11  C   UNL     1      -7.636   7.289  65.320  1.00  0.00    -0.102 C  
BRANCH  11  12
HETATM   12  N   UNL     1      -8.505   8.228  66.052  1.00  0.00    -0.130 NA 
HETATM   13  H   UNL     1      -9.129   7.733  66.690  1.00  0.00     0.000 HD 
BRANCH  12  14
HETATM   14  C   UNL     1      -7.733   9.270  66.763  1.00  0.00    -0.094 C  
BRANCH  14  15
HETATM   15  C   UNL     1      -8.643  10.346  67.397  1.00  0.00    -0.125 C  
HETATM   16  O   UNL     1      -9.230  11.140  66.362  1.00  0.00    -0.173 OA 
HETATM   17  H   UNL     1      -9.790  11.802  66.752  1.00  0.00     0.000 HD 
BRANCH  15  18
HETATM   18  C   UNL     1      -9.726   9.685  68.258  1.00  0.00    -0.146 C  
BRANCH  18  19
HETATM   19  O   UNL     1      -9.654  10.143  69.605  1.00  0.00    -0.225 OA 
BRANCH  19  20
HETATM   20  C   UNL     1     -10.819  10.053  70.330  1.00  0.00    -0.313 A  
HETATM   21  C   UNL     1     -11.956  10.854  70.114  1.00  0.00    -0.435 A  
HETATM   22  C   UNL     1     -13.113  10.688  70.868  1.00  0.00    -0.342 A  
HETATM   23  C   UNL     1     -13.189   9.720  71.867  1.00  0.00    -0.545 A  
HETATM   24  C   UNL     1     -12.052   8.931  72.085  1.00  0.00    -0.359 A  
HETATM   25  C   UNL     1     -10.873   9.074  71.352  1.00  0.00    -0.400 A  
HETATM   26  C   UNL     1      -9.935   8.118  71.868  1.00  0.00    -0.277 A  
HETATM   27  C   UNL     1      -8.595   7.795  71.564  1.00  0.00    -0.133 A  
HETATM   28  C   UNL     1      -7.950   6.775  72.272  1.00  0.00    -0.095 A  
HETATM   29  C   UNL     1      -8.622   6.078  73.273  1.00  0.00    -0.117 A  
HETATM   30  C   UNL     1      -9.948   6.381  73.599  1.00  0.00    -0.232 A  
HETATM   31  C   UNL     1     -10.573   7.408  72.880  1.00  0.00    -0.321 A  
HETATM   32  N   UNL     1     -11.842   7.917  72.991  1.00  0.00    -0.633 NA 
HETATM   33  H   UNL     1     -12.540   7.586  73.658  1.00  0.00     0.000 HD 
ENDBRANCH  19  20
ENDBRANCH  18  19
ENDBRANCH  15  18
ENDBRANCH  14  15
ENDBRANCH  12  14
ENDBRANCH  11  12
ENDBRANCH  10  11
ENDBRANCH   9  10
ENDBRANCH   8   9
ENDBRANCH   2   3
TORSDOF 10
ENDMDL
MODEL      257
REMARK 921   NORMALIZED FREE ENERGY PREDICTED BY IDOCK:   -4.23 KCAL/MOL
REMARK 922        TOTAL FREE ENERGY PREDICTED BY IDOCK:   -8.55 KCAL/MOL
REMARK 923 INTER-LIGAND FREE ENERGY PREDICTED BY IDOCK:   -7.20 KCAL/MOL
REMARK 924 INTRA-LIGAND FREE ENERGY PREDICTED BY IDOCK:   -1.34 KCAL/MOL
REMARK 927      BINDING AFFINITY PREDICTED BY RF-SCORE:    0.00 PKD
ROOT
HETATM    1  C   UNL     1     -12.206  14.881  64.368  1.00  0.00    -0.381 C  
HETATM    2  O   UNL     1     -12.672  13.537  64.272  1.00  0.00    -0.645 OA 
ENDROOT
BRANCH   2   3
HETATM    3  C   UNL     1     -11.730  12.555  64.446  1.00  0.00    -0.368 A  
HETATM    4  C   UNL     1     -10.972  12.071  63.367  1.00  0.00    -0.475 A  
HETATM    5  C   UNL     1      -9.981  11.109  63.561  1.00  0.00    -0.425 A  
HETATM    6  C   UNL     1      -9.750  10.597  64.831  1.00  0.00    -0.341 A  
HETATM    7  C   UNL     1     -10.530  11.032  65.901  1.00  0.00    -0.300 A  
HETATM    8  C   UNL     1     -11.530  12.001  65.726  1.00  0.00    -0.320 A  
BRANCH   8   9
HETATM    9  O   UNL     1     -12.177  12.289  66.904  1.00  0.00    -0.530 OA 
BRANCH   9  10
HETATM   10  C   UNL     1     -11.483  13.096  67.846  1.00  0.00    -0.308 C  
BRANCH  10  11
HETATM   11  C   UNL     1     -11.646  12.518  69.263  1.00  0.00    -0.319 C  
BRANCH  11  12
HETATM   12  N   UNL     1     -11.966  11.079  69.285  1.00  0.00    -0.362 NA 
HETATM   13  H   UNL     1     -11.722  10.633  68.401  1.00  0.00     0.000 HD 
BRANCH  12  14
HETATM   14  C   UNL     1     -11.335  10.382  70.427  1.00  0.00    -0.337 C  
BRANCH  14  15
HETATM   15  C   UNL     1     -10.145   9.499  69.992  1.00  0.00    -0.242 C  
HETATM   16  O   UNL     1      -8.924  10.217  70.189  1.00  0.00    -0.358 OA 
HETATM   17  H   UNL     1      -8.191   9.673  69.922  1.00  0.00     0.000 HD 
BRANCH  15  18
HETATM   18  C   UNL     1     -10.140   8.186  70.785  1.00  0.00    -0.189 C  
BRANCH  18  19
HETATM   19  O   UNL     1     -10.182   7.063  69.911  1.00  0.00    -0.194 OA 
BRANCH  19  20
HETATM   20  C   UNL     1      -9.266   6.071  70.167  1.00  0.00    -0.154 A  
HETATM   21  C   UNL     1      -9.409   5.091  71.166  1.00  0.00    -0.199 A  
HETATM   22  C   UNL     1      -8.453   4.096  71.349  1.00  0.00    -0.111 A  
HETATM   23  C   UNL     1      -7.316   4.035  70.546  1.00  0.00    -0.041 A  
HETATM   24  C   UNL     1      -7.172   5.018  69.559  1.00  0.00    -0.056 A  
HETATM   25  C   UNL     1      -8.108   6.032  69.352  1.00  0.00    -0.111 A  
HETATM   26  C   UNL     1      -7.614   6.851  68.281  1.00  0.00    -0.107 A  
HETATM   27  C   UNL     1      -8.085   8.015  67.638  1.00  0.00    -0.124 A  
HETATM   28  C   UNL     1      -7.345   8.578  66.593  1.00  0.00    -0.081 A  
HETATM   29  C   UNL     1      -6.147   7.997  66.184  1.00  0.00    -0.045 A  
HETATM   30  C   UNL     1      -5.654   6.846  66.807  1.00  0.00    -0.018 A  
HETATM   31  C   UNL     1      -6.409   6.301  67.854  1.00  0.00    -0.033 A  
HETATM   32  N   UNL     1      -6.166   5.202  68.638  1.00  0.00    -0.030 NA 
HETATM   33  H   UNL     1      -5.347   4.600  68.551  1.00  0.00     0.000 HD 
ENDBRANCH  19  20
ENDBRANCH  18  19
ENDBRANCH  15  18
ENDBRANCH  14  15
ENDBRANCH  12  14
ENDBRANCH  11  12
ENDBRANCH  10  11
ENDBRANCH   9  10
ENDBRANCH   8   9
ENDBRANCH   2   3
TORSDOF 10
ENDMDL
MODEL      258
REMARK 921   NORMALIZED FREE ENERGY PREDICTED BY IDOCK:   -4.23 KCAL/MOL
REMARK 922        TOTAL FREE ENERGY PREDICTED BY IDOCK:   -8.55 KCAL/MOL
REMARK 923 INTER-LIGAND FREE ENERGY PREDICTED BY IDOCK:   -6.75 KCAL/MOL
REMARK 924 INTRA-LIGAND FREE ENERGY PREDICTED BY IDOCK:   -1.80 KCAL/MOL
REMARK 927      BINDING AFFINITY PREDICTED BY RF-SCORE:    0.00 PKD
ROOT
HETATM    1  C   UNL     1     -12.070  15.730  69.597  1.00  0.00    -0.264 C  
HETATM    2  O   UNL     1     -11.880  14.461  68.975  1.00  0.00    -0.296 OA 
ENDROOT
BRANCH   2   3
HETATM    3  C   UNL     1     -12.153  13.360  69.747  1.00  0.00    -0.310 A  
HETATM    4  C   UNL     1     -12.504  13.488  71.101  1.00  0.00    -0.424 A  
HETATM    5  C   UNL     1     -12.830  12.369  71.867  1.00  0.00    -0.315 A  
HETATM    6  C   UNL     1     -12.783  11.103  71.298  1.00  0.00    -0.531 A  
HETATM    7  C   UNL     1     -12.387  10.958  69.970  1.00  0.00    -0.385 A  
HETATM    8  C   UNL     1     -12.058  12.073  69.183  1.00  0.00    -0.183 A  
BRANCH   8   9
HETATM    9  O   UNL     1     -11.697  11.712  67.907  1.00  0.00    -0.459 OA 
BRANCH   9  10
HETATM   10  C   UNL     1     -10.533  10.909  67.763  1.00  0.00    -0.203 C  
BRANCH  10  11
HETATM   11  C   UNL     1      -9.270  11.785  67.838  1.00  0.00    -0.181 C  
BRANCH  11  12
HETATM   12  N   UNL     1      -8.430  11.519  69.019  1.00  0.00    -0.370 NA 
HETATM   13  H   UNL     1      -8.332  10.517  69.184  1.00  0.00     0.000 HD 
BRANCH  12  14
HETATM   14  C   UNL     1      -7.108  12.177  68.929  1.00  0.00    -0.098 C  
BRANCH  14  15
HETATM   15  C   UNL     1      -6.480  12.042  67.525  1.00  0.00    -0.124 C  
HETATM   16  O   UNL     1      -5.653  13.180  67.263  1.00  0.00    -0.349 OA 
HETATM   17  H   UNL     1      -5.266  13.097  66.399  1.00  0.00     0.000 HD 
BRANCH  15  18
HETATM   18  C   UNL     1      -5.667  10.744  67.429  1.00  0.00    -0.045 C  
BRANCH  18  19
HETATM   19  O   UNL     1      -6.508   9.605  67.577  1.00  0.00    -0.067 OA 
BRANCH  19  20
HETATM   20  C   UNL     1      -7.006   9.074  66.411  1.00  0.00    -0.080 A  
HETATM   21  C   UNL     1      -6.490   9.339  65.129  1.00  0.00    -0.070 A  
HETATM   22  C   UNL     1      -7.026   8.742  63.993  1.00  0.00    -0.086 A  
HETATM   23  C   UNL     1      -8.098   7.856  64.083  1.00  0.00    -0.093 A  
HETATM   24  C   UNL     1      -8.615   7.602  65.360  1.00  0.00    -0.053 A  
HETATM   25  C   UNL     1      -8.105   8.188  66.520  1.00  0.00    -0.106 A  
HETATM   26  C   UNL     1      -8.896   7.709  67.618  1.00  0.00    -0.125 A  
HETATM   27  C   UNL     1      -8.888   7.946  69.010  1.00  0.00    -0.145 A  
HETATM   28  C   UNL     1      -9.818   7.296  69.828  1.00  0.00    -0.177 A  
HETATM   29  C   UNL     1     -10.749   6.418  69.279  1.00  0.00    -0.349 A  
HETATM   30  C   UNL     1     -10.782   6.167  67.904  1.00  0.00    -0.374 A  
HETATM   31  C   UNL     1      -9.845   6.832  67.101  1.00  0.00    -0.161 A  
HETATM   32  N   UNL     1      -9.655   6.787  65.744  1.00  0.00    -0.327 NA 
HETATM   33  H   UNL     1     -10.213   6.222  65.102  1.00  0.00     0.000 HD 
ENDBRANCH  19  20
ENDBRANCH  18  19
ENDBRANCH  15  18
ENDBRANCH  14  15
ENDBRANCH  12  14
ENDBRANCH  11  12
ENDBRANCH  10  11
ENDBRANCH   9  10
ENDBRANCH   8   9
ENDBRANCH   2   3
TORSDOF 10
ENDMDL
MODEL      259
REMARK 921   NORMALIZED FREE ENERGY PREDICTED BY IDOCK:   -4.22 KCAL/MOL
REMARK 922        TOTAL FREE ENERGY PREDICTED BY IDOCK:   -8.53 KCAL/MOL
REMARK 923 INTER-LIGAND FREE ENERGY PREDICTED BY IDOCK:   -7.18 KCAL/MOL
REMARK 924 INTRA-LIGAND FREE ENERGY PREDICTED BY IDOCK:   -1.35 KCAL/MOL
REMARK 927      BINDING AFFINITY PREDICTED BY RF-SCORE:    0.00 PKD
ROOT
HETATM    1  C   UNL     1     -11.850  13.583  64.151  1.00  0.00    -0.437 C  
HETATM    2  O   UNL     1     -10.744  13.270  64.994  1.00  0.00    -0.303 OA 
ENDROOT
BRANCH   2   3
HETATM    3  C   UNL     1     -11.017  13.146  66.333  1.00  0.00    -0.288 A  
HETATM    4  C   UNL     1     -11.817  14.086  67.004  1.00  0.00    -0.458 A  
HETATM    5  C   UNL     1     -12.133  13.927  68.353  1.00  0.00    -0.327 A  
HETATM    6  C   UNL     1     -11.632  12.841  69.058  1.00  0.00    -0.366 A  
HETATM    7  C   UNL     1     -10.797  11.928  68.417  1.00  0.00    -0.263 A  
HETATM    8  C   UNL     1     -10.470  12.071  67.060  1.00  0.00    -0.221 A  
BRANCH   8   9
HETATM    9  O   UNL     1      -9.638  11.067  66.623  1.00  0.00    -0.183 OA 
BRANCH   9  10
HETATM   10  C   UNL     1      -8.243  11.341  66.606  1.00  0.00    -0.164 C  
BRANCH  10  11
HETATM   11  C   UNL     1      -7.465  10.175  67.242  1.00  0.00    -0.091 C  
BRANCH  11  12
HETATM   12  N   UNL     1      -7.622   8.895  66.527  1.00  0.00    -0.091 NA 
HETATM   13  H   UNL     1      -6.748   8.611  66.084  1.00  0.00     0.000 HD 
BRANCH  12  14
HETATM   14  C   UNL     1      -8.149   7.825  67.402  1.00  0.00    -0.123 C  
BRANCH  14  15
HETATM   15  C   UNL     1      -9.520   7.298  66.924  1.00  0.00    -0.164 C  
HETATM   16  O   UNL     1     -10.030   8.159  65.902  1.00  0.00    -0.435 OA 
HETATM   17  H   UNL     1     -10.873   7.834  65.607  1.00  0.00     0.000 HD 
BRANCH  15  18
HETATM   18  C   UNL     1      -9.385   5.859  66.409  1.00  0.00    -0.157 C  
BRANCH  18  19
HETATM   19  O   UNL     1     -10.211   4.972  67.156  1.00  0.00    -0.197 OA 
BRANCH  19  20
HETATM   20  C   UNL     1      -9.555   4.136  68.028  1.00  0.00    -0.142 A  
HETATM   21  C   UNL     1      -8.685   3.101  67.639  1.00  0.00    -0.141 A  
HETATM   22  C   UNL     1      -8.030   2.311  68.578  1.00  0.00    -0.061 A  
HETATM   23  C   UNL     1      -8.212   2.518  69.945  1.00  0.00    -0.064 A  
HETATM   24  C   UNL     1      -9.085   3.544  70.328  1.00  0.00    -0.132 A  
HETATM   25  C   UNL     1      -9.763   4.351  69.412  1.00  0.00    -0.267 A  
HETATM   26  C   UNL     1     -10.570   5.264  70.170  1.00  0.00    -0.297 A  
HETATM   27  C   UNL     1     -11.477   6.290  69.826  1.00  0.00    -0.449 A  
HETATM   28  C   UNL     1     -12.114   7.019  70.836  1.00  0.00    -0.403 A  
HETATM   29  C   UNL     1     -11.860   6.738  72.176  1.00  0.00    -0.326 A  
HETATM   30  C   UNL     1     -10.970   5.724  72.545  1.00  0.00    -0.309 A  
HETATM   31  C   UNL     1     -10.346   5.004  71.518  1.00  0.00    -0.182 A  
HETATM   32  N   UNL     1      -9.451   3.967  71.585  1.00  0.00    -0.141 NA 
HETATM   33  H   UNL     1      -9.103   3.561  72.454  1.00  0.00     0.000 HD 
ENDBRANCH  19  20
ENDBRANCH  18  19
ENDBRANCH  15  18
ENDBRANCH  14  15
ENDBRANCH  12  14
ENDBRANCH  11  12
ENDBRANCH  10  11
ENDBRANCH   9  10
ENDBRANCH   8   9
ENDBRANCH   2   3
TORSDOF 10
ENDMDL
MODEL      260
REMARK 921   NORMALIZED FREE ENERGY PREDICTED BY IDOCK:   -4.21 KCAL/MOL
REMARK 922        TOTAL FREE ENERGY PREDICTED BY IDOCK:   -8.52 KCAL/MOL
REMARK 923 INTER-LIGAND FREE ENERGY PREDICTED BY IDOCK:   -7.66 KCAL/MOL
REMARK 924 INTRA-LIGAND FREE ENERGY PREDICTED BY IDOCK:   -0.87 KCAL/MOL
REMARK 927      BINDING AFFINITY PREDICTED BY RF-SCORE:    0.00 PKD
ROOT
HETATM    1  C   UNL     1      -7.246   6.094  69.313  1.00  0.00    -0.082 C  
HETATM    2  O   UNL     1      -7.950   4.984  68.759  1.00  0.00    -0.080 OA 
ENDROOT
BRANCH   2   3
HETATM    3  C   UNL     1      -8.090   4.977  67.394  1.00  0.00    -0.103 A  
HETATM    4  C   UNL     1      -6.978   4.836  66.547  1.00  0.00    -0.067 A  
HETATM    5  C   UNL     1      -7.134   4.778  65.162  1.00  0.00    -0.063 A  
HETATM    6  C   UNL     1      -8.399   4.888  64.602  1.00  0.00    -0.134 A  
HETATM    7  C   UNL     1      -9.505   5.079  65.429  1.00  0.00    -0.099 A  
HETATM    8  C   UNL     1      -9.368   5.137  66.824  1.00  0.00    -0.134 A  
BRANCH   8   9
HETATM    9  O   UNL     1     -10.577   5.327  67.451  1.00  0.00    -0.185 OA 
BRANCH   9  10
HETATM   10  C   UNL     1     -11.148   6.627  67.379  1.00  0.00    -0.320 C  
BRANCH  10  11
HETATM   11  C   UNL     1     -10.564   7.526  68.482  1.00  0.00    -0.136 C  
BRANCH  11  12
HETATM   12  N   UNL     1     -11.118   8.893  68.492  1.00  0.00    -0.442 NA 
HETATM   13  H   UNL     1     -10.871   9.384  69.352  1.00  0.00     0.000 HD 
BRANCH  12  14
HETATM   14  C   UNL     1     -10.717   9.670  67.299  1.00  0.00    -0.214 C  
BRANCH  14  15
HETATM   15  C   UNL     1      -9.399  10.444  67.518  1.00  0.00    -0.149 C  
HETATM   16  O   UNL     1      -8.388   9.914  66.654  1.00  0.00    -0.123 OA 
HETATM   17  H   UNL     1      -7.577  10.391  66.788  1.00  0.00     0.000 HD 
BRANCH  15  18
HETATM   18  C   UNL     1      -9.611  11.940  67.253  1.00  0.00    -0.177 C  
BRANCH  18  19
HETATM   19  O   UNL     1     -10.572  12.484  68.152  1.00  0.00    -0.212 OA 
BRANCH  19  20
HETATM   20  C   UNL     1     -10.749  13.846  68.086  1.00  0.00    -0.250 A  
HETATM   21  C   UNL     1     -10.177  14.678  67.106  1.00  0.00    -0.256 A  
HETATM   22  C   UNL     1     -10.424  16.047  67.082  1.00  0.00    -0.308 A  
HETATM   23  C   UNL     1     -11.252  16.646  68.031  1.00  0.00    -0.164 A  
HETATM   24  C   UNL     1     -11.812  15.815  69.009  1.00  0.00    -0.355 A  
HETATM   25  C   UNL     1     -11.581  14.440  69.067  1.00  0.00    -0.330 A  
HETATM   26  C   UNL     1     -12.297  13.938  70.204  1.00  0.00    -0.400 A  
HETATM   27  C   UNL     1     -12.439  12.661  70.789  1.00  0.00    -0.357 A  
HETATM   28  C   UNL     1     -13.240  12.504  71.926  1.00  0.00    -0.495 A  
HETATM   29  C   UNL     1     -13.896  13.599  72.482  1.00  0.00    -0.620 A  
HETATM   30  C   UNL     1     -13.770  14.876  71.927  1.00  0.00    -0.527 A  
HETATM   31  C   UNL     1     -12.960  15.011  70.791  1.00  0.00    -0.389 A  
HETATM   32  N   UNL     1     -12.651  16.127  70.055  1.00  0.00    -0.490 NA 
HETATM   33  H   UNL     1     -12.998  17.065  70.257  1.00  0.00     0.000 HD 
ENDBRANCH  19  20
ENDBRANCH  18  19
ENDBRANCH  15  18
ENDBRANCH  14  15
ENDBRANCH  12  14
ENDBRANCH  11  12
ENDBRANCH  10  11
ENDBRANCH   9  10
ENDBRANCH   8   9
ENDBRANCH   2   3
TORSDOF 10
ENDMDL
MODEL      261
REMARK 921   NORMALIZED FREE ENERGY PREDICTED BY IDOCK:   -4.19 KCAL/MOL
REMARK 922        TOTAL FREE ENERGY PREDICTED BY IDOCK:   -8.49 KCAL/MOL
REMARK 923 INTER-LIGAND FREE ENERGY PREDICTED BY IDOCK:   -7.13 KCAL/MOL
REMARK 924 INTRA-LIGAND FREE ENERGY PREDICTED BY IDOCK:   -1.35 KCAL/MOL
REMARK 927      BINDING AFFINITY PREDICTED BY RF-SCORE:    0.00 PKD
ROOT
HETATM    1  C   UNL     1     -11.845  14.081  68.935  1.00  0.00    -0.355 C  
HETATM    2  O   UNL     1     -11.309  12.793  69.230  1.00  0.00    -0.263 OA 
ENDROOT
BRANCH   2   3
HETATM    3  C   UNL     1     -10.950  12.024  68.151  1.00  0.00    -0.230 A  
HETATM    4  C   UNL     1     -11.351  12.364  66.848  1.00  0.00    -0.392 A  
HETATM    5  C   UNL     1     -10.940  11.606  65.751  1.00  0.00    -0.329 A  
HETATM    6  C   UNL     1     -10.148  10.483  65.943  1.00  0.00    -0.323 A  
HETATM    7  C   UNL     1      -9.786  10.106  67.235  1.00  0.00    -0.226 A  
HETATM    8  C   UNL     1     -10.187  10.857  68.350  1.00  0.00    -0.178 A  
BRANCH   8   9
HETATM    9  O   UNL     1      -9.724  10.317  69.527  1.00  0.00    -0.224 OA 
BRANCH   9  10
HETATM   10  C   UNL     1      -8.614   9.433  69.443  1.00  0.00    -0.148 C  
BRANCH  10  11
HETATM   11  C   UNL     1      -7.661   9.663  70.629  1.00  0.00    -0.068 C  
BRANCH  11  12
HETATM   12  N   UNL     1      -7.917   8.776  71.779  1.00  0.00    -0.300 NA 
HETATM   13  H   UNL     1      -8.789   8.260  71.660  1.00  0.00     0.000 HD 
BRANCH  12  14
HETATM   14  C   UNL     1      -6.786   7.859  72.043  1.00  0.00    -0.066 C  
BRANCH  14  15
HETATM   15  C   UNL     1      -7.190   6.375  71.910  1.00  0.00    -0.087 C  
HETATM   16  O   UNL     1      -6.020   5.584  71.676  1.00  0.00    -0.026 OA 
HETATM   17  H   UNL     1      -6.269   4.670  71.595  1.00  0.00     0.000 HD 
BRANCH  15  18
HETATM   18  C   UNL     1      -7.920   5.907  73.176  1.00  0.00    -0.110 C  
BRANCH  18  19
HETATM   19  O   UNL     1      -9.164   5.298  72.849  1.00  0.00    -0.132 OA 
BRANCH  19  20
HETATM   20  C   UNL     1     -10.135   6.143  72.366  1.00  0.00    -0.178 A  
HETATM   21  C   UNL     1     -10.819   7.098  73.140  1.00  0.00    -0.373 A  
HETATM   22  C   UNL     1     -11.771   7.942  72.578  1.00  0.00    -0.423 A  
HETATM   23  C   UNL     1     -12.082   7.872  71.221  1.00  0.00    -0.317 A  
HETATM   24  C   UNL     1     -11.406   6.914  70.455  1.00  0.00    -0.327 A  
HETATM   25  C   UNL     1     -10.450   6.048  70.988  1.00  0.00    -0.285 A  
HETATM   26  C   UNL     1      -9.998   5.206  69.917  1.00  0.00    -0.316 A  
HETATM   27  C   UNL     1      -9.074   4.142  69.828  1.00  0.00    -0.176 A  
HETATM   28  C   UNL     1      -8.853   3.518  68.595  1.00  0.00    -0.159 A  
HETATM   29  C   UNL     1      -9.537   3.941  67.458  1.00  0.00    -0.212 A  
HETATM   30  C   UNL     1     -10.461   4.989  67.519  1.00  0.00    -0.094 A  
HETATM   31  C   UNL     1     -10.671   5.597  68.764  1.00  0.00    -0.197 A  
HETATM   32  N   UNL     1     -11.510   6.623  69.114  1.00  0.00    -0.618 NA 
HETATM   33  H   UNL     1     -12.132   7.107  68.466  1.00  0.00     0.000 HD 
ENDBRANCH  19  20
ENDBRANCH  18  19
ENDBRANCH  15  18
ENDBRANCH  14  15
ENDBRANCH  12  14
ENDBRANCH  11  12
ENDBRANCH  10  11
ENDBRANCH   9  10
ENDBRANCH   8   9
ENDBRANCH   2   3
TORSDOF 10
ENDMDL
MODEL      262
REMARK 921   NORMALIZED FREE ENERGY PREDICTED BY IDOCK:   -4.18 KCAL/MOL
REMARK 922        TOTAL FREE ENERGY PREDICTED BY IDOCK:   -8.47 KCAL/MOL
REMARK 923 INTER-LIGAND FREE ENERGY PREDICTED BY IDOCK:   -7.07 KCAL/MOL
REMARK 924 INTRA-LIGAND FREE ENERGY PREDICTED BY IDOCK:   -1.40 KCAL/MOL
REMARK 927      BINDING AFFINITY PREDICTED BY RF-SCORE:    0.00 PKD
ROOT
HETATM    1  C   UNL     1     -11.842  15.509  69.010  1.00  0.00    -0.354 C  
HETATM    2  O   UNL     1     -11.782  14.094  69.171  1.00  0.00    -0.283 OA 
ENDROOT
BRANCH   2   3
HETATM    3  C   UNL     1     -11.354  13.378  68.082  1.00  0.00    -0.287 A  
HETATM    4  C   UNL     1     -10.654  13.995  67.032  1.00  0.00    -0.279 A  
HETATM    5  C   UNL     1     -10.178  13.252  65.953  1.00  0.00    -0.295 A  
HETATM    6  C   UNL     1     -10.418  11.886  65.892  1.00  0.00    -0.296 A  
HETATM    7  C   UNL     1     -11.156  11.271  66.901  1.00  0.00    -0.339 A  
HETATM    8  C   UNL     1     -11.641  12.001  67.997  1.00  0.00    -0.342 A  
BRANCH   8   9
HETATM    9  O   UNL     1     -12.338  11.207  68.876  1.00  0.00    -0.512 OA 
BRANCH   9  10
HETATM   10  C   UNL     1     -11.859  11.142  70.213  1.00  0.00    -0.366 C  
BRANCH  10  11
HETATM   11  C   UNL     1     -10.888   9.960  70.373  1.00  0.00    -0.319 C  
BRANCH  11  12
HETATM   12  N   UNL     1     -11.378   8.702  69.779  1.00  0.00    -0.446 NA 
HETATM   13  H   UNL     1     -10.739   8.360  69.062  1.00  0.00     0.000 HD 
BRANCH  12  14
HETATM   14  C   UNL     1     -11.640   7.665  70.800  1.00  0.00    -0.265 C  
BRANCH  14  15
HETATM   15  C   UNL     1     -10.350   6.950  71.258  1.00  0.00    -0.203 C  
HETATM   16  O   UNL     1     -10.690   5.703  71.871  1.00  0.00    -0.228 OA 
HETATM   17  H   UNL     1      -9.895   5.263  72.153  1.00  0.00     0.000 HD 
BRANCH  15  18
HETATM   18  C   UNL     1      -9.411   6.733  70.065  1.00  0.00    -0.158 C  
BRANCH  18  19
HETATM   19  O   UNL     1     -10.135   6.294  68.921  1.00  0.00    -0.151 OA 
BRANCH  19  20
HETATM   20  C   UNL     1      -9.623   5.195  68.274  1.00  0.00    -0.135 A  
HETATM   21  C   UNL     1      -9.640   3.886  68.790  1.00  0.00    -0.187 A  
HETATM   22  C   UNL     1      -9.129   2.813  68.066  1.00  0.00    -0.228 A  
HETATM   23  C   UNL     1      -8.580   2.998  66.798  1.00  0.00    -0.117 A  
HETATM   24  C   UNL     1      -8.556   4.303  66.292  1.00  0.00    -0.113 A  
HETATM   25  C   UNL     1      -9.055   5.403  66.993  1.00  0.00    -0.112 A  
HETATM   26  C   UNL     1      -8.840   6.561  66.173  1.00  0.00    -0.160 A  
HETATM   27  C   UNL     1      -9.101   7.939  66.333  1.00  0.00    -0.221 A  
HETATM   28  C   UNL     1      -8.764   8.831  65.310  1.00  0.00    -0.216 A  
HETATM   29  C   UNL     1      -8.173   8.368  64.136  1.00  0.00    -0.122 A  
HETATM   30  C   UNL     1      -7.899   7.009  63.953  1.00  0.00    -0.106 A  
HETATM   31  C   UNL     1      -8.240   6.134  64.992  1.00  0.00    -0.132 A  
HETATM   32  N   UNL     1      -8.080   4.775  65.090  1.00  0.00    -0.103 NA 
HETATM   33  H   UNL     1      -7.663   4.190  64.365  1.00  0.00     0.000 HD 
ENDBRANCH  19  20
ENDBRANCH  18  19
ENDBRANCH  15  18
ENDBRANCH  14  15
ENDBRANCH  12  14
ENDBRANCH  11  12
ENDBRANCH  10  11
ENDBRANCH   9  10
ENDBRANCH   8   9
ENDBRANCH   2   3
TORSDOF 10
ENDMDL
MODEL      263
REMARK 921   NORMALIZED FREE ENERGY PREDICTED BY IDOCK:   -4.17 KCAL/MOL
REMARK 922        TOTAL FREE ENERGY PREDICTED BY IDOCK:   -8.46 KCAL/MOL
REMARK 923 INTER-LIGAND FREE ENERGY PREDICTED BY IDOCK:   -6.74 KCAL/MOL
REMARK 924 INTRA-LIGAND FREE ENERGY PREDICTED BY IDOCK:   -1.72 KCAL/MOL
REMARK 927      BINDING AFFINITY PREDICTED BY RF-SCORE:    0.00 PKD
ROOT
HETATM    1  C   UNL     1      -8.151  16.030  67.346  1.00  0.00    -0.164 C  
HETATM    2  O   UNL     1      -8.427  15.153  66.256  1.00  0.00    -0.125 OA 
ENDROOT
BRANCH   2   3
HETATM    3  C   UNL     1      -9.702  14.652  66.189  1.00  0.00    -0.319 A  
HETATM    4  C   UNL     1     -10.782  15.457  65.788  1.00  0.00    -0.360 A  
HETATM    5  C   UNL     1     -12.067  14.928  65.673  1.00  0.00    -0.008 A  
HETATM    6  C   UNL     1     -12.298  13.595  65.984  1.00  0.00    -0.493 A  
HETATM    7  C   UNL     1     -11.245  12.799  66.432  1.00  0.00    -0.339 A  
HETATM    8  C   UNL     1      -9.945  13.312  66.551  1.00  0.00    -0.280 A  
BRANCH   8   9
HETATM    9  O   UNL     1      -9.058  12.366  67.006  1.00  0.00    -0.194 OA 
BRANCH   9  10
HETATM   10  C   UNL     1      -8.607  12.490  68.349  1.00  0.00    -0.123 C  
BRANCH  10  11
HETATM   11  C   UNL     1      -7.291  11.717  68.541  1.00  0.00    -0.103 C  
BRANCH  11  12
HETATM   12  N   UNL     1      -7.442  10.253  68.456  1.00  0.00    -0.082 NA 
HETATM   13  H   UNL     1      -8.426   9.985  68.424  1.00  0.00     0.000 HD 
BRANCH  12  14
HETATM   14  C   UNL     1      -6.695   9.676  67.317  1.00  0.00    -0.071 C  
BRANCH  14  15
HETATM   15  C   UNL     1      -7.612   9.348  66.118  1.00  0.00    -0.096 C  
HETATM   16  O   UNL     1      -6.813   9.159  64.947  1.00  0.00    -0.079 OA 
HETATM   17  H   UNL     1      -7.377   8.957  64.209  1.00  0.00     0.000 HD 
BRANCH  15  18
HETATM   18  C   UNL     1      -8.447   8.096  66.415  1.00  0.00    -0.130 C  
BRANCH  18  19
HETATM   19  O   UNL     1      -9.488   8.387  67.341  1.00  0.00    -0.140 OA 
BRANCH  19  20
HETATM   20  C   UNL     1      -9.788   7.389  68.239  1.00  0.00    -0.160 A  
HETATM   21  C   UNL     1      -9.351   6.057  68.124  1.00  0.00    -0.115 A  
HETATM   22  C   UNL     1      -9.667   5.104  69.087  1.00  0.00    -0.232 A  
HETATM   23  C   UNL     1     -10.431   5.437  70.205  1.00  0.00    -0.361 A  
HETATM   24  C   UNL     1     -10.872   6.762  70.310  1.00  0.00    -0.270 A  
HETATM   25  C   UNL     1     -10.578   7.741  69.360  1.00  0.00    -0.211 A  
HETATM   26  C   UNL     1     -11.210   8.955  69.794  1.00  0.00    -0.018 A  
HETATM   27  C   UNL     1     -11.297  10.260  69.263  1.00  0.00    -0.253 A  
HETATM   28  C   UNL     1     -12.007  11.245  69.959  1.00  0.00    -0.447 A  
HETATM   29  C   UNL     1     -12.627  10.945  71.170  1.00  0.00    -0.532 A  
HETATM   30  C   UNL     1     -12.561   9.659  71.716  1.00  0.00    -0.497 A  
HETATM   31  C   UNL     1     -11.848   8.687  71.001  1.00  0.00    -0.265 A  
HETATM   32  N   UNL     1     -11.631   7.364  71.288  1.00  0.00    -0.271 NA 
HETATM   33  H   UNL     1     -11.985   6.887  72.117  1.00  0.00     0.000 HD 
ENDBRANCH  19  20
ENDBRANCH  18  19
ENDBRANCH  15  18
ENDBRANCH  14  15
ENDBRANCH  12  14
ENDBRANCH  11  12
ENDBRANCH  10  11
ENDBRANCH   9  10
ENDBRANCH   8   9
ENDBRANCH   2   3
TORSDOF 10
ENDMDL
MODEL      264
REMARK 921   NORMALIZED FREE ENERGY PREDICTED BY IDOCK:   -4.17 KCAL/MOL
REMARK 922        TOTAL FREE ENERGY PREDICTED BY IDOCK:   -8.45 KCAL/MOL
REMARK 923 INTER-LIGAND FREE ENERGY PREDICTED BY IDOCK:   -7.51 KCAL/MOL
REMARK 924 INTRA-LIGAND FREE ENERGY PREDICTED BY IDOCK:   -0.94 KCAL/MOL
REMARK 927      BINDING AFFINITY PREDICTED BY RF-SCORE:    0.00 PKD
ROOT
HETATM    1  C   UNL     1     -11.486   7.525  71.119  1.00  0.00    -0.273 C  
HETATM    2  O   UNL     1     -11.034   6.196  71.369  1.00  0.00    -0.257 OA 
ENDROOT
BRANCH   2   3
HETATM    3  C   UNL     1      -9.790   5.878  70.887  1.00  0.00    -0.179 A  
HETATM    4  C   UNL     1      -8.645   5.988  71.694  1.00  0.00    -0.131 A  
HETATM    5  C   UNL     1      -7.390   5.615  71.214  1.00  0.00    -0.085 A  
HETATM    6  C   UNL     1      -7.256   5.153  69.912  1.00  0.00    -0.059 A  
HETATM    7  C   UNL     1      -8.375   5.087  69.085  1.00  0.00    -0.086 A  
HETATM    8  C   UNL     1      -9.646   5.456  69.551  1.00  0.00    -0.149 A  
BRANCH   8   9
HETATM    9  O   UNL     1     -10.610   5.315  68.581  1.00  0.00    -0.142 OA 
BRANCH   9  10
HETATM   10  C   UNL     1     -10.296   5.791  67.278  1.00  0.00    -0.230 C  
BRANCH  10  11
HETATM   11  C   UNL     1     -10.874   7.202  67.075  1.00  0.00    -0.312 C  
BRANCH  11  12
HETATM   12  N   UNL     1      -9.869   8.276  67.166  1.00  0.00    -0.195 NA 
HETATM   13  H   UNL     1      -9.693   8.695  66.253  1.00  0.00     0.000 HD 
BRANCH  12  14
HETATM   14  C   UNL     1     -10.236   9.305  68.164  1.00  0.00    -0.205 C  
BRANCH  14  15
HETATM   15  C   UNL     1     -10.382  10.708  67.535  1.00  0.00    -0.214 C  
HETATM   16  O   UNL     1     -11.574  10.753  66.745  1.00  0.00    -0.178 OA 
HETATM   17  H   UNL     1     -11.664  11.617  66.358  1.00  0.00     0.000 HD 
BRANCH  15  18
HETATM   18  C   UNL     1     -10.413  11.781  68.631  1.00  0.00    -0.222 C  
BRANCH  18  19
HETATM   19  O   UNL     1     -11.561  12.612  68.495  1.00  0.00    -0.278 OA 
BRANCH  19  20
HETATM   20  C   UNL     1     -11.898  13.351  69.604  1.00  0.00    -0.331 A  
HETATM   21  C   UNL     1     -12.585  12.843  70.722  1.00  0.00    -0.314 A  
HETATM   22  C   UNL     1     -12.869  13.642  71.825  1.00  0.00    -0.407 A  
HETATM   23  C   UNL     1     -12.480  14.980  71.863  1.00  0.00    -0.409 A  
HETATM   24  C   UNL     1     -11.805  15.484  70.745  1.00  0.00    -0.367 A  
HETATM   25  C   UNL     1     -11.509  14.713  69.620  1.00  0.00    -0.329 A  
HETATM   26  C   UNL     1     -10.838  15.569  68.684  1.00  0.00    -0.267 A  
HETATM   27  C   UNL     1     -10.318  15.386  67.384  1.00  0.00    -0.262 A  
HETATM   28  C   UNL     1      -9.700  16.456  66.728  1.00  0.00    -0.263 A  
HETATM   29  C   UNL     1      -9.594  17.698  67.349  1.00  0.00    -0.267 A  
HETATM   30  C   UNL     1     -10.104  17.909  68.634  1.00  0.00    -0.394 A  
HETATM   31  C   UNL     1     -10.724  16.825  69.271  1.00  0.00    -0.324 A  
HETATM   32  N   UNL     1     -11.313  16.748  70.507  1.00  0.00    -0.378 NA 
HETATM   33  H   UNL     1     -11.378  17.525  71.165  1.00  0.00     0.000 HD 
ENDBRANCH  19  20
ENDBRANCH  18  19
ENDBRANCH  15  18
ENDBRANCH  14  15
ENDBRANCH  12  14
ENDBRANCH  11  12
ENDBRANCH  10  11
ENDBRANCH   9  10
ENDBRANCH   8   9
ENDBRANCH   2   3
TORSDOF 10
ENDMDL
MODEL      265
REMARK 921   NORMALIZED FREE ENERGY PREDICTED BY IDOCK:   -4.16 KCAL/MOL
REMARK 922        TOTAL FREE ENERGY PREDICTED BY IDOCK:   -8.44 KCAL/MOL
REMARK 923 INTER-LIGAND FREE ENERGY PREDICTED BY IDOCK:   -7.04 KCAL/MOL
REMARK 924 INTRA-LIGAND FREE ENERGY PREDICTED BY IDOCK:   -1.41 KCAL/MOL
REMARK 927      BINDING AFFINITY PREDICTED BY RF-SCORE:    0.00 PKD
ROOT
HETATM    1  C   UNL     1      -6.125   9.228  66.701  1.00  0.00    -0.064 C  
HETATM    2  O   UNL     1      -7.304   9.445  67.473  1.00  0.00    -0.083 OA 
ENDROOT
BRANCH   2   3
HETATM    3  C   UNL     1      -7.300   8.929  68.744  1.00  0.00    -0.076 A  
HETATM    4  C   UNL     1      -6.236   8.136  69.206  1.00  0.00    -0.038 A  
HETATM    5  C   UNL     1      -6.214   7.657  70.515  1.00  0.00    -0.037 A  
HETATM    6  C   UNL     1      -7.269   7.938  71.374  1.00  0.00    -0.065 A  
HETATM    7  C   UNL     1      -8.354   8.680  70.912  1.00  0.00    -0.182 A  
HETATM    8  C   UNL     1      -8.392   9.174  69.599  1.00  0.00    -0.130 A  
BRANCH   8   9
HETATM    9  O   UNL     1      -9.545   9.879  69.348  1.00  0.00    -0.189 OA 
BRANCH   9  10
HETATM   10  C   UNL     1     -10.672   9.141  68.893  1.00  0.00    -0.141 C  
BRANCH  10  11
HETATM   11  C   UNL     1     -10.873   9.356  67.383  1.00  0.00    -0.119 C  
BRANCH  11  12
HETATM   12  N   UNL     1      -9.919  10.307  66.785  1.00  0.00    -0.200 NA 
HETATM   13  H   UNL     1      -8.974  10.152  67.136  1.00  0.00     0.000 HD 
BRANCH  12  14
HETATM   14  C   UNL     1      -9.950  10.279  65.306  1.00  0.00    -0.317 C  
BRANCH  14  15
HETATM   15  C   UNL     1     -10.437  11.615  64.703  1.00  0.00    -0.302 C  
HETATM   16  O   UNL     1     -11.455  11.354  63.732  1.00  0.00    -0.507 OA 
HETATM   17  H   UNL     1     -11.755  12.176  63.361  1.00  0.00     0.000 HD 
BRANCH  15  18
HETATM   18  C   UNL     1     -10.962  12.537  65.809  1.00  0.00    -0.292 C  
BRANCH  18  19
HETATM   19  O   UNL     1      -9.910  12.934  66.683  1.00  0.00    -0.237 OA 
BRANCH  19  20
HETATM   20  C   UNL     1      -9.751  14.289  66.851  1.00  0.00    -0.264 A  
HETATM   21  C   UNL     1      -9.041  15.124  65.969  1.00  0.00    -0.196 A  
HETATM   22  C   UNL     1      -8.945  16.495  66.186  1.00  0.00    -0.344 A  
HETATM   23  C   UNL     1      -9.553  17.093  67.288  1.00  0.00    -0.245 A  
HETATM   24  C   UNL     1     -10.252  16.257  68.169  1.00  0.00    -0.258 A  
HETATM   25  C   UNL     1     -10.363  14.878  67.985  1.00  0.00    -0.244 A  
HETATM   26  C   UNL     1     -11.124  14.364  69.087  1.00  0.00    -0.290 A  
HETATM   27  C   UNL     1     -11.547  13.073  69.471  1.00  0.00    -0.342 A  
HETATM   28  C   UNL     1     -12.305  12.910  70.636  1.00  0.00    -0.385 A  
HETATM   29  C   UNL     1     -12.644  14.012  71.417  1.00  0.00    -0.451 A  
HETATM   30  C   UNL     1     -12.235  15.301  71.063  1.00  0.00    -0.407 A  
HETATM   31  C   UNL     1     -11.473  15.442  69.895  1.00  0.00    -0.312 A  
HETATM   32  N   UNL     1     -10.936  16.566  69.322  1.00  0.00    -0.318 NA 
HETATM   33  H   UNL     1     -11.032  17.509  69.701  1.00  0.00     0.000 HD 
ENDBRANCH  19  20
ENDBRANCH  18  19
ENDBRANCH  15  18
ENDBRANCH  14  15
ENDBRANCH  12  14
ENDBRANCH  11  12
ENDBRANCH  10  11
ENDBRANCH   9  10
ENDBRANCH   8   9
ENDBRANCH   2   3
TORSDOF 10
ENDMDL
MODEL      266
REMARK 921   NORMALIZED FREE ENERGY PREDICTED BY IDOCK:   -4.16 KCAL/MOL
REMARK 922        TOTAL FREE ENERGY PREDICTED BY IDOCK:   -8.44 KCAL/MOL
REMARK 923 INTER-LIGAND FREE ENERGY PREDICTED BY IDOCK:   -7.66 KCAL/MOL
REMARK 924 INTRA-LIGAND FREE ENERGY PREDICTED BY IDOCK:   -0.78 KCAL/MOL
REMARK 927      BINDING AFFINITY PREDICTED BY RF-SCORE:    0.00 PKD
ROOT
HETATM    1  C   UNL     1      -5.434  19.984  70.392  1.00  0.00    -0.265 C  
HETATM    2  O   UNL     1      -6.672  20.143  69.704  1.00  0.00    -0.299 OA 
ENDROOT
BRANCH   2   3
HETATM    3  C   UNL     1      -6.613  20.111  68.334  1.00  0.00    -0.302 A  
HETATM    4  C   UNL     1      -6.144  21.212  67.598  1.00  0.00    -0.425 A  
HETATM    5  C   UNL     1      -6.038  21.155  66.209  1.00  0.00    -0.327 A  
HETATM    6  C   UNL     1      -6.426  20.007  65.531  1.00  0.00    -0.281 A  
HETATM    7  C   UNL     1      -6.941  18.926  66.245  1.00  0.00    -0.258 A  
HETATM    8  C   UNL     1      -7.052  18.964  67.643  1.00  0.00    -0.215 A  
BRANCH   8   9
HETATM    9  O   UNL     1      -7.580  17.800  68.149  1.00  0.00    -0.232 OA 
BRANCH   9  10
HETATM   10  C   UNL     1      -6.665  16.771  68.503  1.00  0.00    -0.161 C  
BRANCH  10  11
HETATM   11  C   UNL     1      -7.160  15.414  67.974  1.00  0.00    -0.125 C  
BRANCH  11  12
HETATM   12  N   UNL     1      -7.307  14.385  69.020  1.00  0.00    -0.128 NA 
HETATM   13  H   UNL     1      -7.730  14.774  69.863  1.00  0.00     0.000 HD 
BRANCH  12  14
HETATM   14  C   UNL     1      -8.056  13.203  68.543  1.00  0.00    -0.087 C  
BRANCH  14  15
HETATM   15  C   UNL     1      -7.994  13.047  67.007  1.00  0.00    -0.004 C  
HETATM   16  O   UNL     1      -6.860  12.248  66.657  1.00  0.00    -0.363 OA 
HETATM   17  H   UNL     1      -6.822  12.151  65.712  1.00  0.00     0.000 HD 
BRANCH  15  18
HETATM   18  C   UNL     1      -9.289  12.414  66.484  1.00  0.00    -0.233 C  
BRANCH  18  19
HETATM   19  O   UNL     1     -10.104  11.959  67.560  1.00  0.00    -0.191 OA 
BRANCH  19  20
HETATM   20  C   UNL     1     -10.169  10.596  67.727  1.00  0.00    -0.180 A  
HETATM   21  C   UNL     1      -9.524   9.660  66.898  1.00  0.00    -0.198 A  
HETATM   22  C   UNL     1      -9.609   8.293  67.143  1.00  0.00    -0.234 A  
HETATM   23  C   UNL     1     -10.338   7.800  68.224  1.00  0.00    -0.239 A  
HETATM   24  C   UNL     1     -10.986   8.735  69.041  1.00  0.00     0.074 A  
HETATM   25  C   UNL     1     -10.926  10.112  68.821  1.00  0.00    -0.264 A  
HETATM   26  C   UNL     1     -11.721  10.738  69.839  1.00  0.00    -0.412 A  
HETATM   27  C   UNL     1     -12.062  12.076  70.134  1.00  0.00    -0.377 A  
HETATM   28  C   UNL     1     -12.876  12.357  71.236  1.00  0.00    -0.337 A  
HETATM   29  C   UNL     1     -13.352  11.325  72.043  1.00  0.00    -0.386 A  
HETATM   30  C   UNL     1     -13.034   9.991  71.771  1.00  0.00    -0.560 A  
HETATM   31  C   UNL     1     -12.220   9.732  70.660  1.00  0.00    -0.202 A  
HETATM   32  N   UNL     1     -11.765   8.539  70.159  1.00  0.00    -0.455 NA 
HETATM   33  H   UNL     1     -11.976   7.626  70.562  1.00  0.00     0.000 HD 
ENDBRANCH  19  20
ENDBRANCH  18  19
ENDBRANCH  15  18
ENDBRANCH  14  15
ENDBRANCH  12  14
ENDBRANCH  11  12
ENDBRANCH  10  11
ENDBRANCH   9  10
ENDBRANCH   8   9
ENDBRANCH   2   3
TORSDOF 10
ENDMDL
MODEL      267
REMARK 921   NORMALIZED FREE ENERGY PREDICTED BY IDOCK:   -4.16 KCAL/MOL
REMARK 922        TOTAL FREE ENERGY PREDICTED BY IDOCK:   -8.43 KCAL/MOL
REMARK 923 INTER-LIGAND FREE ENERGY PREDICTED BY IDOCK:   -7.02 KCAL/MOL
REMARK 924 INTRA-LIGAND FREE ENERGY PREDICTED BY IDOCK:   -1.41 KCAL/MOL
REMARK 927      BINDING AFFINITY PREDICTED BY RF-SCORE:    0.00 PKD
ROOT
HETATM    1  C   UNL     1      -9.391  19.191  67.151  1.00  0.00    -0.310 C  
HETATM    2  O   UNL     1      -9.425  18.300  68.264  1.00  0.00    -0.286 OA 
ENDROOT
BRANCH   2   3
HETATM    3  C   UNL     1      -8.268  17.611  68.524  1.00  0.00    -0.292 A  
HETATM    4  C   UNL     1      -7.147  18.251  69.080  1.00  0.00    -0.200 A  
HETATM    5  C   UNL     1      -5.992  17.534  69.390  1.00  0.00    -0.234 A  
HETATM    6  C   UNL     1      -5.928  16.173  69.122  1.00  0.00    -0.134 A  
HETATM    7  C   UNL     1      -7.014  15.537  68.524  1.00  0.00    -0.114 A  
HETATM    8  C   UNL     1      -8.186  16.241  68.208  1.00  0.00    -0.173 A  
BRANCH   8   9
HETATM    9  O   UNL     1      -9.132  15.429  67.628  1.00  0.00    -0.180 OA 
BRANCH   9  10
HETATM   10  C   UNL     1      -9.196  15.417  66.208  1.00  0.00    -0.319 C  
BRANCH  10  11
HETATM   11  C   UNL     1     -10.637  15.678  65.738  1.00  0.00    -0.361 C  
BRANCH  11  12
HETATM   12  N   UNL     1     -11.055  14.836  64.603  1.00  0.00    -0.578 NA 
HETATM   13  H   UNL     1     -10.740  15.229  63.716  1.00  0.00     0.000 HD 
BRANCH  12  14
HETATM   14  C   UNL     1     -10.611  13.432  64.751  1.00  0.00    -0.405 C  
BRANCH  14  15
HETATM   15  C   UNL     1     -11.461  12.653  65.778  1.00  0.00    -0.358 C  
HETATM   16  O   UNL     1     -12.749  12.380  65.218  1.00  0.00    -0.617 OA 
HETATM   17  H   UNL     1     -13.272  11.900  65.850  1.00  0.00     0.000 HD 
BRANCH  15  18
HETATM   18  C   UNL     1     -10.753  11.351  66.175  1.00  0.00    -0.267 C  
BRANCH  18  19
HETATM   19  O   UNL     1     -10.437  11.347  67.563  1.00  0.00    -0.190 OA 
BRANCH  19  20
HETATM   20  C   UNL     1      -9.097  11.322  67.872  1.00  0.00    -0.150 A  
HETATM   21  C   UNL     1      -8.128  12.153  67.281  1.00  0.00    -0.176 A  
HETATM   22  C   UNL     1      -6.791  12.094  67.664  1.00  0.00    -0.119 A  
HETATM   23  C   UNL     1      -6.364  11.208  68.651  1.00  0.00    -0.044 A  
HETATM   24  C   UNL     1      -7.331  10.376  69.229  1.00  0.00    -0.106 A  
HETATM   25  C   UNL     1      -8.678  10.405  68.865  1.00  0.00    -0.157 A  
HETATM   26  C   UNL     1      -9.349   9.408  69.650  1.00  0.00    -0.199 A  
HETATM   27  C   UNL     1     -10.683   8.952  69.726  1.00  0.00    -0.230 A  
HETATM   28  C   UNL     1     -11.019   7.938  70.629  1.00  0.00    -0.248 A  
HETATM   29  C   UNL     1     -10.047   7.378  71.454  1.00  0.00    -0.196 A  
HETATM   30  C   UNL     1      -8.717   7.807  71.398  1.00  0.00    -0.142 A  
HETATM   31  C   UNL     1      -8.401   8.820  70.482  1.00  0.00    -0.148 A  
HETATM   32  N   UNL     1      -7.198   9.419  70.209  1.00  0.00    -0.088 NA 
HETATM   33  H   UNL     1      -6.319   9.185  70.672  1.00  0.00     0.000 HD 
ENDBRANCH  19  20
ENDBRANCH  18  19
ENDBRANCH  15  18
ENDBRANCH  14  15
ENDBRANCH  12  14
ENDBRANCH  11  12
ENDBRANCH  10  11
ENDBRANCH   9  10
ENDBRANCH   8   9
ENDBRANCH   2   3
TORSDOF 10
ENDMDL
MODEL      268
REMARK 921   NORMALIZED FREE ENERGY PREDICTED BY IDOCK:   -4.14 KCAL/MOL
REMARK 922        TOTAL FREE ENERGY PREDICTED BY IDOCK:   -8.41 KCAL/MOL
REMARK 923 INTER-LIGAND FREE ENERGY PREDICTED BY IDOCK:   -6.99 KCAL/MOL
REMARK 924 INTRA-LIGAND FREE ENERGY PREDICTED BY IDOCK:   -1.41 KCAL/MOL
REMARK 927      BINDING AFFINITY PREDICTED BY RF-SCORE:    0.00 PKD
ROOT
HETATM    1  C   UNL     1      -8.456   9.260  70.619  1.00  0.00    -0.217 C  
HETATM    2  O   UNL     1      -9.139   9.120  71.863  1.00  0.00    -0.354 OA 
ENDROOT
BRANCH   2   3
HETATM    3  C   UNL     1     -10.222   8.278  71.868  1.00  0.00    -0.245 A  
HETATM    4  C   UNL     1     -10.061   6.883  71.932  1.00  0.00    -0.198 A  
HETATM    5  C   UNL     1     -11.167   6.035  71.989  1.00  0.00    -0.341 A  
HETATM    6  C   UNL     1     -12.449   6.566  71.954  1.00  0.00    -0.291 A  
HETATM    7  C   UNL     1     -12.622   7.944  71.839  1.00  0.00    -0.348 A  
HETATM    8  C   UNL     1     -11.522   8.813  71.784  1.00  0.00    -0.342 A  
BRANCH   8   9
HETATM    9  O   UNL     1     -11.910  10.127  71.674  1.00  0.00    -0.333 OA 
BRANCH   9  10
HETATM   10  C   UNL     1     -12.658  10.490  70.521  1.00  0.00    -0.339 C  
BRANCH  10  11
HETATM   11  C   UNL     1     -11.723  11.045  69.433  1.00  0.00    -0.323 C  
BRANCH  11  12
HETATM   12  N   UNL     1     -11.374  10.064  68.390  1.00  0.00    -0.521 NA 
HETATM   13  H   UNL     1     -11.999   9.259  68.417  1.00  0.00     0.000 HD 
BRANCH  12  14
HETATM   14  C   UNL     1     -11.339  10.668  67.040  1.00  0.00     0.107 C  
BRANCH  14  15
HETATM   15  C   UNL     1     -10.100  10.227  66.231  1.00  0.00    -0.236 C  
HETATM   16  O   UNL     1     -10.169  10.786  64.915  1.00  0.00    -0.295 OA 
HETATM   17  H   UNL     1      -9.406  10.515  64.417  1.00  0.00     0.000 HD 
BRANCH  15  18
HETATM   18  C   UNL     1      -8.815  10.668  66.943  1.00  0.00    -0.138 C  
BRANCH  18  19
HETATM   19  O   UNL     1      -8.402  11.955  66.496  1.00  0.00    -0.155 OA 
BRANCH  19  20
HETATM   20  C   UNL     1      -7.437  12.571  67.258  1.00  0.00    -0.125 A  
HETATM   21  C   UNL     1      -6.080  12.198  67.281  1.00  0.00    -0.153 A  
HETATM   22  C   UNL     1      -5.151  12.887  68.054  1.00  0.00    -0.093 A  
HETATM   23  C   UNL     1      -5.532  13.976  68.837  1.00  0.00    -0.082 A  
HETATM   24  C   UNL     1      -6.885  14.338  68.818  1.00  0.00    -0.099 A  
HETATM   25  C   UNL     1      -7.844  13.666  68.059  1.00  0.00    -0.150 A  
HETATM   26  C   UNL     1      -9.105  14.303  68.310  1.00  0.00    -0.188 A  
HETATM   27  C   UNL     1     -10.426  14.077  67.865  1.00  0.00    -0.241 A  
HETATM   28  C   UNL     1     -11.459  14.909  68.308  1.00  0.00    -0.343 A  
HETATM   29  C   UNL     1     -11.192  15.958  69.185  1.00  0.00    -0.334 A  
HETATM   30  C   UNL     1      -9.895  16.203  69.646  1.00  0.00    -0.150 A  
HETATM   31  C   UNL     1      -8.876  15.354  69.193  1.00  0.00    -0.249 A  
HETATM   32  N   UNL     1      -7.535  15.353  69.483  1.00  0.00    -0.217 NA 
HETATM   33  H   UNL     1      -7.080  16.016  70.109  1.00  0.00     0.000 HD 
ENDBRANCH  19  20
ENDBRANCH  18  19
ENDBRANCH  15  18
ENDBRANCH  14  15
ENDBRANCH  12  14
ENDBRANCH  11  12
ENDBRANCH  10  11
ENDBRANCH   9  10
ENDBRANCH   8   9
ENDBRANCH   2   3
TORSDOF 10
ENDMDL
MODEL      269
REMARK 921   NORMALIZED FREE ENERGY PREDICTED BY IDOCK:   -4.14 KCAL/MOL
REMARK 922        TOTAL FREE ENERGY PREDICTED BY IDOCK:   -8.41 KCAL/MOL
REMARK 923 INTER-LIGAND FREE ENERGY PREDICTED BY IDOCK:   -7.72 KCAL/MOL
REMARK 924 INTRA-LIGAND FREE ENERGY PREDICTED BY IDOCK:   -0.68 KCAL/MOL
REMARK 927      BINDING AFFINITY PREDICTED BY RF-SCORE:    0.00 PKD
ROOT
HETATM    1  C   UNL     1      -7.765  13.802  68.059  1.00  0.00    -0.152 C  
HETATM    2  O   UNL     1      -8.348  14.125  66.798  1.00  0.00    -0.104 OA 
ENDROOT
BRANCH   2   3
HETATM    3  C   UNL     1      -9.660  13.762  66.627  1.00  0.00    -0.288 A  
HETATM    4  C   UNL     1     -10.701  14.475  67.244  1.00  0.00    -0.287 A  
HETATM    5  C   UNL     1     -12.035  14.131  67.025  1.00  0.00    -0.471 A  
HETATM    6  C   UNL     1     -12.347  13.053  66.208  1.00  0.00    -0.278 A  
HETATM    7  C   UNL     1     -11.322  12.306  65.631  1.00  0.00    -0.394 A  
HETATM    8  C   UNL     1      -9.975  12.638  65.838  1.00  0.00    -0.264 A  
BRANCH   8   9
HETATM    9  O   UNL     1      -9.127  11.779  65.180  1.00  0.00    -0.017 OA 
BRANCH   9  10
HETATM   10  C   UNL     1      -9.602  10.463  64.928  1.00  0.00    -0.289 C  
BRANCH  10  11
HETATM   11  C   UNL     1      -9.006   9.478  65.948  1.00  0.00    -0.173 C  
BRANCH  11  12
HETATM   12  N   UNL     1      -9.612   8.135  65.903  1.00  0.00    -0.446 NA 
HETATM   13  H   UNL     1      -8.904   7.415  65.760  1.00  0.00     0.000 HD 
BRANCH  12  14
HETATM   14  C   UNL     1     -10.430   7.848  67.102  1.00  0.00    -0.344 C  
BRANCH  14  15
HETATM   15  C   UNL     1     -10.793   6.352  67.222  1.00  0.00    -0.385 C  
HETATM   16  O   UNL     1     -10.276   5.646  66.090  1.00  0.00    -0.362 OA 
HETATM   17  H   UNL     1     -10.499   4.725  66.163  1.00  0.00     0.000 HD 
BRANCH  15  18
HETATM   18  C   UNL     1     -10.233   5.772  68.527  1.00  0.00    -0.192 C  
BRANCH  18  19
HETATM   19  O   UNL     1     -11.264   5.616  69.497  1.00  0.00    -0.249 OA 
BRANCH  19  20
HETATM   20  C   UNL     1     -11.252   6.518  70.534  1.00  0.00    -0.344 A  
HETATM   21  C   UNL     1     -11.487   7.898  70.394  1.00  0.00    -0.154 A  
HETATM   22  C   UNL     1     -11.488   8.750  71.494  1.00  0.00    -0.375 A  
HETATM   23  C   UNL     1     -11.257   8.264  72.780  1.00  0.00    -0.322 A  
HETATM   24  C   UNL     1     -11.014   6.892  72.914  1.00  0.00    -0.281 A  
HETATM   25  C   UNL     1     -10.999   6.010  71.832  1.00  0.00    -0.316 A  
HETATM   26  C   UNL     1     -10.700   4.707  72.352  1.00  0.00    -0.186 A  
HETATM   27  C   UNL     1     -10.530   3.432  71.769  1.00  0.00     0.259 A  
HETATM   28  C   UNL     1     -10.241   2.331  72.583  1.00  0.00    -0.229 A  
HETATM   29  C   UNL     1     -10.121   2.485  73.962  1.00  0.00    -0.164 A  
HETATM   30  C   UNL     1     -10.279   3.736  74.565  1.00  0.00    -0.248 A  
HETATM   31  C   UNL     1     -10.564   4.826  73.732  1.00  0.00    -0.272 A  
HETATM   32  N   UNL     1     -10.756   6.148  74.043  1.00  0.00    -0.400 NA 
HETATM   33  H   UNL     1     -10.714   6.530  74.988  1.00  0.00     0.000 HD 
ENDBRANCH  19  20
ENDBRANCH  18  19
ENDBRANCH  15  18
ENDBRANCH  14  15
ENDBRANCH  12  14
ENDBRANCH  11  12
ENDBRANCH  10  11
ENDBRANCH   9  10
ENDBRANCH   8   9
ENDBRANCH   2   3
TORSDOF 10
ENDMDL
MODEL      270
REMARK 921   NORMALIZED FREE ENERGY PREDICTED BY IDOCK:   -4.13 KCAL/MOL
REMARK 922        TOTAL FREE ENERGY PREDICTED BY IDOCK:   -8.39 KCAL/MOL
REMARK 923 INTER-LIGAND FREE ENERGY PREDICTED BY IDOCK:   -7.59 KCAL/MOL
REMARK 924 INTRA-LIGAND FREE ENERGY PREDICTED BY IDOCK:   -0.79 KCAL/MOL
REMARK 927      BINDING AFFINITY PREDICTED BY RF-SCORE:    0.00 PKD
ROOT
HETATM    1  C   UNL     1     -10.958  15.170  69.318  1.00  0.00    -0.258 C  
HETATM    2  O   UNL     1      -9.589  14.802  69.164  1.00  0.00    -0.199 OA 
ENDROOT
BRANCH   2   3
HETATM    3  C   UNL     1      -8.857  15.549  68.277  1.00  0.00    -0.179 A  
HETATM    4  C   UNL     1      -7.648  16.155  68.657  1.00  0.00    -0.183 A  
HETATM    5  C   UNL     1      -6.883  16.871  67.736  1.00  0.00    -0.157 A  
HETATM    6  C   UNL     1      -7.328  17.016  66.429  1.00  0.00    -0.328 A  
HETATM    7  C   UNL     1      -8.551  16.463  66.053  1.00  0.00    -0.246 A  
HETATM    8  C   UNL     1      -9.333  15.737  66.964  1.00  0.00    -0.220 A  
BRANCH   8   9
HETATM    9  O   UNL     1     -10.496  15.278  66.392  1.00  0.00    -0.286 OA 
BRANCH   9  10
HETATM   10  C   UNL     1     -10.478  15.031  64.992  1.00  0.00    -0.386 C  
BRANCH  10  11
HETATM   11  C   UNL     1     -10.790  13.552  64.710  1.00  0.00    -0.381 C  
BRANCH  11  12
HETATM   12  N   UNL     1     -10.176  12.619  65.672  1.00  0.00    -0.271 NA 
HETATM   13  H   UNL     1      -9.377  13.046  66.141  1.00  0.00     0.000 HD 
BRANCH  12  14
HETATM   14  C   UNL     1     -11.154  12.099  66.653  1.00  0.00    -0.306 C  
BRANCH  14  15
HETATM   15  C   UNL     1     -10.473  11.390  67.844  1.00  0.00    -0.184 C  
HETATM   16  O   UNL     1      -9.337  12.152  68.263  1.00  0.00    -0.198 OA 
HETATM   17  H   UNL     1      -8.918  11.716  68.996  1.00  0.00     0.000 HD 
BRANCH  15  18
HETATM   18  C   UNL     1     -11.468  11.215  68.998  1.00  0.00    -0.296 C  
BRANCH  18  19
HETATM   19  O   UNL     1     -10.933  10.366  70.007  1.00  0.00    -0.276 OA 
BRANCH  19  20
HETATM   20  C   UNL     1     -11.854   9.734  70.808  1.00  0.00    -0.319 A  
HETATM   21  C   UNL     1     -13.249   9.873  70.682  1.00  0.00    -0.128 A  
HETATM   22  C   UNL     1     -14.125   9.179  71.511  1.00  0.00    -0.253 A  
HETATM   23  C   UNL     1     -13.651   8.316  72.497  1.00  0.00    -0.089 A  
HETATM   24  C   UNL     1     -12.262   8.187  72.625  1.00  0.00    -0.212 A  
HETATM   25  C   UNL     1     -11.355   8.873  71.816  1.00  0.00    -0.431 A  
HETATM   26  C   UNL     1     -10.038   8.507  72.252  1.00  0.00    -0.386 A  
HETATM   27  C   UNL     1      -8.734   8.872  71.853  1.00  0.00    -0.086 A  
HETATM   28  C   UNL     1      -7.628   8.311  72.499  1.00  0.00    -0.159 A  
HETATM   29  C   UNL     1      -7.806   7.394  73.533  1.00  0.00    -0.135 A  
HETATM   30  C   UNL     1      -9.085   7.018  73.953  1.00  0.00    -0.229 A  
HETATM   31  C   UNL     1     -10.179   7.596  73.294  1.00  0.00    -0.339 A  
HETATM   32  N   UNL     1     -11.524   7.422  73.499  1.00  0.00    -0.475 NA 
HETATM   33  H   UNL     1     -11.925   6.806  74.206  1.00  0.00     0.000 HD 
ENDBRANCH  19  20
ENDBRANCH  18  19
ENDBRANCH  15  18
ENDBRANCH  14  15
ENDBRANCH  12  14
ENDBRANCH  11  12
ENDBRANCH  10  11
ENDBRANCH   9  10
ENDBRANCH   8   9
ENDBRANCH   2   3
TORSDOF 10
ENDMDL
MODEL      271
REMARK 921   NORMALIZED FREE ENERGY PREDICTED BY IDOCK:   -4.12 KCAL/MOL
REMARK 922        TOTAL FREE ENERGY PREDICTED BY IDOCK:   -8.37 KCAL/MOL
REMARK 923 INTER-LIGAND FREE ENERGY PREDICTED BY IDOCK:   -7.31 KCAL/MOL
REMARK 924 INTRA-LIGAND FREE ENERGY PREDICTED BY IDOCK:   -1.06 KCAL/MOL
REMARK 927      BINDING AFFINITY PREDICTED BY RF-SCORE:    0.00 PKD
ROOT
HETATM    1  C   UNL     1      -9.540   4.657  65.921  1.00  0.00    -0.185 C  
HETATM    2  O   UNL     1      -9.144   5.983  65.577  1.00  0.00    -0.092 OA 
ENDROOT
BRANCH   2   3
HETATM    3  C   UNL     1      -8.130   6.525  66.326  1.00  0.00    -0.115 A  
HETATM    4  C   UNL     1      -7.467   5.773  67.310  1.00  0.00    -0.081 A  
HETATM    5  C   UNL     1      -6.403   6.314  68.031  1.00  0.00    -0.040 A  
HETATM    6  C   UNL     1      -6.004   7.624  67.800  1.00  0.00    -0.040 A  
HETATM    7  C   UNL     1      -6.687   8.397  66.863  1.00  0.00    -0.062 A  
HETATM    8  C   UNL     1      -7.757   7.869  66.125  1.00  0.00    -0.091 A  
BRANCH   8   9
HETATM    9  O   UNL     1      -8.288   8.792  65.257  1.00  0.00    -0.141 OA 
BRANCH   9  10
HETATM   10  C   UNL     1      -9.200   9.741  65.795  1.00  0.00    -0.191 C  
BRANCH  10  11
HETATM   11  C   UNL     1     -10.069   9.086  66.882  1.00  0.00    -0.267 C  
BRANCH  11  12
HETATM   12  N   UNL     1     -11.077   9.991  67.465  1.00  0.00    -0.381 NA 
HETATM   13  H   UNL     1     -12.022   9.650  67.293  1.00  0.00     0.000 HD 
BRANCH  12  14
HETATM   14  C   UNL     1     -10.849  10.231  68.906  1.00  0.00    -0.228 C  
BRANCH  14  15
HETATM   15  C   UNL     1     -10.429  11.688  69.201  1.00  0.00    -0.064 C  
HETATM   16  O   UNL     1      -9.006  11.802  69.099  1.00  0.00    -0.362 OA 
HETATM   17  H   UNL     1      -8.748  12.699  69.280  1.00  0.00     0.000 HD 
BRANCH  15  18
HETATM   18  C   UNL     1     -11.123  12.648  68.227  1.00  0.00    -0.261 C  
BRANCH  18  19
HETATM   19  O   UNL     1     -10.264  12.983  67.143  1.00  0.00    -0.239 OA 
BRANCH  19  20
HETATM   20  C   UNL     1     -10.889  13.348  65.974  1.00  0.00    -0.274 A  
HETATM   21  C   UNL     1     -11.498  12.448  65.081  1.00  0.00    -0.379 A  
HETATM   22  C   UNL     1     -12.140  12.891  63.929  1.00  0.00    -0.553 A  
HETATM   23  C   UNL     1     -12.204  14.248  63.617  1.00  0.00     0.043 A  
HETATM   24  C   UNL     1     -11.588  15.140  64.504  1.00  0.00    -0.329 A  
HETATM   25  C   UNL     1     -10.931  14.730  65.665  1.00  0.00    -0.345 A  
HETATM   26  C   UNL     1     -10.415  15.909  66.299  1.00  0.00    -0.324 A  
HETATM   27  C   UNL     1      -9.658  16.145  67.467  1.00  0.00    -0.229 A  
HETATM   28  C   UNL     1      -9.314  17.455  67.817  1.00  0.00    -0.255 A  
HETATM   29  C   UNL     1      -9.714  18.526  67.022  1.00  0.00    -0.321 A  
HETATM   30  C   UNL     1     -10.461  18.321  65.857  1.00  0.00    -0.324 A  
HETATM   31  C   UNL     1     -10.790  17.001  65.522  1.00  0.00    -0.069 A  
HETATM   32  N   UNL     1     -11.493  16.512  64.451  1.00  0.00    -1.112 NA 
HETATM   33  H   UNL     1     -11.892  17.089  63.710  1.00  0.00     0.000 HD 
ENDBRANCH  19  20
ENDBRANCH  18  19
ENDBRANCH  15  18
ENDBRANCH  14  15
ENDBRANCH  12  14
ENDBRANCH  11  12
ENDBRANCH  10  11
ENDBRANCH   9  10
ENDBRANCH   8   9
ENDBRANCH   2   3
TORSDOF 10
ENDMDL
MODEL      272
REMARK 921   NORMALIZED FREE ENERGY PREDICTED BY IDOCK:   -4.12 KCAL/MOL
REMARK 922        TOTAL FREE ENERGY PREDICTED BY IDOCK:   -8.37 KCAL/MOL
REMARK 923 INTER-LIGAND FREE ENERGY PREDICTED BY IDOCK:   -7.06 KCAL/MOL
REMARK 924 INTRA-LIGAND FREE ENERGY PREDICTED BY IDOCK:   -1.31 KCAL/MOL
REMARK 927      BINDING AFFINITY PREDICTED BY RF-SCORE:    0.00 PKD
ROOT
HETATM    1  C   UNL     1      -6.223   5.927  71.207  1.00  0.00    -0.039 C  
HETATM    2  O   UNL     1      -6.611   6.680  72.354  1.00  0.00    -0.058 OA 
ENDROOT
BRANCH   2   3
HETATM    3  C   UNL     1      -7.892   7.172  72.351  1.00  0.00    -0.093 A  
HETATM    4  C   UNL     1      -8.945   6.469  72.958  1.00  0.00    -0.136 A  
HETATM    5  C   UNL     1     -10.235   6.999  72.996  1.00  0.00    -0.264 A  
HETATM    6  C   UNL     1     -10.496   8.228  72.403  1.00  0.00    -0.404 A  
HETATM    7  C   UNL     1      -9.470   8.911  71.753  1.00  0.00    -0.334 A  
HETATM    8  C   UNL     1      -8.167   8.395  71.708  1.00  0.00    -0.152 A  
BRANCH   8   9
HETATM    9  O   UNL     1      -7.309   9.223  71.023  1.00  0.00    -0.172 OA 
BRANCH   9  10
HETATM   10  C   UNL     1      -7.879  10.084  70.045  1.00  0.00    -0.158 C  
BRANCH  10  11
HETATM   11  C   UNL     1      -7.223   9.840  68.676  1.00  0.00    -0.073 C  
BRANCH  11  12
HETATM   12  N   UNL     1      -7.274   8.435  68.233  1.00  0.00    -0.085 NA 
HETATM   13  H   UNL     1      -7.638   7.829  68.969  1.00  0.00     0.000 HD 
BRANCH  12  14
HETATM   14  C   UNL     1      -8.039   8.269  66.978  1.00  0.00    -0.104 C  
BRANCH  14  15
HETATM   15  C   UNL     1      -9.436   7.655  67.218  1.00  0.00    -0.148 C  
HETATM   16  O   UNL     1      -9.629   7.448  68.620  1.00  0.00    -0.145 OA 
HETATM   17  H   UNL     1     -10.489   7.071  68.768  1.00  0.00     0.000 HD 
BRANCH  15  18
HETATM   18  C   UNL     1     -10.525   8.573  66.648  1.00  0.00    -0.165 C  
BRANCH  18  19
HETATM   19  O   UNL     1     -10.275   9.932  66.990  1.00  0.00    -0.208 OA 
BRANCH  19  20
HETATM   20  C   UNL     1     -10.392  10.839  65.963  1.00  0.00    -0.238 A  
HETATM   21  C   UNL     1     -10.113  10.556  64.613  1.00  0.00    -0.408 A  
HETATM   22  C   UNL     1     -10.282  11.515  63.620  1.00  0.00    -0.450 A  
HETATM   23  C   UNL     1     -10.737  12.796  63.927  1.00  0.00    -0.443 A  
HETATM   24  C   UNL     1     -11.005  13.077  65.273  1.00  0.00    -0.284 A  
HETATM   25  C   UNL     1     -10.841  12.140  66.295  1.00  0.00    -0.317 A  
HETATM   26  C   UNL     1     -11.189  12.791  67.525  1.00  0.00    -0.332 A  
HETATM   27  C   UNL     1     -11.209  12.388  68.878  1.00  0.00    -0.330 A  
HETATM   28  C   UNL     1     -11.619  13.291  69.865  1.00  0.00    -0.260 A  
HETATM   29  C   UNL     1     -12.009  14.583  69.520  1.00  0.00    -0.363 A  
HETATM   30  C   UNL     1     -11.995  15.011  68.189  1.00  0.00    -0.195 A  
HETATM   31  C   UNL     1     -11.576  14.092  67.217  1.00  0.00    -0.369 A  
HETATM   32  N   UNL     1     -11.456  14.238  65.859  1.00  0.00    -0.329 NA 
HETATM   33  H   UNL     1     -11.672  15.095  65.349  1.00  0.00     0.000 HD 
ENDBRANCH  19  20
ENDBRANCH  18  19
ENDBRANCH  15  18
ENDBRANCH  14  15
ENDBRANCH  12  14
ENDBRANCH  11  12
ENDBRANCH  10  11
ENDBRANCH   9  10
ENDBRANCH   8   9
ENDBRANCH   2   3
TORSDOF 10
ENDMDL
MODEL      273
REMARK 921   NORMALIZED FREE ENERGY PREDICTED BY IDOCK:   -4.10 KCAL/MOL
REMARK 922        TOTAL FREE ENERGY PREDICTED BY IDOCK:   -8.35 KCAL/MOL
REMARK 923 INTER-LIGAND FREE ENERGY PREDICTED BY IDOCK:   -7.75 KCAL/MOL
REMARK 924 INTRA-LIGAND FREE ENERGY PREDICTED BY IDOCK:   -0.59 KCAL/MOL
REMARK 927      BINDING AFFINITY PREDICTED BY RF-SCORE:    0.00 PKD
ROOT
HETATM    1  C   UNL     1      -9.540  16.271  66.325  1.00  0.00    -0.308 C  
HETATM    2  O   UNL     1      -9.448  17.501  65.610  1.00  0.00    -0.498 OA 
ENDROOT
BRANCH   2   3
HETATM    3  C   UNL     1      -8.763  18.514  66.233  1.00  0.00    -0.203 A  
HETATM    4  C   UNL     1      -9.352  19.772  66.443  1.00  0.00    -0.488 A  
HETATM    5  C   UNL     1      -8.668  20.780  67.121  1.00  0.00    -0.223 A  
HETATM    6  C   UNL     1      -7.375  20.556  67.576  1.00  0.00    -0.365 A  
HETATM    7  C   UNL     1      -6.761  19.330  67.329  1.00  0.00    -0.207 A  
HETATM    8  C   UNL     1      -7.434  18.302  66.650  1.00  0.00    -0.226 A  
BRANCH   8   9
HETATM    9  O   UNL     1      -6.653  17.179  66.514  1.00  0.00    -0.210 OA 
BRANCH   9  10
HETATM   10  C   UNL     1      -5.984  16.707  67.676  1.00  0.00    -0.147 C  
BRANCH  10  11
HETATM   11  C   UNL     1      -6.904  16.824  68.903  1.00  0.00    -0.198 C  
BRANCH  11  12
HETATM   12  N   UNL     1      -7.736  15.631  69.140  1.00  0.00    -0.195 NA 
HETATM   13  H   UNL     1      -8.054  15.223  68.260  1.00  0.00     0.000 HD 
BRANCH  12  14
HETATM   14  C   UNL     1      -7.048  14.624  69.977  1.00  0.00     0.005 C  
BRANCH  14  15
HETATM   15  C   UNL     1      -6.672  13.355  69.181  1.00  0.00    -0.099 C  
HETATM   16  O   UNL     1      -6.733  12.217  70.046  1.00  0.00    -0.359 OA 
HETATM   17  H   UNL     1      -6.501  11.436  69.556  1.00  0.00     0.000 HD 
BRANCH  15  18
HETATM   18  C   UNL     1      -7.613  13.181  67.983  1.00  0.00    -0.144 C  
BRANCH  18  19
HETATM   19  O   UNL     1      -8.776  12.448  68.352  1.00  0.00    -0.181 OA 
BRANCH  19  20
HETATM   20  C   UNL     1      -9.970  12.946  67.885  1.00  0.00    -0.233 A  
HETATM   21  C   UNL     1     -10.797  13.834  68.597  1.00  0.00    -0.280 A  
HETATM   22  C   UNL     1     -11.979  14.322  68.050  1.00  0.00    -0.353 A  
HETATM   23  C   UNL     1     -12.388  13.948  66.771  1.00  0.00    -0.370 A  
HETATM   24  C   UNL     1     -11.567  13.057  66.069  1.00  0.00    -0.365 A  
HETATM   25  C   UNL     1     -10.378  12.543  66.590  1.00  0.00    -0.244 A  
HETATM   26  C   UNL     1      -9.830  11.659  65.602  1.00  0.00    -0.270 A  
HETATM   27  C   UNL     1      -8.680  10.842  65.545  1.00  0.00    -0.196 A  
HETATM   28  C   UNL     1      -8.424  10.084  64.397  1.00  0.00    -0.178 A  
HETATM   29  C   UNL     1      -9.296  10.131  63.312  1.00  0.00    -0.332 A  
HETATM   30  C   UNL     1     -10.445  10.928  63.343  1.00  0.00    -0.220 A  
HETATM   31  C   UNL     1     -10.684  11.676  64.503  1.00  0.00    -0.322 A  
HETATM   32  N   UNL     1     -11.719  12.522  64.810  1.00  0.00    -0.342 NA 
HETATM   33  H   UNL     1     -12.500  12.728  64.187  1.00  0.00     0.000 HD 
ENDBRANCH  19  20
ENDBRANCH  18  19
ENDBRANCH  15  18
ENDBRANCH  14  15
ENDBRANCH  12  14
ENDBRANCH  11  12
ENDBRANCH  10  11
ENDBRANCH   9  10
ENDBRANCH   8   9
ENDBRANCH   2   3
TORSDOF 10
ENDMDL
MODEL      274
REMARK 921   NORMALIZED FREE ENERGY PREDICTED BY IDOCK:   -4.09 KCAL/MOL
REMARK 922        TOTAL FREE ENERGY PREDICTED BY IDOCK:   -8.33 KCAL/MOL
REMARK 923 INTER-LIGAND FREE ENERGY PREDICTED BY IDOCK:   -7.58 KCAL/MOL
REMARK 924 INTRA-LIGAND FREE ENERGY PREDICTED BY IDOCK:   -0.75 KCAL/MOL
REMARK 927      BINDING AFFINITY PREDICTED BY RF-SCORE:    0.00 PKD
ROOT
HETATM    1  C   UNL     1      -8.127   8.851  70.980  1.00  0.00    -0.170 C  
HETATM    2  O   UNL     1      -9.041   9.153  72.032  1.00  0.00    -0.337 OA 
ENDROOT
BRANCH   2   3
HETATM    3  C   UNL     1     -10.315   8.666  71.886  1.00  0.00    -0.335 A  
HETATM    4  C   UNL     1     -10.665   7.387  72.349  1.00  0.00    -0.295 A  
HETATM    5  C   UNL     1     -11.974   6.918  72.244  1.00  0.00    -0.244 A  
HETATM    6  C   UNL     1     -12.947   7.710  71.648  1.00  0.00    -0.385 A  
HETATM    7  C   UNL     1     -12.602   8.960  71.139  1.00  0.00    -0.228 A  
HETATM    8  C   UNL     1     -11.291   9.449  71.238  1.00  0.00    -0.366 A  
BRANCH   8   9
HETATM    9  O   UNL     1     -11.164  10.698  70.677  1.00  0.00    -0.289 OA 
BRANCH   9  10
HETATM   10  C   UNL     1     -12.360  11.355  70.276  1.00  0.00    -0.297 C  
BRANCH  10  11
HETATM   11  C   UNL     1     -12.030  12.710  69.628  1.00  0.00    -0.286 C  
BRANCH  11  12
HETATM   12  N   UNL     1     -12.004  13.835  70.581  1.00  0.00    -0.472 NA 
HETATM   13  H   UNL     1     -11.942  13.502  71.544  1.00  0.00     0.000 HD 
BRANCH  12  14
HETATM   14  C   UNL     1     -10.924  14.800  70.281  1.00  0.00    -0.097 C  
BRANCH  14  15
HETATM   15  C   UNL     1     -11.095  15.462  68.896  1.00  0.00    -0.275 C  
HETATM   16  O   UNL     1     -12.434  15.947  68.764  1.00  0.00    -0.403 OA 
HETATM   17  H   UNL     1     -12.539  16.355  67.912  1.00  0.00     0.000 HD 
BRANCH  15  18
HETATM   18  C   UNL     1     -10.083  16.601  68.723  1.00  0.00    -0.270 C  
BRANCH  18  19
HETATM   19  O   UNL     1      -9.205  16.340  67.632  1.00  0.00    -0.204 OA 
BRANCH  19  20
HETATM   20  C   UNL     1      -9.603  15.346  66.769  1.00  0.00    -0.241 A  
HETATM   21  C   UNL     1     -10.535  15.519  65.730  1.00  0.00    -0.378 A  
HETATM   22  C   UNL     1     -10.869  14.474  64.874  1.00  0.00    -0.436 A  
HETATM   23  C   UNL     1     -10.289  13.215  65.015  1.00  0.00    -0.346 A  
HETATM   24  C   UNL     1      -9.368  13.045  66.056  1.00  0.00    -0.009 A  
HETATM   25  C   UNL     1      -9.014  14.069  66.936  1.00  0.00    -0.243 A  
HETATM   26  C   UNL     1      -8.073  13.519  67.869  1.00  0.00    -0.165 A  
HETATM   27  C   UNL     1      -7.380  14.036  68.985  1.00  0.00    -0.081 A  
HETATM   28  C   UNL     1      -6.502  13.213  69.699  1.00  0.00    -0.047 A  
HETATM   29  C   UNL     1      -6.309  11.888  69.315  1.00  0.00    -0.105 A  
HETATM   30  C   UNL     1      -6.985  11.348  68.217  1.00  0.00    -0.072 A  
HETATM   31  C   UNL     1      -7.862  12.189  67.519  1.00  0.00    -0.162 A  
HETATM   32  N   UNL     1      -8.652  11.930  66.428  1.00  0.00    -0.347 NA 
HETATM   33  H   UNL     1      -8.703  11.027  65.954  1.00  0.00     0.000 HD 
ENDBRANCH  19  20
ENDBRANCH  18  19
ENDBRANCH  15  18
ENDBRANCH  14  15
ENDBRANCH  12  14
ENDBRANCH  11  12
ENDBRANCH  10  11
ENDBRANCH   9  10
ENDBRANCH   8   9
ENDBRANCH   2   3
TORSDOF 10
ENDMDL
MODEL      275
REMARK 921   NORMALIZED FREE ENERGY PREDICTED BY IDOCK:   -4.08 KCAL/MOL
REMARK 922        TOTAL FREE ENERGY PREDICTED BY IDOCK:   -8.31 KCAL/MOL
REMARK 923 INTER-LIGAND FREE ENERGY PREDICTED BY IDOCK:   -6.32 KCAL/MOL
REMARK 924 INTRA-LIGAND FREE ENERGY PREDICTED BY IDOCK:   -1.99 KCAL/MOL
REMARK 927      BINDING AFFINITY PREDICTED BY RF-SCORE:    0.00 PKD
ROOT
HETATM    1  C   UNL     1      -5.781   5.318  70.785  1.00  0.00    -0.020 C  
HETATM    2  O   UNL     1      -5.795   6.479  71.613  1.00  0.00    -0.035 OA 
ENDROOT
BRANCH   2   3
HETATM    3  C   UNL     1      -6.896   7.290  71.500  1.00  0.00    -0.055 A  
HETATM    4  C   UNL     1      -7.844   7.381  72.533  1.00  0.00    -0.108 A  
HETATM    5  C   UNL     1      -8.934   8.245  72.433  1.00  0.00    -0.297 A  
HETATM    6  C   UNL     1      -9.107   9.012  71.288  1.00  0.00    -0.302 A  
HETATM    7  C   UNL     1      -8.201   8.894  70.236  1.00  0.00    -0.134 A  
HETATM    8  C   UNL     1      -7.098   8.032  70.319  1.00  0.00    -0.048 A  
BRANCH   8   9
HETATM    9  O   UNL     1      -6.330   8.067  69.179  1.00  0.00    -0.038 OA 
BRANCH   9  10
HETATM   10  C   UNL     1      -6.994   8.370  67.959  1.00  0.00    -0.081 C  
BRANCH  10  11
HETATM   11  C   UNL     1      -7.085   7.113  67.077  1.00  0.00    -0.090 C  
BRANCH  11  12
HETATM   12  N   UNL     1      -7.725   5.964  67.742  1.00  0.00    -0.096 NA 
HETATM   13  H   UNL     1      -7.917   6.166  68.724  1.00  0.00     0.000 HD 
BRANCH  12  14
HETATM   14  C   UNL     1      -8.949   5.518  67.040  1.00  0.00    -0.113 C  
BRANCH  14  15
HETATM   15  C   UNL     1     -10.226   5.765  67.872  1.00  0.00    -0.187 C  
HETATM   16  O   UNL     1      -9.865   6.036  69.229  1.00  0.00    -0.143 OA 
HETATM   17  H   UNL     1     -10.651   6.188  69.741  1.00  0.00     0.000 HD 
BRANCH  15  18
HETATM   18  C   UNL     1     -11.029   6.930  67.279  1.00  0.00    -0.336 C  
BRANCH  18  19
HETATM   19  O   UNL     1     -10.830   8.121  68.033  1.00  0.00    -0.095 OA 
BRANCH  19  20
HETATM   20  C   UNL     1     -10.586   9.259  67.302  1.00  0.00    -0.233 A  
HETATM   21  C   UNL     1      -9.972   9.277  66.036  1.00  0.00    -0.325 A  
HETATM   22  C   UNL     1      -9.783  10.466  65.338  1.00  0.00    -0.325 A  
HETATM   23  C   UNL     1     -10.198  11.686  65.869  1.00  0.00    -0.277 A  
HETATM   24  C   UNL     1     -10.801  11.664  67.133  1.00  0.00    -0.261 A  
HETATM   25  C   UNL     1     -11.001  10.492  67.863  1.00  0.00    -0.352 A  
HETATM   26  C   UNL     1     -11.619  10.866  69.103  1.00  0.00    -0.389 A  
HETATM   27  C   UNL     1     -12.041  10.150  70.244  1.00  0.00    -0.282 A  
HETATM   28  C   UNL     1     -12.631  10.834  71.313  1.00  0.00    -0.532 A  
HETATM   29  C   UNL     1     -12.804  12.215  71.256  1.00  0.00    -0.349 A  
HETATM   30  C   UNL     1     -12.391  12.950  70.140  1.00  0.00    -0.249 A  
HETATM   31  C   UNL     1     -11.798  12.245  69.084  1.00  0.00    -0.301 A  
HETATM   32  N   UNL     1     -11.298  12.700  67.890  1.00  0.00    -0.268 NA 
HETATM   33  H   UNL     1     -11.295  13.679  67.602  1.00  0.00     0.000 HD 
ENDBRANCH  19  20
ENDBRANCH  18  19
ENDBRANCH  15  18
ENDBRANCH  14  15
ENDBRANCH  12  14
ENDBRANCH  11  12
ENDBRANCH  10  11
ENDBRANCH   9  10
ENDBRANCH   8   9
ENDBRANCH   2   3
TORSDOF 10
ENDMDL
MODEL      276
REMARK 921   NORMALIZED FREE ENERGY PREDICTED BY IDOCK:   -4.08 KCAL/MOL
REMARK 922        TOTAL FREE ENERGY PREDICTED BY IDOCK:   -8.31 KCAL/MOL
REMARK 923 INTER-LIGAND FREE ENERGY PREDICTED BY IDOCK:   -7.85 KCAL/MOL
REMARK 924 INTRA-LIGAND FREE ENERGY PREDICTED BY IDOCK:   -0.46 KCAL/MOL
REMARK 927      BINDING AFFINITY PREDICTED BY RF-SCORE:    0.00 PKD
ROOT
HETATM    1  C   UNL     1      -7.798  20.038  65.915  1.00  0.00    -0.259 C  
HETATM    2  O   UNL     1      -8.284  19.674  67.205  1.00  0.00    -0.271 OA 
ENDROOT
BRANCH   2   3
HETATM    3  C   UNL     1      -7.344  19.575  68.200  1.00  0.00    -0.299 A  
HETATM    4  C   UNL     1      -6.649  20.704  68.662  1.00  0.00    -0.193 A  
HETATM    5  C   UNL     1      -5.733  20.605  69.708  1.00  0.00    -0.385 A  
HETATM    6  C   UNL     1      -5.477  19.371  70.291  1.00  0.00    -0.247 A  
HETATM    7  C   UNL     1      -6.123  18.234  69.808  1.00  0.00    -0.211 A  
HETATM    8  C   UNL     1      -7.050  18.315  68.758  1.00  0.00    -0.280 A  
BRANCH   8   9
HETATM    9  O   UNL     1      -7.571  17.084  68.437  1.00  0.00    -0.200 OA 
BRANCH   9  10
HETATM   10  C   UNL     1      -7.418  16.644  67.093  1.00  0.00    -0.183 C  
BRANCH  10  11
HETATM   11  C   UNL     1      -8.749  16.084  66.562  1.00  0.00    -0.303 C  
BRANCH  11  12
HETATM   12  N   UNL     1      -8.726  14.631  66.311  1.00  0.00    -0.438 NA 
HETATM   13  H   UNL     1      -8.492  14.429  65.339  1.00  0.00     0.000 HD 
BRANCH  12  14
HETATM   14  C   UNL     1      -7.823  13.915  67.238  1.00  0.00    -0.114 C  
BRANCH  14  15
HETATM   15  C   UNL     1      -8.590  13.200  68.372  1.00  0.00    -0.124 C  
HETATM   16  O   UNL     1      -9.647  14.045  68.836  1.00  0.00    -0.371 OA 
HETATM   17  H   UNL     1     -10.120  13.605  69.533  1.00  0.00     0.000 HD 
BRANCH  15  18
HETATM   18  C   UNL     1      -9.142  11.858  67.876  1.00  0.00    -0.183 C  
BRANCH  18  19
HETATM   19  O   UNL     1      -9.642  11.082  68.959  1.00  0.00    -0.190 OA 
BRANCH  19  20
HETATM   20  C   UNL     1      -9.571   9.718  68.801  1.00  0.00    -0.154 A  
HETATM   21  C   UNL     1      -8.649   9.059  67.968  1.00  0.00    -0.129 A  
HETATM   22  C   UNL     1      -8.614   7.671  67.878  1.00  0.00    -0.122 A  
HETATM   23  C   UNL     1      -9.495   6.880  68.615  1.00  0.00    -0.134 A  
HETATM   24  C   UNL     1     -10.417   7.541  69.436  1.00  0.00    -0.222 A  
HETATM   25  C   UNL     1     -10.483   8.931  69.545  1.00  0.00    -0.229 A  
HETATM   26  C   UNL     1     -11.553   9.234  70.453  1.00  0.00    -0.215 A  
HETATM   27  C   UNL     1     -12.114  10.432  70.944  1.00  0.00    -0.477 A  
HETATM   28  C   UNL     1     -13.179  10.379  71.850  1.00  0.00    -0.535 A  
HETATM   29  C   UNL     1     -13.686   9.152  72.270  1.00  0.00    -0.548 A  
HETATM   30  C   UNL     1     -13.153   7.949  71.797  1.00  0.00    -0.352 A  
HETATM   31  C   UNL     1     -12.090   8.026  70.887  1.00  0.00    -0.152 A  
HETATM   32  N   UNL     1     -11.391   7.025  70.261  1.00  0.00    -0.337 NA 
HETATM   33  H   UNL     1     -11.570   6.029  70.390  1.00  0.00     0.000 HD 
ENDBRANCH  19  20
ENDBRANCH  18  19
ENDBRANCH  15  18
ENDBRANCH  14  15
ENDBRANCH  12  14
ENDBRANCH  11  12
ENDBRANCH  10  11
ENDBRANCH   9  10
ENDBRANCH   8   9
ENDBRANCH   2   3
TORSDOF 10
ENDMDL
MODEL      277
REMARK 921   NORMALIZED FREE ENERGY PREDICTED BY IDOCK:   -4.08 KCAL/MOL
REMARK 922        TOTAL FREE ENERGY PREDICTED BY IDOCK:   -8.31 KCAL/MOL
REMARK 923 INTER-LIGAND FREE ENERGY PREDICTED BY IDOCK:   -7.14 KCAL/MOL
REMARK 924 INTRA-LIGAND FREE ENERGY PREDICTED BY IDOCK:   -1.17 KCAL/MOL
REMARK 927      BINDING AFFINITY PREDICTED BY RF-SCORE:    0.00 PKD
ROOT
HETATM    1  C   UNL     1      -7.584   6.099  70.185  1.00  0.00    -0.096 C  
HETATM    2  O   UNL     1      -8.296   6.472  71.363  1.00  0.00    -0.123 OA 
ENDROOT
BRANCH   2   3
HETATM    3  C   UNL     1      -9.571   6.942  71.177  1.00  0.00    -0.166 A  
HETATM    4  C   UNL     1     -10.688   6.105  71.337  1.00  0.00    -0.308 A  
HETATM    5  C   UNL     1     -11.983   6.602  71.195  1.00  0.00    -0.412 A  
HETATM    6  C   UNL     1     -12.182   7.936  70.865  1.00  0.00    -0.138 A  
HETATM    7  C   UNL     1     -11.081   8.764  70.653  1.00  0.00    -0.285 A  
HETATM    8  C   UNL     1      -9.771   8.283  70.794  1.00  0.00    -0.172 A  
BRANCH   8   9
HETATM    9  O   UNL     1      -8.835   9.259  70.544  1.00  0.00    -0.206 OA 
BRANCH   9  10
HETATM   10  C   UNL     1      -9.174  10.255  69.589  1.00  0.00    -0.129 C  
BRANCH  10  11
HETATM   11  C   UNL     1      -7.960  10.574  68.699  1.00  0.00    -0.124 C  
BRANCH  11  12
HETATM   12  N   UNL     1      -7.667   9.534  67.696  1.00  0.00    -0.094 NA 
HETATM   13  H   UNL     1      -8.150   8.663  67.917  1.00  0.00     0.000 HD 
BRANCH  12  14
HETATM   14  C   UNL     1      -7.973   9.979  66.319  1.00  0.00    -0.111 C  
BRANCH  14  15
HETATM   15  C   UNL     1      -9.268   9.343  65.769  1.00  0.00    -0.219 C  
HETATM   16  O   UNL     1      -9.589   8.180  66.538  1.00  0.00    -0.207 OA 
HETATM   17  H   UNL     1     -10.387   7.788  66.200  1.00  0.00     0.000 HD 
BRANCH  15  18
HETATM   18  C   UNL     1     -10.418  10.358  65.811  1.00  0.00    -0.117 C  
BRANCH  18  19
HETATM   19  O   UNL     1      -9.919  11.690  65.864  1.00  0.00    -0.216 OA 
BRANCH  19  20
HETATM   20  C   UNL     1     -10.675  12.639  65.218  1.00  0.00    -0.289 A  
HETATM   21  C   UNL     1     -11.731  12.350  64.335  1.00  0.00    -0.435 A  
HETATM   22  C   UNL     1     -12.475  13.363  63.737  1.00  0.00    -0.318 A  
HETATM   23  C   UNL     1     -12.200  14.705  63.994  1.00  0.00    -0.226 A  
HETATM   24  C   UNL     1     -11.142  14.988  64.867  1.00  0.00    -0.415 A  
HETATM   25  C   UNL     1     -10.372  13.998  65.479  1.00  0.00    -0.354 A  
HETATM   26  C   UNL     1      -9.381  14.663  66.276  1.00  0.00    -0.293 A  
HETATM   27  C   UNL     1      -8.322  14.221  67.097  1.00  0.00    -0.202 A  
HETATM   28  C   UNL     1      -7.521  15.156  67.761  1.00  0.00    -0.179 A  
HETATM   29  C   UNL     1      -7.763  16.520  67.616  1.00  0.00    -0.167 A  
HETATM   30  C   UNL     1      -8.803  16.987  66.805  1.00  0.00    -0.267 A  
HETATM   31  C   UNL     1      -9.589  16.033  66.146  1.00  0.00    -0.334 A  
HETATM   32  N   UNL     1     -10.651  16.201  65.295  1.00  0.00    -0.544 NA 
HETATM   33  H   UNL     1     -11.028  17.107  65.014  1.00  0.00     0.000 HD 
ENDBRANCH  19  20
ENDBRANCH  18  19
ENDBRANCH  15  18
ENDBRANCH  14  15
ENDBRANCH  12  14
ENDBRANCH  11  12
ENDBRANCH  10  11
ENDBRANCH   9  10
ENDBRANCH   8   9
ENDBRANCH   2   3
TORSDOF 10
ENDMDL
MODEL      278
REMARK 921   NORMALIZED FREE ENERGY PREDICTED BY IDOCK:   -4.08 KCAL/MOL
REMARK 922        TOTAL FREE ENERGY PREDICTED BY IDOCK:   -8.30 KCAL/MOL
REMARK 923 INTER-LIGAND FREE ENERGY PREDICTED BY IDOCK:   -7.44 KCAL/MOL
REMARK 924 INTRA-LIGAND FREE ENERGY PREDICTED BY IDOCK:   -0.87 KCAL/MOL
REMARK 927      BINDING AFFINITY PREDICTED BY RF-SCORE:    0.00 PKD
ROOT
HETATM    1  C   UNL     1      -6.820   9.659  64.577  1.00  0.00    -0.107 C  
HETATM    2  O   UNL     1      -8.056   9.779  65.280  1.00  0.00    -0.116 OA 
ENDROOT
BRANCH   2   3
HETATM    3  C   UNL     1      -8.361   8.759  66.146  1.00  0.00    -0.123 A  
HETATM    4  C   UNL     1      -8.304   7.416  65.740  1.00  0.00    -0.141 A  
HETATM    5  C   UNL     1      -8.567   6.383  66.639  1.00  0.00    -0.121 A  
HETATM    6  C   UNL     1      -8.917   6.678  67.950  1.00  0.00    -0.112 A  
HETATM    7  C   UNL     1      -9.027   8.008  68.351  1.00  0.00    -0.133 A  
HETATM    8  C   UNL     1      -8.764   9.060  67.462  1.00  0.00    -0.119 A  
BRANCH   8   9
HETATM    9  O   UNL     1      -8.927  10.289  68.056  1.00  0.00    -0.130 OA 
BRANCH   9  10
HETATM   10  C   UNL     1     -10.007  10.431  68.970  1.00  0.00    -0.214 C  
BRANCH  10  11
HETATM   11  C   UNL     1     -11.339  10.525  68.207  1.00  0.00    -0.264 C  
BRANCH  11  12
HETATM   12  N   UNL     1     -11.711  11.900  67.826  1.00  0.00    -0.516 NA 
HETATM   13  H   UNL     1     -11.168  12.587  68.348  1.00  0.00     0.000 HD 
BRANCH  12  14
HETATM   14  C   UNL     1     -11.600  12.128  66.369  1.00  0.00    -0.364 C  
BRANCH  14  15
HETATM   15  C   UNL     1     -11.517  13.629  66.013  1.00  0.00    -0.324 C  
HETATM   16  O   UNL     1     -12.823  14.208  66.088  1.00  0.00    -0.502 OA 
HETATM   17  H   UNL     1     -12.772  15.131  65.870  1.00  0.00     0.000 HD 
BRANCH  15  18
HETATM   18  C   UNL     1     -10.548  14.346  66.961  1.00  0.00    -0.274 C  
BRANCH  18  19
HETATM   19  O   UNL     1      -9.479  14.946  66.236  1.00  0.00    -0.279 OA 
BRANCH  19  20
HETATM   20  C   UNL     1      -8.349  15.233  66.965  1.00  0.00    -0.234 A  
HETATM   21  C   UNL     1      -7.381  14.283  67.342  1.00  0.00    -0.152 A  
HETATM   22  C   UNL     1      -6.245  14.650  68.055  1.00  0.00    -0.165 A  
HETATM   23  C   UNL     1      -6.022  15.976  68.423  1.00  0.00    -0.105 A  
HETATM   24  C   UNL     1      -6.992  16.916  68.054  1.00  0.00    -0.152 A  
HETATM   25  C   UNL     1      -8.146  16.582  67.343  1.00  0.00    -0.172 A  
HETATM   26  C   UNL     1      -8.900  17.791  67.170  1.00  0.00    -0.251 A  
HETATM   27  C   UNL     1     -10.139  18.097  66.565  1.00  0.00    -0.389 A  
HETATM   28  C   UNL     1     -10.601  19.418  66.562  1.00  0.00    -0.554 A  
HETATM   29  C   UNL     1      -9.847  20.430  67.150  1.00  0.00    -0.601 A  
HETATM   30  C   UNL     1      -8.619  20.155  67.760  1.00  0.00    -0.318 A  
HETATM   31  C   UNL     1      -8.177  18.825  67.756  1.00  0.00    -0.263 A  
HETATM   32  N   UNL     1      -7.036  18.273  68.280  1.00  0.00    -0.240 NA 
HETATM   33  H   UNL     1      -6.315  18.799  68.773  1.00  0.00     0.000 HD 
ENDBRANCH  19  20
ENDBRANCH  18  19
ENDBRANCH  15  18
ENDBRANCH  14  15
ENDBRANCH  12  14
ENDBRANCH  11  12
ENDBRANCH  10  11
ENDBRANCH   9  10
ENDBRANCH   8   9
ENDBRANCH   2   3
TORSDOF 10
ENDMDL
MODEL      279
REMARK 921   NORMALIZED FREE ENERGY PREDICTED BY IDOCK:   -4.06 KCAL/MOL
REMARK 922        TOTAL FREE ENERGY PREDICTED BY IDOCK:   -8.27 KCAL/MOL
REMARK 923 INTER-LIGAND FREE ENERGY PREDICTED BY IDOCK:   -5.79 KCAL/MOL
REMARK 924 INTRA-LIGAND FREE ENERGY PREDICTED BY IDOCK:   -2.48 KCAL/MOL
REMARK 927      BINDING AFFINITY PREDICTED BY RF-SCORE:    0.00 PKD
ROOT
HETATM    1  C   UNL     1     -10.613   7.746  66.863  1.00  0.00    -0.277 C  
HETATM    2  O   UNL     1     -10.171   6.635  67.640  1.00  0.00    -0.148 OA 
ENDROOT
BRANCH   2   3
HETATM    3  C   UNL     1      -8.854   6.279  67.494  1.00  0.00    -0.103 A  
HETATM    4  C   UNL     1      -7.960   7.076  66.761  1.00  0.00    -0.108 A  
HETATM    5  C   UNL     1      -6.612   6.734  66.660  1.00  0.00    -0.044 A  
HETATM    6  C   UNL     1      -6.143   5.576  67.265  1.00  0.00    -0.030 A  
HETATM    7  C   UNL     1      -7.030   4.750  67.953  1.00  0.00    -0.061 A  
HETATM    8  C   UNL     1      -8.389   5.079  68.068  1.00  0.00    -0.100 A  
BRANCH   8   9
HETATM    9  O   UNL     1      -9.088   4.136  68.784  1.00  0.00    -0.112 OA 
BRANCH   9  10
HETATM   10  C   UNL     1      -9.072   4.253  70.201  1.00  0.00    -0.109 C  
BRANCH  10  11
HETATM   11  C   UNL     1     -10.408   4.829  70.701  1.00  0.00    -0.114 C  
BRANCH  11  12
HETATM   12  N   UNL     1     -10.443   6.303  70.740  1.00  0.00    -0.213 NA 
HETATM   13  H   UNL     1     -10.005   6.704  69.911  1.00  0.00     0.000 HD 
BRANCH  12  14
HETATM   14  C   UNL     1     -11.814   6.827  70.925  1.00  0.00    -0.385 C  
BRANCH  14  15
HETATM   15  C   UNL     1     -11.874   7.956  71.977  1.00  0.00    -0.318 C  
HETATM   16  O   UNL     1     -11.615   7.411  73.274  1.00  0.00    -0.584 OA 
HETATM   17  H   UNL     1     -11.652   8.106  73.922  1.00  0.00     0.000 HD 
BRANCH  15  18
HETATM   18  C   UNL     1     -10.861   9.055  71.635  1.00  0.00    -0.366 C  
BRANCH  18  19
HETATM   19  O   UNL     1     -10.603   9.092  70.235  1.00  0.00    -0.200 OA 
BRANCH  19  20
HETATM   20  C   UNL     1      -9.317   9.414  69.872  1.00  0.00    -0.214 A  
HETATM   21  C   UNL     1      -8.170   8.722  70.302  1.00  0.00    -0.120 A  
HETATM   22  C   UNL     1      -6.898   9.086  69.870  1.00  0.00    -0.047 A  
HETATM   23  C   UNL     1      -6.715  10.152  68.991  1.00  0.00    -0.054 A  
HETATM   24  C   UNL     1      -7.858  10.844  68.573  1.00  0.00    -0.126 A  
HETATM   25  C   UNL     1      -9.147  10.510  68.991  1.00  0.00    -0.188 A  
HETATM   26  C   UNL     1     -10.046  11.446  68.378  1.00  0.00    -0.207 A  
HETATM   27  C   UNL     1     -11.444  11.639  68.425  1.00  0.00    -0.360 A  
HETATM   28  C   UNL     1     -12.027  12.671  67.681  1.00  0.00    -0.309 A  
HETATM   29  C   UNL     1     -11.236  13.506  66.895  1.00  0.00    -0.329 A  
HETATM   30  C   UNL     1      -9.849  13.340  66.833  1.00  0.00    -0.247 A  
HETATM   31  C   UNL     1      -9.286  12.304  67.589  1.00  0.00    -0.186 A  
HETATM   32  N   UNL     1      -7.976  11.922  67.725  1.00  0.00    -0.134 NA 
HETATM   33  H   UNL     1      -7.191  12.377  67.258  1.00  0.00     0.000 HD 
ENDBRANCH  19  20
ENDBRANCH  18  19
ENDBRANCH  15  18
ENDBRANCH  14  15
ENDBRANCH  12  14
ENDBRANCH  11  12
ENDBRANCH  10  11
ENDBRANCH   9  10
ENDBRANCH   8   9
ENDBRANCH   2   3
TORSDOF 10
ENDMDL
MODEL      280
REMARK 921   NORMALIZED FREE ENERGY PREDICTED BY IDOCK:   -4.06 KCAL/MOL
REMARK 922        TOTAL FREE ENERGY PREDICTED BY IDOCK:   -8.27 KCAL/MOL
REMARK 923 INTER-LIGAND FREE ENERGY PREDICTED BY IDOCK:   -7.46 KCAL/MOL
REMARK 924 INTRA-LIGAND FREE ENERGY PREDICTED BY IDOCK:   -0.82 KCAL/MOL
REMARK 927      BINDING AFFINITY PREDICTED BY RF-SCORE:    0.00 PKD
ROOT
HETATM    1  C   UNL     1     -11.729  12.624  68.401  1.00  0.00    -0.333 C  
HETATM    2  O   UNL     1     -11.390  12.789  67.026  1.00  0.00    -0.281 OA 
ENDROOT
BRANCH   2   3
HETATM    3  C   UNL     1     -10.675  13.917  66.710  1.00  0.00    -0.281 A  
HETATM    4  C   UNL     1     -11.251  14.961  65.966  1.00  0.00    -0.327 A  
HETATM    5  C   UNL     1     -10.535  16.126  65.692  1.00  0.00    -0.402 A  
HETATM    6  C   UNL     1      -9.225  16.255  66.133  1.00  0.00    -0.376 A  
HETATM    7  C   UNL     1      -8.626  15.206  66.828  1.00  0.00    -0.297 A  
HETATM    8  C   UNL     1      -9.331  14.027  67.115  1.00  0.00    -0.242 A  
BRANCH   8   9
HETATM    9  O   UNL     1      -8.560  13.123  67.808  1.00  0.00    -0.163 OA 
BRANCH   9  10
HETATM   10  C   UNL     1      -7.858  12.150  67.046  1.00  0.00    -0.123 C  
BRANCH  10  11
HETATM   11  C   UNL     1      -6.684  11.582  67.862  1.00  0.00    -0.065 C  
BRANCH  11  12
HETATM   12  N   UNL     1      -6.793  10.137  68.136  1.00  0.00    -0.066 NA 
HETATM   13  H   UNL     1      -6.694   9.591  67.280  1.00  0.00     0.000 HD 
BRANCH  12  14
HETATM   14  C   UNL     1      -5.835   9.688  69.169  1.00  0.00    -0.035 C  
BRANCH  14  15
HETATM   15  C   UNL     1      -6.531   9.329  70.500  1.00  0.00    -0.067 C  
HETATM   16  O   UNL     1      -5.994  10.139  71.551  1.00  0.00    -0.295 OA 
HETATM   17  H   UNL     1      -6.422   9.918  72.370  1.00  0.00     0.000 HD 
BRANCH  15  18
HETATM   18  C   UNL     1      -8.047   9.531  70.378  1.00  0.00    -0.183 C  
BRANCH  18  19
HETATM   19  O   UNL     1      -8.688   9.339  71.635  1.00  0.00    -0.312 OA 
BRANCH  19  20
HETATM   20  C   UNL     1     -10.049   9.147  71.589  1.00  0.00    -0.276 A  
HETATM   21  C   UNL     1     -10.962  10.045  71.005  1.00  0.00    -0.267 A  
HETATM   22  C   UNL     1     -12.325   9.771  70.968  1.00  0.00    -0.422 A  
HETATM   23  C   UNL     1     -12.838   8.594  71.510  1.00  0.00    -0.351 A  
HETATM   24  C   UNL     1     -11.927   7.708  72.098  1.00  0.00    -0.302 A  
HETATM   25  C   UNL     1     -10.554   7.953  72.158  1.00  0.00    -0.312 A  
HETATM   26  C   UNL     1      -9.956   6.843  72.844  1.00  0.00    -0.204 A  
HETATM   27  C   UNL     1      -8.635   6.522  73.226  1.00  0.00    -0.127 A  
HETATM   28  C   UNL     1      -8.381   5.322  73.899  1.00  0.00    -0.110 A  
HETATM   29  C   UNL     1      -9.422   4.444  74.192  1.00  0.00    -0.123 A  
HETATM   30  C   UNL     1     -10.740   4.739  73.830  1.00  0.00    -0.359 A  
HETATM   31  C   UNL     1     -10.973   5.948  73.161  1.00  0.00    -0.253 A  
HETATM   32  N   UNL     1     -12.146   6.491  72.703  1.00  0.00    -0.503 NA 
HETATM   33  H   UNL     1     -13.061   6.051  72.799  1.00  0.00     0.000 HD 
ENDBRANCH  19  20
ENDBRANCH  18  19
ENDBRANCH  15  18
ENDBRANCH  14  15
ENDBRANCH  12  14
ENDBRANCH  11  12
ENDBRANCH  10  11
ENDBRANCH   9  10
ENDBRANCH   8   9
ENDBRANCH   2   3
TORSDOF 10
ENDMDL
MODEL      281
REMARK 921   NORMALIZED FREE ENERGY PREDICTED BY IDOCK:   -4.04 KCAL/MOL
REMARK 922        TOTAL FREE ENERGY PREDICTED BY IDOCK:   -8.25 KCAL/MOL
REMARK 923 INTER-LIGAND FREE ENERGY PREDICTED BY IDOCK:   -6.71 KCAL/MOL
REMARK 924 INTRA-LIGAND FREE ENERGY PREDICTED BY IDOCK:   -1.54 KCAL/MOL
REMARK 927      BINDING AFFINITY PREDICTED BY RF-SCORE:    0.00 PKD
ROOT
HETATM    1  C   UNL     1      -8.485  10.733  62.933  1.00  0.00    -0.156 C  
HETATM    2  O   UNL     1      -9.304  10.225  63.984  1.00  0.00    -0.245 OA 
ENDROOT
BRANCH   2   3
HETATM    3  C   UNL     1      -8.672   9.450  64.924  1.00  0.00    -0.190 A  
HETATM    4  C   UNL     1      -8.694   8.048  64.849  1.00  0.00     0.085 A  
HETATM    5  C   UNL     1      -8.007   7.268  65.779  1.00  0.00    -0.122 A  
HETATM    6  C   UNL     1      -7.311   7.878  66.814  1.00  0.00    -0.089 A  
HETATM    7  C   UNL     1      -7.324   9.266  66.929  1.00  0.00    -0.090 A  
HETATM    8  C   UNL     1      -8.007  10.067  66.002  1.00  0.00    -0.118 A  
BRANCH   8   9
HETATM    9  O   UNL     1      -7.892  11.405  66.295  1.00  0.00    -0.121 OA 
BRANCH   9  10
HETATM   10  C   UNL     1      -7.688  11.757  67.657  1.00  0.00    -0.137 C  
BRANCH  10  11
HETATM   11  C   UNL     1      -8.530  12.992  68.019  1.00  0.00    -0.181 C  
BRANCH  11  12
HETATM   12  N   UNL     1      -9.701  13.191  67.146  1.00  0.00    -0.229 NA 
HETATM   13  H   UNL     1      -9.520  12.851  66.202  1.00  0.00     0.000 HD 
BRANCH  12  14
HETATM   14  C   UNL     1     -10.928  12.582  67.706  1.00  0.00    -0.234 C  
BRANCH  14  15
HETATM   15  C   UNL     1     -11.479  13.373  68.912  1.00  0.00    -0.304 C  
HETATM   16  O   UNL     1     -12.399  14.366  68.449  1.00  0.00    -0.600 OA 
HETATM   17  H   UNL     1     -12.739  14.852  69.192  1.00  0.00     0.000 HD 
BRANCH  15  18
HETATM   18  C   UNL     1     -12.158  12.422  69.906  1.00  0.00    -0.247 C  
BRANCH  18  19
HETATM   19  O   UNL     1     -11.534  11.142  69.892  1.00  0.00    -0.274 OA 
BRANCH  19  20
HETATM   20  C   UNL     1     -11.998  10.240  70.820  1.00  0.00    -0.360 A  
HETATM   21  C   UNL     1     -13.328  10.177  71.275  1.00  0.00    -0.394 A  
HETATM   22  C   UNL     1     -13.735   9.217  72.197  1.00  0.00    -0.517 A  
HETATM   23  C   UNL     1     -12.837   8.280  72.703  1.00  0.00    -0.104 A  
HETATM   24  C   UNL     1     -11.512   8.352  72.255  1.00  0.00    -0.384 A  
HETATM   25  C   UNL     1     -11.069   9.305  71.336  1.00  0.00    -0.437 A  
HETATM   26  C   UNL     1      -9.665   9.080  71.138  1.00  0.00    -0.369 A  
HETATM   27  C   UNL     1      -8.670   9.712  70.362  1.00  0.00    -0.213 A  
HETATM   28  C   UNL     1      -7.358   9.227  70.389  1.00  0.00    -0.111 A  
HETATM   29  C   UNL     1      -7.029   8.126  71.176  1.00  0.00    -0.053 A  
HETATM   30  C   UNL     1      -7.994   7.483  71.958  1.00  0.00    -0.103 A  
HETATM   31  C   UNL     1      -9.300   7.988  71.920  1.00  0.00    -0.167 A  
HETATM   32  N   UNL     1     -10.427   7.570  72.580  1.00  0.00    -0.244 NA 
HETATM   33  H   UNL     1     -10.457   6.783  73.229  1.00  0.00     0.000 HD 
ENDBRANCH  19  20
ENDBRANCH  18  19
ENDBRANCH  15  18
ENDBRANCH  14  15
ENDBRANCH  12  14
ENDBRANCH  11  12
ENDBRANCH  10  11
ENDBRANCH   9  10
ENDBRANCH   8   9
ENDBRANCH   2   3
TORSDOF 10
ENDMDL
MODEL      282
REMARK 921   NORMALIZED FREE ENERGY PREDICTED BY IDOCK:   -4.04 KCAL/MOL
REMARK 922        TOTAL FREE ENERGY PREDICTED BY IDOCK:   -8.24 KCAL/MOL
REMARK 923 INTER-LIGAND FREE ENERGY PREDICTED BY IDOCK:   -6.93 KCAL/MOL
REMARK 924 INTRA-LIGAND FREE ENERGY PREDICTED BY IDOCK:   -1.31 KCAL/MOL
REMARK 927      BINDING AFFINITY PREDICTED BY RF-SCORE:    0.00 PKD
ROOT
HETATM    1  C   UNL     1      -7.620   8.308  68.221  1.00  0.00    -0.101 C  
HETATM    2  O   UNL     1      -7.577   9.544  67.510  1.00  0.00    -0.094 OA 
ENDROOT
BRANCH   2   3
HETATM    3  C   UNL     1      -7.195   9.473  66.194  1.00  0.00    -0.093 A  
HETATM    4  C   UNL     1      -6.134   8.647  65.786  1.00  0.00    -0.052 A  
HETATM    5  C   UNL     1      -5.784   8.541  64.440  1.00  0.00    -0.064 A  
HETATM    6  C   UNL     1      -6.471   9.279  63.485  1.00  0.00    -0.091 A  
HETATM    7  C   UNL     1      -7.491  10.141  63.883  1.00  0.00    -0.121 A  
HETATM    8  C   UNL     1      -7.859  10.259  65.232  1.00  0.00    -0.145 A  
BRANCH   8   9
HETATM    9  O   UNL     1      -8.885  11.157  65.408  1.00  0.00    -0.180 OA 
BRANCH   9  10
HETATM   10  C   UNL     1     -10.212  10.649  65.341  1.00  0.00    -0.273 C  
BRANCH  10  11
HETATM   11  C   UNL     1     -11.039  11.166  66.530  1.00  0.00    -0.167 C  
BRANCH  11  12
HETATM   12  N   UNL     1     -11.518  12.551  66.365  1.00  0.00    -0.343 NA 
HETATM   13  H   UNL     1     -10.744  13.215  66.394  1.00  0.00     0.000 HD 
BRANCH  12  14
HETATM   14  C   UNL     1     -12.324  12.724  65.136  1.00  0.00    -0.496 C  
BRANCH  14  15
HETATM   15  C   UNL     1     -11.662  13.692  64.131  1.00  0.00    -0.386 C  
HETATM   16  O   UNL     1     -12.626  14.655  63.694  1.00  0.00    -1.017 OA 
HETATM   17  H   UNL     1     -12.219  15.251  63.076  1.00  0.00     0.000 HD 
BRANCH  15  18
HETATM   18  C   UNL     1     -10.455  14.384  64.776  1.00  0.00    -0.367 C  
BRANCH  18  19
HETATM   19  O   UNL     1     -10.805  14.949  66.035  1.00  0.00    -0.313 OA 
BRANCH  19  20
HETATM   20  C   UNL     1     -10.253  16.177  66.314  1.00  0.00    -0.320 A  
HETATM   21  C   UNL     1     -10.760  17.404  65.849  1.00  0.00    -0.123 A  
HETATM   22  C   UNL     1     -10.166  18.614  66.196  1.00  0.00    -0.450 A  
HETATM   23  C   UNL     1      -9.043  18.653  67.021  1.00  0.00    -0.295 A  
HETATM   24  C   UNL     1      -8.535  17.429  67.474  1.00  0.00    -0.214 A  
HETATM   25  C   UNL     1      -9.103  16.198  67.141  1.00  0.00    -0.218 A  
HETATM   26  C   UNL     1      -8.305  15.182  67.766  1.00  0.00    -0.159 A  
HETATM   27  C   UNL     1      -8.353  13.771  67.788  1.00  0.00    -0.180 A  
HETATM   28  C   UNL     1      -7.400  13.056  68.522  1.00  0.00    -0.115 A  
HETATM   29  C   UNL     1      -6.407  13.728  69.230  1.00  0.00    -0.110 A  
HETATM   30  C   UNL     1      -6.332  15.124  69.222  1.00  0.00    -0.117 A  
HETATM   31  C   UNL     1      -7.293  15.820  68.477  1.00  0.00    -0.124 A  
HETATM   32  N   UNL     1      -7.454  17.169  68.284  1.00  0.00    -0.208 NA 
HETATM   33  H   UNL     1      -6.851  17.885  68.689  1.00  0.00     0.000 HD 
ENDBRANCH  19  20
ENDBRANCH  18  19
ENDBRANCH  15  18
ENDBRANCH  14  15
ENDBRANCH  12  14
ENDBRANCH  11  12
ENDBRANCH  10  11
ENDBRANCH   9  10
ENDBRANCH   8   9
ENDBRANCH   2   3
TORSDOF 10
ENDMDL
MODEL      283
REMARK 921   NORMALIZED FREE ENERGY PREDICTED BY IDOCK:   -4.03 KCAL/MOL
REMARK 922        TOTAL FREE ENERGY PREDICTED BY IDOCK:   -8.24 KCAL/MOL
REMARK 923 INTER-LIGAND FREE ENERGY PREDICTED BY IDOCK:   -7.08 KCAL/MOL
REMARK 924 INTRA-LIGAND FREE ENERGY PREDICTED BY IDOCK:   -1.16 KCAL/MOL
REMARK 927      BINDING AFFINITY PREDICTED BY RF-SCORE:    0.00 PKD
ROOT
HETATM    1  C   UNL     1     -11.448  15.798  70.424  1.00  0.00    -0.365 C  
HETATM    2  O   UNL     1     -10.401  15.132  69.721  1.00  0.00    -0.245 OA 
ENDROOT
BRANCH   2   3
HETATM    3  C   UNL     1     -10.246  15.472  68.401  1.00  0.00    -0.215 A  
HETATM    4  C   UNL     1     -10.520  16.772  67.945  1.00  0.00    -0.335 A  
HETATM    5  C   UNL     1     -10.311  17.123  66.612  1.00  0.00    -0.310 A  
HETATM    6  C   UNL     1      -9.852  16.174  65.708  1.00  0.00    -0.354 A  
HETATM    7  C   UNL     1      -9.626  14.868  66.137  1.00  0.00    -0.340 A  
HETATM    8  C   UNL     1      -9.827  14.496  67.475  1.00  0.00    -0.222 A  
BRANCH   8   9
HETATM    9  O   UNL     1      -9.545  13.168  67.688  1.00  0.00    -0.198 OA 
BRANCH   9  10
HETATM   10  C   UNL     1      -8.257  12.851  68.201  1.00  0.00    -0.163 C  
BRANCH  10  11
HETATM   11  C   UNL     1      -7.707  11.589  67.514  1.00  0.00    -0.132 C  
BRANCH  11  12
HETATM   12  N   UNL     1      -7.762  11.641  66.041  1.00  0.00    -0.348 NA 
HETATM   13  H   UNL     1      -6.849  11.868  65.646  1.00  0.00     0.000 HD 
BRANCH  12  14
HETATM   14  C   UNL     1      -8.303  10.396  65.455  1.00  0.00    -0.168 C  
BRANCH  14  15
HETATM   15  C   UNL     1      -9.844  10.329  65.536  1.00  0.00    -0.282 C  
HETATM   16  O   UNL     1     -10.391  10.362  64.214  1.00  0.00    -0.373 OA 
HETATM   17  H   UNL     1     -11.339  10.321  64.264  1.00  0.00     0.000 HD 
BRANCH  15  18
HETATM   18  C   UNL     1     -10.283   9.060  66.276  1.00  0.00    -0.167 C  
BRANCH  18  19
HETATM   19  O   UNL     1      -9.788   9.052  67.611  1.00  0.00    -0.157 OA 
BRANCH  19  20
HETATM   20  C   UNL     1      -9.275   7.855  68.052  1.00  0.00    -0.131 A  
HETATM   21  C   UNL     1      -8.376   7.055  67.322  1.00  0.00    -0.122 A  
HETATM   22  C   UNL     1      -7.874   5.867  67.844  1.00  0.00    -0.104 A  
HETATM   23  C   UNL     1      -8.243   5.425  69.113  1.00  0.00    -0.093 A  
HETATM   24  C   UNL     1      -9.145   6.219  69.832  1.00  0.00    -0.144 A  
HETATM   25  C   UNL     1      -9.673   7.413  69.337  1.00  0.00    -0.159 A  
HETATM   26  C   UNL     1     -10.565   7.927  70.337  1.00  0.00    -0.228 A  
HETATM   27  C   UNL     1     -11.398   9.065  70.418  1.00  0.00    -0.242 A  
HETATM   28  C   UNL     1     -12.160   9.286  71.571  1.00  0.00    -0.435 A  
HETATM   29  C   UNL     1     -12.101   8.391  72.636  1.00  0.00    -0.324 A  
HETATM   30  C   UNL     1     -11.290   7.253  72.581  1.00  0.00    -0.333 A  
HETATM   31  C   UNL     1     -10.538   7.049  71.416  1.00  0.00    -0.217 A  
HETATM   32  N   UNL     1      -9.679   6.032  71.087  1.00  0.00    -0.175 NA 
HETATM   33  H   UNL     1      -9.463   5.240  71.693  1.00  0.00     0.000 HD 
ENDBRANCH  19  20
ENDBRANCH  18  19
ENDBRANCH  15  18
ENDBRANCH  14  15
ENDBRANCH  12  14
ENDBRANCH  11  12
ENDBRANCH  10  11
ENDBRANCH   9  10
ENDBRANCH   8   9
ENDBRANCH   2   3
TORSDOF 10
ENDMDL
MODEL      284
REMARK 921   NORMALIZED FREE ENERGY PREDICTED BY IDOCK:   -4.01 KCAL/MOL
REMARK 922        TOTAL FREE ENERGY PREDICTED BY IDOCK:   -8.20 KCAL/MOL
REMARK 923 INTER-LIGAND FREE ENERGY PREDICTED BY IDOCK:   -6.25 KCAL/MOL
REMARK 924 INTRA-LIGAND FREE ENERGY PREDICTED BY IDOCK:   -1.95 KCAL/MOL
REMARK 927      BINDING AFFINITY PREDICTED BY RF-SCORE:    0.00 PKD
ROOT
HETATM    1  C   UNL     1     -10.876   8.018  67.005  1.00  0.00    -0.042 C  
HETATM    2  O   UNL     1     -10.738   6.777  67.692  1.00  0.00    -0.228 OA 
ENDROOT
BRANCH   2   3
HETATM    3  C   UNL     1      -9.594   6.065  67.432  1.00  0.00    -0.112 A  
HETATM    4  C   UNL     1      -9.116   5.905  66.121  1.00  0.00    -0.160 A  
HETATM    5  C   UNL     1      -7.926   5.223  65.870  1.00  0.00    -0.105 A  
HETATM    6  C   UNL     1      -7.210   4.666  66.921  1.00  0.00    -0.076 A  
HETATM    7  C   UNL     1      -7.701   4.774  68.221  1.00  0.00    -0.081 A  
HETATM    8  C   UNL     1      -8.894   5.458  68.494  1.00  0.00    -0.100 A  
BRANCH   8   9
HETATM    9  O   UNL     1      -9.197   5.449  69.835  1.00  0.00    -0.131 OA 
BRANCH   9  10
HETATM   10  C   UNL     1      -8.405   6.267  70.686  1.00  0.00    -0.133 C  
BRANCH  10  11
HETATM   11  C   UNL     1      -8.817   7.742  70.540  1.00  0.00    -0.145 C  
BRANCH  11  12
HETATM   12  N   UNL     1      -7.807   8.578  69.865  1.00  0.00    -0.093 NA 
HETATM   13  H   UNL     1      -7.533   8.175  68.969  1.00  0.00     0.000 HD 
BRANCH  12  14
HETATM   14  C   UNL     1      -8.254   9.979  69.706  1.00  0.00    -0.178 C  
BRANCH  14  15
HETATM   15  C   UNL     1      -7.139  10.893  69.152  1.00  0.00    -0.109 C  
HETATM   16  O   UNL     1      -5.863  10.374  69.541  1.00  0.00    -0.037 OA 
HETATM   17  H   UNL     1      -5.177  10.936  69.201  1.00  0.00     0.000 HD 
BRANCH  15  18
HETATM   18  C   UNL     1      -7.243  10.994  67.625  1.00  0.00    -0.093 C  
BRANCH  18  19
HETATM   19  O   UNL     1      -8.222  10.091  67.122  1.00  0.00    -0.117 OA 
BRANCH  19  20
HETATM   20  C   UNL     1      -8.102   9.758  65.794  1.00  0.00    -0.119 A  
HETATM   21  C   UNL     1      -7.100   8.920  65.269  1.00  0.00    -0.080 A  
HETATM   22  C   UNL     1      -7.056   8.601  63.915  1.00  0.00    -0.094 A  
HETATM   23  C   UNL     1      -8.007   9.101  63.027  1.00  0.00    -0.147 A  
HETATM   24  C   UNL     1      -8.997   9.942  63.552  1.00  0.00    -0.252 A  
HETATM   25  C   UNL     1      -9.067  10.287  64.902  1.00  0.00    -0.250 A  
HETATM   26  C   UNL     1     -10.188  11.170  65.055  1.00  0.00    -0.354 A  
HETATM   27  C   UNL     1     -10.752  11.860  66.150  1.00  0.00    -0.318 A  
HETATM   28  C   UNL     1     -11.883  12.660  65.958  1.00  0.00    -0.492 A  
HETATM   29  C   UNL     1     -12.455  12.779  64.693  1.00  0.00    -0.525 A  
HETATM   30  C   UNL     1     -11.915  12.111  63.590  1.00  0.00    -0.628 A  
HETATM   31  C   UNL     1     -10.779  11.319  63.805  1.00  0.00    -0.379 A  
HETATM   32  N   UNL     1     -10.044  10.572  62.920  1.00  0.00    -0.670 NA 
HETATM   33  H   UNL     1     -10.247  10.494  61.923  1.00  0.00     0.000 HD 
ENDBRANCH  19  20
ENDBRANCH  18  19
ENDBRANCH  15  18
ENDBRANCH  14  15
ENDBRANCH  12  14
ENDBRANCH  11  12
ENDBRANCH  10  11
ENDBRANCH   9  10
ENDBRANCH   8   9
ENDBRANCH   2   3
TORSDOF 10
ENDMDL
MODEL      285
REMARK 921   NORMALIZED FREE ENERGY PREDICTED BY IDOCK:   -4.00 KCAL/MOL
REMARK 922        TOTAL FREE ENERGY PREDICTED BY IDOCK:   -8.19 KCAL/MOL
REMARK 923 INTER-LIGAND FREE ENERGY PREDICTED BY IDOCK:   -7.36 KCAL/MOL
REMARK 924 INTRA-LIGAND FREE ENERGY PREDICTED BY IDOCK:   -0.83 KCAL/MOL
REMARK 927      BINDING AFFINITY PREDICTED BY RF-SCORE:    0.00 PKD
ROOT
HETATM    1  C   UNL     1     -11.238   5.661  72.886  1.00  0.00    -0.290 C  
HETATM    2  O   UNL     1      -9.896   5.217  73.073  1.00  0.00    -0.152 OA 
ENDROOT
BRANCH   2   3
HETATM    3  C   UNL     1      -9.242   4.775  71.951  1.00  0.00    -0.137 A  
HETATM    4  C   UNL     1      -9.286   3.424  71.566  1.00  0.00    -0.210 A  
HETATM    5  C   UNL     1      -8.662   2.990  70.397  1.00  0.00    -0.127 A  
HETATM    6  C   UNL     1      -7.961   3.894  69.609  1.00  0.00    -0.058 A  
HETATM    7  C   UNL     1      -7.867   5.226  70.007  1.00  0.00    -0.080 A  
HETATM    8  C   UNL     1      -8.490   5.682  71.178  1.00  0.00    -0.127 A  
BRANCH   8   9
HETATM    9  O   UNL     1      -8.277   7.024  71.386  1.00  0.00    -0.108 OA 
BRANCH   9  10
HETATM   10  C   UNL     1      -7.790   7.782  70.286  1.00  0.00    -0.091 C  
BRANCH  10  11
HETATM   11  C   UNL     1      -8.962   8.277  69.422  1.00  0.00    -0.147 C  
BRANCH  11  12
HETATM   12  N   UNL     1      -9.630   9.479  69.956  1.00  0.00    -0.222 NA 
HETATM   13  H   UNL     1      -9.960  10.082  69.203  1.00  0.00     0.000 HD 
BRANCH  12  14
HETATM   14  C   UNL     1     -10.725   9.144  70.892  1.00  0.00    -0.275 C  
BRANCH  14  15
HETATM   15  C   UNL     1     -12.120   9.368  70.268  1.00  0.00     0.136 C  
HETATM   16  O   UNL     1     -13.127   9.091  71.246  1.00  0.00    -0.447 OA 
HETATM   17  H   UNL     1     -13.986   9.229  70.862  1.00  0.00     0.000 HD 
BRANCH  15  18
HETATM   18  C   UNL     1     -12.246  10.805  69.749  1.00  0.00    -0.288 C  
BRANCH  18  19
HETATM   19  O   UNL     1     -11.580  11.719  70.615  1.00  0.00    -0.087 OA 
BRANCH  19  20
HETATM   20  C   UNL     1     -12.255  12.885  70.886  1.00  0.00    -0.198 A  
HETATM   21  C   UNL     1     -13.197  13.040  71.920  1.00  0.00    -0.527 A  
HETATM   22  C   UNL     1     -13.821  14.260  72.157  1.00  0.00    -0.589 A  
HETATM   23  C   UNL     1     -13.535  15.379  71.376  1.00  0.00    -0.607 A  
HETATM   24  C   UNL     1     -12.604  15.218  70.342  1.00  0.00    -0.375 A  
HETATM   25  C   UNL     1     -11.964  14.008  70.073  1.00  0.00    -0.404 A  
HETATM   26  C   UNL     1     -11.107  14.224  68.942  1.00  0.00    -0.283 A  
HETATM   27  C   UNL     1     -10.236  13.400  68.198  1.00  0.00    -0.246 A  
HETATM   28  C   UNL     1      -9.520  13.938  67.123  1.00  0.00    -0.246 A  
HETATM   29  C   UNL     1      -9.662  15.282  66.784  1.00  0.00    -0.249 A  
HETATM   30  C   UNL     1     -10.522  16.120  67.501  1.00  0.00    -0.302 A  
HETATM   31  C   UNL     1     -11.233  15.559  68.570  1.00  0.00    -0.333 A  
HETATM   32  N   UNL     1     -12.137  16.133  69.426  1.00  0.00    -0.288 NA 
HETATM   33  H   UNL     1     -12.427  17.111  69.389  1.00  0.00     0.000 HD 
ENDBRANCH  19  20
ENDBRANCH  18  19
ENDBRANCH  15  18
ENDBRANCH  14  15
ENDBRANCH  12  14
ENDBRANCH  11  12
ENDBRANCH  10  11
ENDBRANCH   9  10
ENDBRANCH   8   9
ENDBRANCH   2   3
TORSDOF 10
ENDMDL
MODEL      286
REMARK 921   NORMALIZED FREE ENERGY PREDICTED BY IDOCK:   -3.99 KCAL/MOL
REMARK 922        TOTAL FREE ENERGY PREDICTED BY IDOCK:   -8.17 KCAL/MOL
REMARK 923 INTER-LIGAND FREE ENERGY PREDICTED BY IDOCK:   -7.13 KCAL/MOL
REMARK 924 INTRA-LIGAND FREE ENERGY PREDICTED BY IDOCK:   -1.03 KCAL/MOL
REMARK 927      BINDING AFFINITY PREDICTED BY RF-SCORE:    0.00 PKD
ROOT
HETATM    1  C   UNL     1     -10.477   5.517  70.402  1.00  0.00    -0.286 C  
HETATM    2  O   UNL     1     -10.566   6.748  71.117  1.00  0.00    -0.220 OA 
ENDROOT
BRANCH   2   3
HETATM    3  C   UNL     1      -9.477   7.579  71.030  1.00  0.00    -0.160 A  
HETATM    4  C   UNL     1      -8.286   7.293  71.717  1.00  0.00    -0.105 A  
HETATM    5  C   UNL     1      -7.166   8.114  71.584  1.00  0.00    -0.083 A  
HETATM    6  C   UNL     1      -7.230   9.248  70.785  1.00  0.00    -0.126 A  
HETATM    7  C   UNL     1      -8.422   9.570  70.140  1.00  0.00    -0.227 A  
HETATM    8  C   UNL     1      -9.557   8.755  70.259  1.00  0.00    -0.177 A  
BRANCH   8   9
HETATM    9  O   UNL     1     -10.623   9.249  69.544  1.00  0.00    -0.217 OA 
BRANCH   9  10
HETATM   10  C   UNL     1     -10.791  10.660  69.519  1.00  0.00    -0.259 C  
BRANCH  10  11
HETATM   11  C   UNL     1     -11.258  11.116  68.126  1.00  0.00    -0.292 C  
BRANCH  11  12
HETATM   12  N   UNL     1     -10.511  12.271  67.596  1.00  0.00    -0.211 NA 
HETATM   13  H   UNL     1     -10.690  13.110  68.148  1.00  0.00     0.000 HD 
BRANCH  12  14
HETATM   14  C   UNL     1      -9.061  12.002  67.490  1.00  0.00    -0.177 C  
BRANCH  14  15
HETATM   15  C   UNL     1      -8.217  13.295  67.537  1.00  0.00    -0.184 C  
HETATM   16  O   UNL     1      -6.938  13.049  66.945  1.00  0.00    -0.392 OA 
HETATM   17  H   UNL     1      -6.419  13.845  66.974  1.00  0.00     0.000 HD 
BRANCH  15  18
HETATM   18  C   UNL     1      -8.946  14.431  66.809  1.00  0.00    -0.233 C  
BRANCH  18  19
HETATM   19  O   UNL     1      -9.435  15.396  67.734  1.00  0.00    -0.203 OA 
BRANCH  19  20
HETATM   20  C   UNL     1      -9.512  16.687  67.268  1.00  0.00    -0.232 A  
HETATM   21  C   UNL     1     -10.467  17.145  66.341  1.00  0.00    -0.255 A  
HETATM   22  C   UNL     1     -10.505  18.475  65.934  1.00  0.00    -0.379 A  
HETATM   23  C   UNL     1      -9.596  19.406  66.433  1.00  0.00    -0.443 A  
HETATM   24  C   UNL     1      -8.641  18.944  67.349  1.00  0.00    -0.274 A  
HETATM   25  C   UNL     1      -8.571  17.617  67.773  1.00  0.00    -0.228 A  
HETATM   26  C   UNL     1      -7.466  17.522  68.684  1.00  0.00    -0.265 A  
HETATM   27  C   UNL     1      -6.885  16.464  69.417  1.00  0.00    -0.217 A  
HETATM   28  C   UNL     1      -5.785  16.715  70.244  1.00  0.00    -0.166 A  
HETATM   29  C   UNL     1      -5.261  18.001  70.349  1.00  0.00    -0.257 A  
HETATM   30  C   UNL     1      -5.813  19.067  69.631  1.00  0.00    -0.272 A  
HETATM   31  C   UNL     1      -6.911  18.792  68.805  1.00  0.00    -0.304 A  
HETATM   32  N   UNL     1      -7.635  19.627  67.993  1.00  0.00    -0.292 NA 
HETATM   33  H   UNL     1      -7.451  20.625  67.880  1.00  0.00     0.000 HD 
ENDBRANCH  19  20
ENDBRANCH  18  19
ENDBRANCH  15  18
ENDBRANCH  14  15
ENDBRANCH  12  14
ENDBRANCH  11  12
ENDBRANCH  10  11
ENDBRANCH   9  10
ENDBRANCH   8   9
ENDBRANCH   2   3
TORSDOF 10
ENDMDL
MODEL      287
REMARK 921   NORMALIZED FREE ENERGY PREDICTED BY IDOCK:   -3.99 KCAL/MOL
REMARK 922        TOTAL FREE ENERGY PREDICTED BY IDOCK:   -8.16 KCAL/MOL
REMARK 923 INTER-LIGAND FREE ENERGY PREDICTED BY IDOCK:   -7.02 KCAL/MOL
REMARK 924 INTRA-LIGAND FREE ENERGY PREDICTED BY IDOCK:   -1.15 KCAL/MOL
REMARK 927      BINDING AFFINITY PREDICTED BY RF-SCORE:    0.00 PKD
ROOT
HETATM    1  C   UNL     1     -11.477  15.945  70.294  1.00  0.00    -0.366 C  
HETATM    2  O   UNL     1     -11.856  15.647  68.952  1.00  0.00    -0.379 OA 
ENDROOT
BRANCH   2   3
HETATM    3  C   UNL     1     -11.020  16.113  67.969  1.00  0.00    -0.338 A  
HETATM    4  C   UNL     1     -10.660  17.469  67.899  1.00  0.00    -0.390 A  
HETATM    5  C   UNL     1      -9.770  17.926  66.928  1.00  0.00    -0.309 A  
HETATM    6  C   UNL     1      -9.247  17.040  65.995  1.00  0.00    -0.177 A  
HETATM    7  C   UNL     1      -9.636  15.702  66.023  1.00  0.00    -0.386 A  
HETATM    8  C   UNL     1     -10.528  15.223  66.993  1.00  0.00    -0.292 A  
BRANCH   8   9
HETATM    9  O   UNL     1     -10.778  13.880  66.845  1.00  0.00    -0.281 OA 
BRANCH   9  10
HETATM   10  C   UNL     1      -9.685  12.990  67.040  1.00  0.00    -0.235 C  
BRANCH  10  11
HETATM   11  C   UNL     1      -9.771  12.341  68.432  1.00  0.00    -0.191 C  
BRANCH  11  12
HETATM   12  N   UNL     1     -11.039  12.606  69.136  1.00  0.00    -0.387 NA 
HETATM   13  H   UNL     1     -11.518  13.415  68.741  1.00  0.00     0.000 HD 
BRANCH  12  14
HETATM   14  C   UNL     1     -11.926  11.422  69.161  1.00  0.00    -0.328 C  
BRANCH  14  15
HETATM   15  C   UNL     1     -11.932  10.721  70.537  1.00  0.00    -0.361 C  
HETATM   16  O   UNL     1     -13.282  10.459  70.930  1.00  0.00    -0.377 OA 
HETATM   17  H   UNL     1     -13.286  10.028  71.777  1.00  0.00     0.000 HD 
BRANCH  15  18
HETATM   18  C   UNL     1     -11.121   9.420  70.474  1.00  0.00    -0.273 C  
BRANCH  18  19
HETATM   19  O   UNL     1      -9.893   9.552  71.182  1.00  0.00    -0.251 OA 
BRANCH  19  20
HETATM   20  C   UNL     1      -8.816   8.891  70.641  1.00  0.00    -0.198 A  
HETATM   21  C   UNL     1      -7.991   9.408  69.625  1.00  0.00    -0.109 A  
HETATM   22  C   UNL     1      -6.898   8.695  69.144  1.00  0.00    -0.055 A  
HETATM   23  C   UNL     1      -6.579   7.438  69.653  1.00  0.00    -0.040 A  
HETATM   24  C   UNL     1      -7.407   6.922  70.658  1.00  0.00    -0.074 A  
HETATM   25  C   UNL     1      -8.515   7.608  71.159  1.00  0.00    -0.116 A  
HETATM   26  C   UNL     1      -9.122   6.765  72.150  1.00  0.00    -0.140 A  
HETATM   27  C   UNL     1     -10.258   6.885  72.979  1.00  0.00    -0.243 A  
HETATM   28  C   UNL     1     -10.581   5.853  73.866  1.00  0.00    -0.248 A  
HETATM   29  C   UNL     1      -9.788   4.710  73.937  1.00  0.00    -0.171 A  
HETATM   30  C   UNL     1      -8.660   4.562  73.124  1.00  0.00    -0.101 A  
HETATM   31  C   UNL     1      -8.357   5.605  72.239  1.00  0.00    -0.119 A  
HETATM   32  N   UNL     1      -7.335   5.725  71.333  1.00  0.00    -0.081 NA 
HETATM   33  H   UNL     1      -6.615   5.019  71.178  1.00  0.00     0.000 HD 
ENDBRANCH  19  20
ENDBRANCH  18  19
ENDBRANCH  15  18
ENDBRANCH  14  15
ENDBRANCH  12  14
ENDBRANCH  11  12
ENDBRANCH  10  11
ENDBRANCH   9  10
ENDBRANCH   8   9
ENDBRANCH   2   3
TORSDOF 10
ENDMDL
MODEL      288
REMARK 921   NORMALIZED FREE ENERGY PREDICTED BY IDOCK:   -3.97 KCAL/MOL
REMARK 922        TOTAL FREE ENERGY PREDICTED BY IDOCK:   -8.13 KCAL/MOL
REMARK 923 INTER-LIGAND FREE ENERGY PREDICTED BY IDOCK:   -6.64 KCAL/MOL
REMARK 924 INTRA-LIGAND FREE ENERGY PREDICTED BY IDOCK:   -1.49 KCAL/MOL
REMARK 927      BINDING AFFINITY PREDICTED BY RF-SCORE:    0.00 PKD
ROOT
HETATM    1  C   UNL     1      -5.792  11.839  68.433  1.00  0.00    -0.049 C  
HETATM    2  O   UNL     1      -6.925  12.699  68.536  1.00  0.00    -0.082 OA 
ENDROOT
BRANCH   2   3
HETATM    3  C   UNL     1      -6.675  13.984  68.948  1.00  0.00    -0.105 A  
HETATM    4  C   UNL     1      -5.466  14.327  69.575  1.00  0.00    -0.091 A  
HETATM    5  C   UNL     1      -5.197  15.644  69.945  1.00  0.00    -0.110 A  
HETATM    6  C   UNL     1      -6.145  16.634  69.719  1.00  0.00    -0.221 A  
HETATM    7  C   UNL     1      -7.369  16.297  69.144  1.00  0.00    -0.218 A  
HETATM    8  C   UNL     1      -7.656  14.978  68.763  1.00  0.00    -0.137 A  
BRANCH   8   9
HETATM    9  O   UNL     1      -8.912  14.862  68.216  1.00  0.00    -0.167 OA 
BRANCH   9  10
HETATM   10  C   UNL     1      -9.902  14.204  68.996  1.00  0.00    -0.025 C  
BRANCH  10  11
HETATM   11  C   UNL     1     -11.272  14.871  68.788  1.00  0.00    -0.275 C  
BRANCH  11  12
HETATM   12  N   UNL     1     -12.137  14.839  69.981  1.00  0.00    -0.310 NA 
HETATM   13  H   UNL     1     -12.779  15.632  69.992  1.00  0.00     0.000 HD 
BRANCH  12  14
HETATM   14  C   UNL     1     -12.867  13.559  70.111  1.00  0.00     0.136 C  
BRANCH  14  15
HETATM   15  C   UNL     1     -12.684  12.917  71.504  1.00  0.00    -0.239 C  
HETATM   16  O   UNL     1     -13.515  13.594  72.452  1.00  0.00    -0.496 OA 
HETATM   17  H   UNL     1     -13.402  13.199  73.309  1.00  0.00     0.000 HD 
BRANCH  15  18
HETATM   18  C   UNL     1     -13.026  11.423  71.449  1.00  0.00    -0.365 C  
BRANCH  18  19
HETATM   19  O   UNL     1     -12.597  10.848  70.219  1.00  0.00    -0.312 OA 
BRANCH  19  20
HETATM   20  C   UNL     1     -11.357  10.255  70.237  1.00  0.00    -0.323 A  
HETATM   21  C   UNL     1     -10.830   9.541  71.329  1.00  0.00    -0.413 A  
HETATM   22  C   UNL     1      -9.576   8.941  71.267  1.00  0.00    -0.348 A  
HETATM   23  C   UNL     1      -8.796   9.023  70.115  1.00  0.00    -0.196 A  
HETATM   24  C   UNL     1      -9.320   9.741  69.034  1.00  0.00    -0.161 A  
HETATM   25  C   UNL     1     -10.571  10.361  69.064  1.00  0.00    -0.247 A  
HETATM   26  C   UNL     1     -10.752  11.009  67.797  1.00  0.00    -0.270 A  
HETATM   27  C   UNL     1     -11.780  11.799  67.236  1.00  0.00    -0.293 A  
HETATM   28  C   UNL     1     -11.646  12.287  65.932  1.00  0.00    -0.450 A  
HETATM   29  C   UNL     1     -10.506  11.999  65.185  1.00  0.00    -0.328 A  
HETATM   30  C   UNL     1      -9.471  11.223  65.716  1.00  0.00    -0.252 A  
HETATM   31  C   UNL     1      -9.624  10.748  67.026  1.00  0.00    -0.169 A  
HETATM   32  N   UNL     1      -8.780   9.986  67.792  1.00  0.00    -0.125 NA 
HETATM   33  H   UNL     1      -7.869   9.645  67.482  1.00  0.00     0.000 HD 
ENDBRANCH  19  20
ENDBRANCH  18  19
ENDBRANCH  15  18
ENDBRANCH  14  15
ENDBRANCH  12  14
ENDBRANCH  11  12
ENDBRANCH  10  11
ENDBRANCH   9  10
ENDBRANCH   8   9
ENDBRANCH   2   3
TORSDOF 10
ENDMDL
MODEL      289
REMARK 921   NORMALIZED FREE ENERGY PREDICTED BY IDOCK:   -3.95 KCAL/MOL
REMARK 922        TOTAL FREE ENERGY PREDICTED BY IDOCK:   -8.11 KCAL/MOL
REMARK 923 INTER-LIGAND FREE ENERGY PREDICTED BY IDOCK:   -7.69 KCAL/MOL
REMARK 924 INTRA-LIGAND FREE ENERGY PREDICTED BY IDOCK:   -0.42 KCAL/MOL
REMARK 927      BINDING AFFINITY PREDICTED BY RF-SCORE:    0.00 PKD
ROOT
HETATM    1  C   UNL     1      -9.008   5.265  69.773  1.00  0.00    -0.111 C  
HETATM    2  O   UNL     1      -8.794   4.452  68.621  1.00  0.00    -0.096 OA 
ENDROOT
BRANCH   2   3
HETATM    3  C   UNL     1      -8.387   5.105  67.485  1.00  0.00    -0.106 A  
HETATM    4  C   UNL     1      -7.252   4.687  66.770  1.00  0.00    -0.080 A  
HETATM    5  C   UNL     1      -6.874   5.325  65.589  1.00  0.00    -0.061 A  
HETATM    6  C   UNL     1      -7.606   6.406  65.119  1.00  0.00    -0.089 A  
HETATM    7  C   UNL     1      -8.704   6.863  65.846  1.00  0.00    -0.146 A  
HETATM    8  C   UNL     1      -9.102   6.233  67.035  1.00  0.00    -0.123 A  
BRANCH   8   9
HETATM    9  O   UNL     1     -10.205   6.836  67.592  1.00  0.00    -0.151 OA 
BRANCH   9  10
HETATM   10  C   UNL     1      -9.996   8.061  68.283  1.00  0.00    -0.185 C  
BRANCH  10  11
HETATM   11  C   UNL     1     -10.670   9.219  67.528  1.00  0.00    -0.203 C  
BRANCH  11  12
HETATM   12  N   UNL     1     -11.632   9.982  68.343  1.00  0.00    -0.603 NA 
HETATM   13  H   UNL     1     -12.580   9.623  68.228  1.00  0.00     0.000 HD 
BRANCH  12  14
HETATM   14  C   UNL     1     -11.248  10.025  69.771  1.00  0.00    -0.258 C  
BRANCH  14  15
HETATM   15  C   UNL     1     -12.372  10.593  70.665  1.00  0.00    -0.369 C  
HETATM   16  O   UNL     1     -12.170  10.160  72.014  1.00  0.00    -0.257 OA 
HETATM   17  H   UNL     1     -12.862  10.509  72.564  1.00  0.00     0.000 HD 
BRANCH  15  18
HETATM   18  C   UNL     1     -12.395  12.124  70.582  1.00  0.00    -0.295 C  
BRANCH  18  19
HETATM   19  O   UNL     1     -12.016  12.569  69.284  1.00  0.00    -0.296 OA 
BRANCH  19  20
HETATM   20  C   UNL     1     -11.591  13.873  69.198  1.00  0.00    -0.313 A  
HETATM   21  C   UNL     1     -11.263  14.679  70.305  1.00  0.00    -0.199 A  
HETATM   22  C   UNL     1     -10.809  15.984  70.143  1.00  0.00    -0.349 A  
HETATM   23  C   UNL     1     -10.661  16.542  68.874  1.00  0.00    -0.337 A  
HETATM   24  C   UNL     1     -10.997  15.740  67.776  1.00  0.00    -0.314 A  
HETATM   25  C   UNL     1     -11.461  14.429  67.903  1.00  0.00    -0.346 A  
HETATM   26  C   UNL     1     -11.717  13.942  66.577  1.00  0.00    -0.414 A  
HETATM   27  C   UNL     1     -12.207  12.724  66.057  1.00  0.00    -0.380 A  
HETATM   28  C   UNL     1     -12.335  12.564  64.673  1.00  0.00    -0.547 A  
HETATM   29  C   UNL     1     -11.982  13.596  63.808  1.00  0.00    -0.425 A  
HETATM   30  C   UNL     1     -11.498  14.814  64.296  1.00  0.00    -0.159 A  
HETATM   31  C   UNL     1     -11.382  14.956  65.685  1.00  0.00    -0.325 A  
HETATM   32  N   UNL     1     -10.954  16.024  66.430  1.00  0.00    -0.151 NA 
HETATM   33  H   UNL     1     -10.643  16.914  66.039  1.00  0.00     0.000 HD 
ENDBRANCH  19  20
ENDBRANCH  18  19
ENDBRANCH  15  18
ENDBRANCH  14  15
ENDBRANCH  12  14
ENDBRANCH  11  12
ENDBRANCH  10  11
ENDBRANCH   9  10
ENDBRANCH   8   9
ENDBRANCH   2   3
TORSDOF 10
ENDMDL
MODEL      290
REMARK 921   NORMALIZED FREE ENERGY PREDICTED BY IDOCK:   -3.95 KCAL/MOL
REMARK 922        TOTAL FREE ENERGY PREDICTED BY IDOCK:   -8.10 KCAL/MOL
REMARK 923 INTER-LIGAND FREE ENERGY PREDICTED BY IDOCK:   -7.27 KCAL/MOL
REMARK 924 INTRA-LIGAND FREE ENERGY PREDICTED BY IDOCK:   -0.83 KCAL/MOL
REMARK 927      BINDING AFFINITY PREDICTED BY RF-SCORE:    0.00 PKD
ROOT
HETATM    1  C   UNL     1      -6.595  17.020  67.336  1.00  0.00    -0.151 C  
HETATM    2  O   UNL     1      -7.561  17.334  66.335  1.00  0.00    -0.257 OA 
ENDROOT
BRANCH   2   3
HETATM    3  C   UNL     1      -8.492  18.285  66.668  1.00  0.00    -0.265 A  
HETATM    4  C   UNL     1      -8.227  19.655  66.503  1.00  0.00    -0.350 A  
HETATM    5  C   UNL     1      -9.196  20.613  66.796  1.00  0.00    -0.262 A  
HETATM    6  C   UNL     1     -10.435  20.220  67.284  1.00  0.00    -0.328 A  
HETATM    7  C   UNL     1     -10.692  18.867  67.501  1.00  0.00    -0.509 A  
HETATM    8  C   UNL     1      -9.730  17.888  67.209  1.00  0.00    -0.289 A  
BRANCH   8   9
HETATM    9  O   UNL     1     -10.184  16.622  67.492  1.00  0.00    -0.274 OA 
BRANCH   9  10
HETATM   10  C   UNL     1     -10.046  16.166  68.832  1.00  0.00    -0.238 C  
BRANCH  10  11
HETATM   11  C   UNL     1     -11.428  16.035  69.494  1.00  0.00    -0.326 C  
BRANCH  11  12
HETATM   12  N   UNL     1     -11.547  14.880  70.401  1.00  0.00    -0.267 NA 
HETATM   13  H   UNL     1     -11.942  15.156  71.301  1.00  0.00     0.000 HD 
BRANCH  12  14
HETATM   14  C   UNL     1     -12.318  13.770  69.799  1.00  0.00    -0.255 C  
BRANCH  14  15
HETATM   15  C   UNL     1     -11.735  12.386  70.159  1.00  0.00    -0.185 C  
HETATM   16  O   UNL     1     -12.804  11.482  70.454  1.00  0.00    -0.099 OA 
HETATM   17  H   UNL     1     -12.445  10.630  70.675  1.00  0.00     0.000 HD 
BRANCH  15  18
HETATM   18  C   UNL     1     -10.875  11.855  69.005  1.00  0.00    -0.190 C  
BRANCH  18  19
HETATM   19  O   UNL     1     -11.676  11.168  68.049  1.00  0.00    -0.517 OA 
BRANCH  19  20
HETATM   20  C   UNL     1     -11.026  10.759  66.909  1.00  0.00    -0.190 A  
HETATM   21  C   UNL     1     -10.746  11.590  65.808  1.00  0.00    -0.325 A  
HETATM   22  C   UNL     1     -10.057  11.115  64.697  1.00  0.00    -0.358 A  
HETATM   23  C   UNL     1      -9.617   9.794  64.634  1.00  0.00    -0.244 A  
HETATM   24  C   UNL     1      -9.906   8.968  65.727  1.00  0.00    -0.111 A  
HETATM   25  C   UNL     1     -10.599   9.409  66.855  1.00  0.00    -0.238 A  
HETATM   26  C   UNL     1     -10.721   8.289  67.742  1.00  0.00    -0.165 A  
HETATM   27  C   UNL     1     -11.322   8.097  69.006  1.00  0.00     0.560 A  
HETATM   28  C   UNL     1     -11.254   6.844  69.623  1.00  0.00    -0.289 A  
HETATM   29  C   UNL     1     -10.598   5.785  68.999  1.00  0.00    -0.351 A  
HETATM   30  C   UNL     1      -9.998   5.945  67.746  1.00  0.00    -0.156 A  
HETATM   31  C   UNL     1     -10.081   7.207  67.144  1.00  0.00    -0.225 A  
HETATM   32  N   UNL     1      -9.601   7.642  65.935  1.00  0.00    -0.420 NA 
HETATM   33  H   UNL     1      -9.086   7.058  65.275  1.00  0.00     0.000 HD 
ENDBRANCH  19  20
ENDBRANCH  18  19
ENDBRANCH  15  18
ENDBRANCH  14  15
ENDBRANCH  12  14
ENDBRANCH  11  12
ENDBRANCH  10  11
ENDBRANCH   9  10
ENDBRANCH   8   9
ENDBRANCH   2   3
TORSDOF 10
ENDMDL
MODEL      291
REMARK 921   NORMALIZED FREE ENERGY PREDICTED BY IDOCK:   -3.93 KCAL/MOL
REMARK 922        TOTAL FREE ENERGY PREDICTED BY IDOCK:   -8.08 KCAL/MOL
REMARK 923 INTER-LIGAND FREE ENERGY PREDICTED BY IDOCK:   -7.27 KCAL/MOL
REMARK 924 INTRA-LIGAND FREE ENERGY PREDICTED BY IDOCK:   -0.81 KCAL/MOL
REMARK 927      BINDING AFFINITY PREDICTED BY RF-SCORE:    0.00 PKD
ROOT
HETATM    1  C   UNL     1     -11.584  11.696  68.053  1.00  0.00    -0.313 C  
HETATM    2  O   UNL     1     -12.400  12.798  67.665  1.00  0.00    -0.250 OA 
ENDROOT
BRANCH   2   3
HETATM    3  C   UNL     1     -11.848  13.675  66.766  1.00  0.00    -0.413 A  
HETATM    4  C   UNL     1     -12.405  13.858  65.489  1.00  0.00    -0.506 A  
HETATM    5  C   UNL     1     -11.868  14.788  64.599  1.00  0.00    -0.442 A  
HETATM    6  C   UNL     1     -10.750  15.528  64.960  1.00  0.00    -0.463 A  
HETATM    7  C   UNL     1     -10.157  15.318  66.204  1.00  0.00    -0.315 A  
HETATM    8  C   UNL     1     -10.685  14.390  67.114  1.00  0.00    -0.283 A  
BRANCH   8   9
HETATM    9  O   UNL     1      -9.955  14.339  68.278  1.00  0.00    -0.225 OA 
BRANCH   9  10
HETATM   10  C   UNL     1      -8.549  14.163  68.156  1.00  0.00    -0.175 C  
BRANCH  10  11
HETATM   11  C   UNL     1      -8.211  12.670  68.003  1.00  0.00    -0.167 C  
BRANCH  11  12
HETATM   12  N   UNL     1      -7.679  12.313  66.675  1.00  0.00    -0.380 NA 
HETATM   13  H   UNL     1      -6.669  12.174  66.708  1.00  0.00     0.000 HD 
BRANCH  12  14
HETATM   14  C   UNL     1      -8.362  11.137  66.094  1.00  0.00    -0.144 C  
BRANCH  14  15
HETATM   15  C   UNL     1      -7.742   9.804  66.567  1.00  0.00    -0.105 C  
HETATM   16  O   UNL     1      -6.434  10.049  67.092  1.00  0.00    -0.067 OA 
HETATM   17  H   UNL     1      -6.052   9.228  67.384  1.00  0.00     0.000 HD 
BRANCH  15  18
HETATM   18  C   UNL     1      -8.639   9.146  67.624  1.00  0.00    -0.117 C  
BRANCH  18  19
HETATM   19  O   UNL     1      -7.911   8.186  68.382  1.00  0.00    -0.114 OA 
BRANCH  19  20
HETATM   20  C   UNL     1      -8.314   6.880  68.238  1.00  0.00    -0.123 A  
HETATM   21  C   UNL     1      -7.911   6.032  67.190  1.00  0.00    -0.102 A  
HETATM   22  C   UNL     1      -8.335   4.708  67.123  1.00  0.00    -0.105 A  
HETATM   23  C   UNL     1      -9.177   4.173  68.096  1.00  0.00    -0.194 A  
HETATM   24  C   UNL     1      -9.583   5.023  69.133  1.00  0.00    -0.154 A  
HETATM   25  C   UNL     1      -9.182   6.356  69.228  1.00  0.00    -0.135 A  
HETATM   26  C   UNL     1      -9.809   6.905  70.396  1.00  0.00    -0.187 A  
HETATM   27  C   UNL     1      -9.811   8.180  71.002  1.00  0.00    -0.212 A  
HETATM   28  C   UNL     1     -10.544   8.389  72.175  1.00  0.00    -0.400 A  
HETATM   29  C   UNL     1     -11.271   7.347  72.747  1.00  0.00    -0.380 A  
HETATM   30  C   UNL     1     -11.290   6.075  72.166  1.00  0.00    -0.351 A  
HETATM   31  C   UNL     1     -10.552   5.889  70.989  1.00  0.00    -0.250 A  
HETATM   32  N   UNL     1     -10.401   4.770  70.211  1.00  0.00    -0.194 NA 
HETATM   33  H   UNL     1     -10.837   3.869  70.405  1.00  0.00     0.000 HD 
ENDBRANCH  19  20
ENDBRANCH  18  19
ENDBRANCH  15  18
ENDBRANCH  14  15
ENDBRANCH  12  14
ENDBRANCH  11  12
ENDBRANCH  10  11
ENDBRANCH   9  10
ENDBRANCH   8   9
ENDBRANCH   2   3
TORSDOF 10
ENDMDL
MODEL      292
REMARK 921   NORMALIZED FREE ENERGY PREDICTED BY IDOCK:   -3.93 KCAL/MOL
REMARK 922        TOTAL FREE ENERGY PREDICTED BY IDOCK:   -8.08 KCAL/MOL
REMARK 923 INTER-LIGAND FREE ENERGY PREDICTED BY IDOCK:   -6.90 KCAL/MOL
REMARK 924 INTRA-LIGAND FREE ENERGY PREDICTED BY IDOCK:   -1.17 KCAL/MOL
REMARK 927      BINDING AFFINITY PREDICTED BY RF-SCORE:    0.00 PKD
ROOT
HETATM    1  C   UNL     1      -8.316   8.148  72.849  1.00  0.00    -0.188 C  
HETATM    2  O   UNL     1      -7.635   7.141  72.104  1.00  0.00    -0.088 OA 
ENDROOT
BRANCH   2   3
HETATM    3  C   UNL     1      -8.362   6.019  71.797  1.00  0.00    -0.119 A  
HETATM    4  C   UNL     1      -8.988   5.258  72.798  1.00  0.00    -0.122 A  
HETATM    5  C   UNL     1      -9.768   4.149  72.474  1.00  0.00    -0.203 A  
HETATM    6  C   UNL     1      -9.910   3.765  71.147  1.00  0.00    -0.213 A  
HETATM    7  C   UNL     1      -9.252   4.481  70.149  1.00  0.00    -0.197 A  
HETATM    8  C   UNL     1      -8.466   5.602  70.455  1.00  0.00    -0.121 A  
BRANCH   8   9
HETATM    9  O   UNL     1      -7.909   6.162  69.330  1.00  0.00    -0.097 OA 
BRANCH   9  10
HETATM   10  C   UNL     1      -6.525   5.928  69.104  1.00  0.00    -0.042 C  
BRANCH  10  11
HETATM   11  C   UNL     1      -6.331   5.050  67.856  1.00  0.00    -0.040 C  
BRANCH  11  12
HETATM   12  N   UNL     1      -6.996   5.576  66.650  1.00  0.00    -0.063 NA 
HETATM   13  H   UNL     1      -8.005   5.439  66.695  1.00  0.00     0.000 HD 
BRANCH  12  14
HETATM   14  C   UNL     1      -6.660   6.994  66.397  1.00  0.00    -0.052 C  
BRANCH  14  15
HETATM   15  C   UNL     1      -7.682   7.683  65.466  1.00  0.00    -0.101 C  
HETATM   16  O   UNL     1      -8.748   6.774  65.177  1.00  0.00    -0.348 OA 
HETATM   17  H   UNL     1      -9.378   7.199  64.604  1.00  0.00     0.000 HD 
BRANCH  15  18
HETATM   18  C   UNL     1      -8.218   8.962  66.121  1.00  0.00    -0.116 C  
BRANCH  18  19
HETATM   19  O   UNL     1      -9.639   9.014  66.048  1.00  0.00    -0.247 OA 
BRANCH  19  20
HETATM   20  C   UNL     1     -10.185  10.264  65.882  1.00  0.00    -0.223 A  
HETATM   21  C   UNL     1     -10.161  10.992  64.678  1.00  0.00    -0.392 A  
HETATM   22  C   UNL     1     -10.761  12.243  64.573  1.00  0.00    -0.358 A  
HETATM   23  C   UNL     1     -11.410  12.823  65.662  1.00  0.00    -0.354 A  
HETATM   24  C   UNL     1     -11.423  12.100  66.862  1.00  0.00    -0.351 A  
HETATM   25  C   UNL     1     -10.827  10.845  67.003  1.00  0.00    -0.323 A  
HETATM   26  C   UNL     1     -11.026  10.433  68.363  1.00  0.00    -0.312 A  
HETATM   27  C   UNL     1     -10.648   9.296  69.109  1.00  0.00    -0.228 A  
HETATM   28  C   UNL     1     -11.017   9.196  70.455  1.00  0.00    -0.307 A  
HETATM   29  C   UNL     1     -11.754  10.211  71.061  1.00  0.00    -0.470 A  
HETATM   30  C   UNL     1     -12.137  11.350  70.347  1.00  0.00    -0.473 A  
HETATM   31  C   UNL     1     -11.754  11.432  69.002  1.00  0.00    -0.343 A  
HETATM   32  N   UNL     1     -11.978  12.421  68.079  1.00  0.00    -0.412 NA 
HETATM   33  H   UNL     1     -12.490  13.283  68.270  1.00  0.00     0.000 HD 
ENDBRANCH  19  20
ENDBRANCH  18  19
ENDBRANCH  15  18
ENDBRANCH  14  15
ENDBRANCH  12  14
ENDBRANCH  11  12
ENDBRANCH  10  11
ENDBRANCH   9  10
ENDBRANCH   8   9
ENDBRANCH   2   3
TORSDOF 10
ENDMDL
MODEL      293
REMARK 921   NORMALIZED FREE ENERGY PREDICTED BY IDOCK:   -3.92 KCAL/MOL
REMARK 922        TOTAL FREE ENERGY PREDICTED BY IDOCK:   -8.06 KCAL/MOL
REMARK 923 INTER-LIGAND FREE ENERGY PREDICTED BY IDOCK:   -6.92 KCAL/MOL
REMARK 924 INTRA-LIGAND FREE ENERGY PREDICTED BY IDOCK:   -1.14 KCAL/MOL
REMARK 927      BINDING AFFINITY PREDICTED BY RF-SCORE:    0.00 PKD
ROOT
HETATM    1  C   UNL     1      -7.541   6.012  69.625  1.00  0.00    -0.089 C  
HETATM    2  O   UNL     1      -8.476   7.072  69.814  1.00  0.00    -0.134 OA 
ENDROOT
BRANCH   2   3
HETATM    3  C   UNL     1      -9.451   6.859  70.756  1.00  0.00    -0.165 A  
HETATM    4  C   UNL     1      -9.675   5.583  71.299  1.00  0.00    -0.215 A  
HETATM    5  C   UNL     1     -10.633   5.384  72.292  1.00  0.00    -0.280 A  
HETATM    6  C   UNL     1     -11.401   6.452  72.739  1.00  0.00    -0.226 A  
HETATM    7  C   UNL     1     -11.223   7.712  72.172  1.00  0.00    -0.331 A  
HETATM    8  C   UNL     1     -10.262   7.932  71.174  1.00  0.00    -0.195 A  
BRANCH   8   9
HETATM    9  O   UNL     1     -10.248   9.241  70.754  1.00  0.00    -0.241 OA 
BRANCH   9  10
HETATM   10  C   UNL     1     -10.964   9.551  69.565  1.00  0.00    -0.195 C  
BRANCH  10  11
HETATM   11  C   UNL     1     -11.916  10.733  69.812  1.00  0.00    -0.325 C  
BRANCH  11  12
HETATM   12  N   UNL     1     -11.247  12.047  69.809  1.00  0.00    -0.490 NA 
HETATM   13  H   UNL     1     -10.271  11.963  69.527  1.00  0.00     0.000 HD 
BRANCH  12  14
HETATM   14  C   UNL     1     -11.960  13.038  68.973  1.00  0.00    -0.267 C  
BRANCH  14  15
HETATM   15  C   UNL     1     -12.065  14.418  69.659  1.00  0.00    -0.334 C  
HETATM   16  O   UNL     1     -11.339  14.392  70.892  1.00  0.00    -0.517 OA 
HETATM   17  H   UNL     1     -11.404  15.241  71.314  1.00  0.00     0.000 HD 
BRANCH  15  18
HETATM   18  C   UNL     1     -11.527  15.515  68.732  1.00  0.00    -0.355 C  
BRANCH  18  19
HETATM   19  O   UNL     1     -10.555  14.989  67.834  1.00  0.00    -0.251 OA 
BRANCH  19  20
HETATM   20  C   UNL     1      -9.256  15.375  68.065  1.00  0.00    -0.184 A  
HETATM   21  C   UNL     1      -8.875  16.632  68.571  1.00  0.00    -0.235 A  
HETATM   22  C   UNL     1      -7.541  16.945  68.809  1.00  0.00    -0.243 A  
HETATM   23  C   UNL     1      -6.529  16.021  68.554  1.00  0.00    -0.115 A  
HETATM   24  C   UNL     1      -6.911  14.775  68.041  1.00  0.00    -0.140 A  
HETATM   25  C   UNL     1      -8.239  14.430  67.786  1.00  0.00    -0.173 A  
HETATM   26  C   UNL     1      -8.235  13.097  67.254  1.00  0.00    -0.172 A  
HETATM   27  C   UNL     1      -9.242  12.221  66.793  1.00  0.00    -0.210 A  
HETATM   28  C   UNL     1      -8.894  10.948  66.329  1.00  0.00    -0.187 A  
HETATM   29  C   UNL     1      -7.562  10.540  66.320  1.00  0.00    -0.133 A  
HETATM   30  C   UNL     1      -6.544  11.389  66.766  1.00  0.00    -0.136 A  
HETATM   31  C   UNL     1      -6.914  12.661  67.222  1.00  0.00    -0.100 A  
HETATM   32  N   UNL     1      -6.139  13.688  67.699  1.00  0.00    -0.285 NA 
HETATM   33  H   UNL     1      -5.124  13.650  67.788  1.00  0.00     0.000 HD 
ENDBRANCH  19  20
ENDBRANCH  18  19
ENDBRANCH  15  18
ENDBRANCH  14  15
ENDBRANCH  12  14
ENDBRANCH  11  12
ENDBRANCH  10  11
ENDBRANCH   9  10
ENDBRANCH   8   9
ENDBRANCH   2   3
TORSDOF 10
ENDMDL
MODEL      294
REMARK 921   NORMALIZED FREE ENERGY PREDICTED BY IDOCK:   -3.92 KCAL/MOL
REMARK 922        TOTAL FREE ENERGY PREDICTED BY IDOCK:   -8.05 KCAL/MOL
REMARK 923 INTER-LIGAND FREE ENERGY PREDICTED BY IDOCK:   -5.81 KCAL/MOL
REMARK 924 INTRA-LIGAND FREE ENERGY PREDICTED BY IDOCK:   -2.24 KCAL/MOL
REMARK 927      BINDING AFFINITY PREDICTED BY RF-SCORE:    0.00 PKD
ROOT
HETATM    1  C   UNL     1     -11.098   6.355  66.866  1.00  0.00    -0.272 C  
HETATM    2  O   UNL     1     -10.440   7.598  66.633  1.00  0.00    -0.281 OA 
ENDROOT
BRANCH   2   3
HETATM    3  C   UNL     1      -9.152   7.523  66.166  1.00  0.00    -0.137 A  
HETATM    4  C   UNL     1      -8.494   6.289  66.034  1.00  0.00    -0.143 A  
HETATM    5  C   UNL     1      -7.204   6.216  65.511  1.00  0.00    -0.074 A  
HETATM    6  C   UNL     1      -6.540   7.377  65.138  1.00  0.00    -0.044 A  
HETATM    7  C   UNL     1      -7.162   8.612  65.312  1.00  0.00    -0.083 A  
HETATM    8  C   UNL     1      -8.461   8.705  65.834  1.00  0.00    -0.146 A  
BRANCH   8   9
HETATM    9  O   UNL     1      -8.888  10.009  65.921  1.00  0.00    -0.137 OA 
BRANCH   9  10
HETATM   10  C   UNL     1      -9.404  10.605  64.738  1.00  0.00    -0.233 C  
BRANCH  10  11
HETATM   11  C   UNL     1     -10.196  11.877  65.085  1.00  0.00    -0.277 C  
BRANCH  11  12
HETATM   12  N   UNL     1     -10.475  12.031  66.525  1.00  0.00    -0.216 NA 
HETATM   13  H   UNL     1      -9.993  11.317  67.072  1.00  0.00     0.000 HD 
BRANCH  12  14
HETATM   14  C   UNL     1     -10.152  13.388  67.017  1.00  0.00    -0.247 C  
BRANCH  14  15
HETATM   15  C   UNL     1      -9.316  13.359  68.315  1.00  0.00    -0.205 C  
HETATM   16  O   UNL     1     -10.141  13.740  69.420  1.00  0.00    -0.402 OA 
HETATM   17  H   UNL     1      -9.627  13.722  70.219  1.00  0.00     0.000 HD 
BRANCH  15  18
HETATM   18  C   UNL     1      -8.723  11.961  68.534  1.00  0.00    -0.108 C  
BRANCH  18  19
HETATM   19  O   UNL     1      -9.560  11.181  69.382  1.00  0.00     0.002 OA 
BRANCH  19  20
HETATM   20  C   UNL     1      -9.170   9.876  69.571  1.00  0.00    -0.223 A  
HETATM   21  C   UNL     1      -7.895   9.371  69.254  1.00  0.00    -0.085 A  
HETATM   22  C   UNL     1      -7.559   8.044  69.500  1.00  0.00    -0.101 A  
HETATM   23  C   UNL     1      -8.475   7.163  70.073  1.00  0.00    -0.140 A  
HETATM   24  C   UNL     1      -9.746   7.668  70.378  1.00  0.00    -0.179 A  
HETATM   25  C   UNL     1     -10.119   8.992  70.139  1.00  0.00    -0.220 A  
HETATM   26  C   UNL     1     -11.485   9.128  70.557  1.00  0.00    -0.271 A  
HETATM   27  C   UNL     1     -12.411  10.194  70.553  1.00  0.00    -0.330 A  
HETATM   28  C   UNL     1     -13.702   9.992  71.053  1.00  0.00     0.005 A  
HETATM   29  C   UNL     1     -14.077   8.749  71.555  1.00  0.00    -0.383 A  
HETATM   30  C   UNL     1     -13.182   7.675  71.567  1.00  0.00    -0.380 A  
HETATM   31  C   UNL     1     -11.896   7.897  71.058  1.00  0.00    -0.268 A  
HETATM   32  N   UNL     1     -10.834   7.038  70.938  1.00  0.00    -0.236 NA 
HETATM   33  H   UNL     1     -10.848   6.059  71.225  1.00  0.00     0.000 HD 
ENDBRANCH  19  20
ENDBRANCH  18  19
ENDBRANCH  15  18
ENDBRANCH  14  15
ENDBRANCH  12  14
ENDBRANCH  11  12
ENDBRANCH  10  11
ENDBRANCH   9  10
ENDBRANCH   8   9
ENDBRANCH   2   3
TORSDOF 10
ENDMDL
MODEL      295
REMARK 921   NORMALIZED FREE ENERGY PREDICTED BY IDOCK:   -3.92 KCAL/MOL
REMARK 922        TOTAL FREE ENERGY PREDICTED BY IDOCK:   -8.05 KCAL/MOL
REMARK 923 INTER-LIGAND FREE ENERGY PREDICTED BY IDOCK:   -6.93 KCAL/MOL
REMARK 924 INTRA-LIGAND FREE ENERGY PREDICTED BY IDOCK:   -1.12 KCAL/MOL
REMARK 927      BINDING AFFINITY PREDICTED BY RF-SCORE:    0.00 PKD
ROOT
HETATM    1  C   UNL     1     -12.085  11.766  68.476  1.00  0.00    -0.068 C  
HETATM    2  O   UNL     1     -11.667  11.499  67.139  1.00  0.00    -0.567 OA 
ENDROOT
BRANCH   2   3
HETATM    3  C   UNL     1     -11.460  12.594  66.339  1.00  0.00    -0.356 A  
HETATM    4  C   UNL     1     -12.479  13.097  65.512  1.00  0.00    -0.516 A  
HETATM    5  C   UNL     1     -12.278  14.240  64.740  1.00  0.00    -0.456 A  
HETATM    6  C   UNL     1     -11.047  14.883  64.761  1.00  0.00    -0.395 A  
HETATM    7  C   UNL     1     -10.013  14.365  65.537  1.00  0.00    -0.359 A  
HETATM    8  C   UNL     1     -10.197  13.218  66.323  1.00  0.00    -0.296 A  
BRANCH   8   9
HETATM    9  O   UNL     1      -9.056  12.877  67.010  1.00  0.00    -0.214 OA 
BRANCH   9  10
HETATM   10  C   UNL     1      -8.486  11.604  66.734  1.00  0.00    -0.177 C  
BRANCH  10  11
HETATM   11  C   UNL     1      -7.029  11.556  67.225  1.00  0.00    -0.125 C  
BRANCH  11  12
HETATM   12  N   UNL     1      -6.789  10.554  68.280  1.00  0.00    -0.067 NA 
HETATM   13  H   UNL     1      -6.961   9.609  67.937  1.00  0.00     0.000 HD 
BRANCH  12  14
HETATM   14  C   UNL     1      -5.436  10.671  68.867  1.00  0.00    -0.041 C  
BRANCH  14  15
HETATM   15  C   UNL     1      -5.477  10.974  70.381  1.00  0.00    -0.106 C  
HETATM   16  O   UNL     1      -6.442  11.999  70.634  1.00  0.00    -0.499 OA 
HETATM   17  H   UNL     1      -6.467  12.185  71.566  1.00  0.00     0.000 HD 
BRANCH  15  18
HETATM   18  C   UNL     1      -5.813   9.702  71.168  1.00  0.00    -0.077 C  
BRANCH  18  19
HETATM   19  O   UNL     1      -7.163   9.308  70.946  1.00  0.00    -0.106 OA 
BRANCH  19  20
HETATM   20  C   UNL     1      -7.753   8.592  71.961  1.00  0.00    -0.096 A  
HETATM   21  C   UNL     1      -7.383   8.677  73.316  1.00  0.00     0.050 A  
HETATM   22  C   UNL     1      -8.044   7.944  74.296  1.00  0.00    -0.295 A  
HETATM   23  C   UNL     1      -9.101   7.096  73.970  1.00  0.00    -0.260 A  
HETATM   24  C   UNL     1      -9.460   7.007  72.619  1.00  0.00    -0.142 A  
HETATM   25  C   UNL     1      -8.814   7.723  71.609  1.00  0.00    -0.144 A  
HETATM   26  C   UNL     1      -9.438   7.361  70.369  1.00  0.00    -0.165 A  
HETATM   27  C   UNL     1      -9.225   7.722  69.020  1.00  0.00    -0.143 A  
HETATM   28  C   UNL     1     -10.037   7.177  68.020  1.00  0.00    -0.201 A  
HETATM   29  C   UNL     1     -11.052   6.281  68.346  1.00  0.00    -0.371 A  
HETATM   30  C   UNL     1     -11.282   5.901  69.672  1.00  0.00    -0.319 A  
HETATM   31  C   UNL     1     -10.455   6.456  70.658  1.00  0.00    -0.219 A  
HETATM   32  N   UNL     1     -10.446   6.260  72.015  1.00  0.00    -0.203 NA 
HETATM   33  H   UNL     1     -11.087   5.641  72.513  1.00  0.00     0.000 HD 
ENDBRANCH  19  20
ENDBRANCH  18  19
ENDBRANCH  15  18
ENDBRANCH  14  15
ENDBRANCH  12  14
ENDBRANCH  11  12
ENDBRANCH  10  11
ENDBRANCH   9  10
ENDBRANCH   8   9
ENDBRANCH   2   3
TORSDOF 10
ENDMDL
MODEL      296
REMARK 921   NORMALIZED FREE ENERGY PREDICTED BY IDOCK:   -3.91 KCAL/MOL
REMARK 922        TOTAL FREE ENERGY PREDICTED BY IDOCK:   -8.05 KCAL/MOL
REMARK 923 INTER-LIGAND FREE ENERGY PREDICTED BY IDOCK:   -7.13 KCAL/MOL
REMARK 924 INTRA-LIGAND FREE ENERGY PREDICTED BY IDOCK:   -0.92 KCAL/MOL
REMARK 927      BINDING AFFINITY PREDICTED BY RF-SCORE:    0.00 PKD
ROOT
HETATM    1  C   UNL     1      -9.891   3.472  65.334  1.00  0.00    -0.036 C  
HETATM    2  O   UNL     1      -9.420   4.269  64.250  1.00  0.00    -0.156 OA 
ENDROOT
BRANCH   2   3
HETATM    3  C   UNL     1      -8.062   4.450  64.175  1.00  0.00    -0.095 A  
HETATM    4  C   UNL     1      -7.171   3.388  64.402  1.00  0.00    -0.058 A  
HETATM    5  C   UNL     1      -5.794   3.567  64.275  1.00  0.00    -0.014 A  
HETATM    6  C   UNL     1      -5.285   4.816  63.946  1.00  0.00    -0.009 A  
HETATM    7  C   UNL     1      -6.156   5.890  63.768  1.00  0.00    -0.025 A  
HETATM    8  C   UNL     1      -7.544   5.728  63.889  1.00  0.00    -0.083 A  
BRANCH   8   9
HETATM    9  O   UNL     1      -8.219   6.906  63.674  1.00  0.00    -0.038 OA 
BRANCH   9  10
HETATM   10  C   UNL     1      -8.034   7.945  64.627  1.00  0.00    -0.143 C  
BRANCH  10  11
HETATM   11  C   UNL     1      -8.851   7.653  65.897  1.00  0.00    -0.130 C  
BRANCH  11  12
HETATM   12  N   UNL     1      -9.886   8.663  66.184  1.00  0.00    -0.429 NA 
HETATM   13  H   UNL     1     -10.820   8.254  66.149  1.00  0.00     0.000 HD 
BRANCH  12  14
HETATM   14  C   UNL     1      -9.655   9.355  67.471  1.00  0.00    -0.141 C  
BRANCH  14  15
HETATM   15  C   UNL     1      -9.775  10.889  67.344  1.00  0.00    -0.168 C  
HETATM   16  O   UNL     1      -8.486  11.445  67.066  1.00  0.00    -0.147 OA 
HETATM   17  H   UNL     1      -8.560  12.389  66.988  1.00  0.00     0.000 HD 
BRANCH  15  18
HETATM   18  C   UNL     1     -10.775  11.254  66.240  1.00  0.00    -0.257 C  
BRANCH  18  19
HETATM   19  O   UNL     1     -11.668  12.273  66.679  1.00  0.00    -0.452 OA 
BRANCH  19  20
HETATM   20  C   UNL     1     -11.265  13.565  66.439  1.00  0.00    -0.307 A  
HETATM   21  C   UNL     1     -10.829  14.046  65.190  1.00  0.00    -0.376 A  
HETATM   22  C   UNL     1     -10.464  15.376  65.011  1.00  0.00    -0.411 A  
HETATM   23  C   UNL     1     -10.517  16.285  66.067  1.00  0.00    -0.342 A  
HETATM   24  C   UNL     1     -10.943  15.801  67.310  1.00  0.00    -0.259 A  
HETATM   25  C   UNL     1     -11.311  14.472  67.526  1.00  0.00    -0.355 A  
HETATM   26  C   UNL     1     -11.664  14.350  68.912  1.00  0.00    -0.357 A  
HETATM   27  C   UNL     1     -12.090  13.278  69.726  1.00  0.00    -0.355 A  
HETATM   28  C   UNL     1     -12.366  13.503  71.079  1.00  0.00    -0.422 A  
HETATM   29  C   UNL     1     -12.223  14.776  71.626  1.00  0.00    -0.413 A  
HETATM   30  C   UNL     1     -11.799  15.855  70.844  1.00  0.00    -0.453 A  
HETATM   31  C   UNL     1     -11.523  15.607  69.493  1.00  0.00    -0.344 A  
HETATM   32  N   UNL     1     -11.089  16.459  68.510  1.00  0.00    -0.356 NA 
HETATM   33  H   UNL     1     -10.898  17.452  68.650  1.00  0.00     0.000 HD 
ENDBRANCH  19  20
ENDBRANCH  18  19
ENDBRANCH  15  18
ENDBRANCH  14  15
ENDBRANCH  12  14
ENDBRANCH  11  12
ENDBRANCH  10  11
ENDBRANCH   9  10
ENDBRANCH   8   9
ENDBRANCH   2   3
TORSDOF 10
ENDMDL
MODEL      297
REMARK 921   NORMALIZED FREE ENERGY PREDICTED BY IDOCK:   -3.91 KCAL/MOL
REMARK 922        TOTAL FREE ENERGY PREDICTED BY IDOCK:   -8.04 KCAL/MOL
REMARK 923 INTER-LIGAND FREE ENERGY PREDICTED BY IDOCK:   -5.41 KCAL/MOL
REMARK 924 INTRA-LIGAND FREE ENERGY PREDICTED BY IDOCK:   -2.63 KCAL/MOL
REMARK 927      BINDING AFFINITY PREDICTED BY RF-SCORE:    0.00 PKD
ROOT
HETATM    1  C   UNL     1      -6.650   5.534  68.891  1.00  0.00    -0.051 C  
HETATM    2  O   UNL     1      -6.039   5.995  70.094  1.00  0.00    -0.024 OA 
ENDROOT
BRANCH   2   3
HETATM    3  C   UNL     1      -6.844   6.700  70.952  1.00  0.00    -0.063 A  
HETATM    4  C   UNL     1      -7.568   6.055  71.969  1.00  0.00    -0.097 A  
HETATM    5  C   UNL     1      -8.345   6.784  72.869  1.00  0.00    -0.123 A  
HETATM    6  C   UNL     1      -8.433   8.165  72.749  1.00  0.00    -0.250 A  
HETATM    7  C   UNL     1      -7.760   8.811  71.714  1.00  0.00    -0.090 A  
HETATM    8  C   UNL     1      -6.972   8.095  70.800  1.00  0.00    -0.041 A  
BRANCH   8   9
HETATM    9  O   UNL     1      -6.396   8.918  69.862  1.00  0.00    -0.036 OA 
BRANCH   9  10
HETATM   10  C   UNL     1      -6.722  10.301  69.923  1.00  0.00    -0.125 C  
BRANCH  10  11
HETATM   11  C   UNL     1      -6.419  10.978  68.576  1.00  0.00    -0.054 C  
BRANCH  11  12
HETATM   12  N   UNL     1      -7.624  11.368  67.821  1.00  0.00    -0.101 NA 
HETATM   13  H   UNL     1      -8.227  10.564  67.648  1.00  0.00     0.000 HD 
BRANCH  12  14
HETATM   14  C   UNL     1      -8.369  12.463  68.481  1.00  0.00    -0.081 C  
BRANCH  14  15
HETATM   15  C   UNL     1      -9.803  12.614  67.927  1.00  0.00    -0.218 C  
HETATM   16  O   UNL     1      -9.772  12.536  66.499  1.00  0.00    -0.234 OA 
HETATM   17  H   UNL     1     -10.654  12.629  66.159  1.00  0.00     0.000 HD 
BRANCH  15  18
HETATM   18  C   UNL     1     -10.715  11.528  68.512  1.00  0.00    -0.209 C  
BRANCH  18  19
HETATM   19  O   UNL     1      -9.977  10.635  69.339  1.00  0.00    -0.216 OA 
BRANCH  19  20
HETATM   20  C   UNL     1     -10.716   9.683  70.001  1.00  0.00    -0.259 A  
HETATM   21  C   UNL     1     -11.484   9.929  71.154  1.00  0.00    -0.459 A  
HETATM   22  C   UNL     1     -12.233   8.923  71.756  1.00  0.00    -0.429 A  
HETATM   23  C   UNL     1     -12.250   7.630  71.236  1.00  0.00    -0.339 A  
HETATM   24  C   UNL     1     -11.477   7.387  70.094  1.00  0.00    -0.129 A  
HETATM   25  C   UNL     1     -10.710   8.371  69.468  1.00  0.00    -0.181 A  
HETATM   26  C   UNL     1     -10.049   7.749  68.357  1.00  0.00    -0.215 A  
HETATM   27  C   UNL     1      -9.143   8.203  67.374  1.00  0.00    -0.148 A  
HETATM   28  C   UNL     1      -8.679   7.316  66.396  1.00  0.00    -0.152 A  
HETATM   29  C   UNL     1      -9.106   5.990  66.387  1.00  0.00    -0.159 A  
HETATM   30  C   UNL     1     -10.000   5.513  67.350  1.00  0.00    -0.189 A  
HETATM   31  C   UNL     1     -10.448   6.416  68.323  1.00  0.00    -0.223 A  
HETATM   32  N   UNL     1     -11.305   6.225  69.377  1.00  0.00    -0.511 NA 
HETATM   33  H   UNL     1     -11.755   5.337  69.601  1.00  0.00     0.000 HD 
ENDBRANCH  19  20
ENDBRANCH  18  19
ENDBRANCH  15  18
ENDBRANCH  14  15
ENDBRANCH  12  14
ENDBRANCH  11  12
ENDBRANCH  10  11
ENDBRANCH   9  10
ENDBRANCH   8   9
ENDBRANCH   2   3
TORSDOF 10
ENDMDL
MODEL      298
REMARK 921   NORMALIZED FREE ENERGY PREDICTED BY IDOCK:   -3.90 KCAL/MOL
REMARK 922        TOTAL FREE ENERGY PREDICTED BY IDOCK:   -8.03 KCAL/MOL
REMARK 923 INTER-LIGAND FREE ENERGY PREDICTED BY IDOCK:   -6.83 KCAL/MOL
REMARK 924 INTRA-LIGAND FREE ENERGY PREDICTED BY IDOCK:   -1.20 KCAL/MOL
REMARK 927      BINDING AFFINITY PREDICTED BY RF-SCORE:    0.00 PKD
ROOT
HETATM    1  C   UNL     1      -9.392  10.064  62.466  1.00  0.00    -0.268 C  
HETATM    2  O   UNL     1      -9.009   9.471  63.705  1.00  0.00    -0.231 OA 
ENDROOT
BRANCH   2   3
HETATM    3  C   UNL     1      -8.109   8.438  63.629  1.00  0.00    -0.142 A  
HETATM    4  C   UNL     1      -7.284   8.270  62.505  1.00  0.00    -0.095 A  
HETATM    5  C   UNL     1      -6.336   7.249  62.457  1.00  0.00    -0.054 A  
HETATM    6  C   UNL     1      -6.217   6.363  63.519  1.00  0.00    -0.026 A  
HETATM    7  C   UNL     1      -7.065   6.487  64.618  1.00  0.00    -0.060 A  
HETATM    8  C   UNL     1      -8.023   7.510  64.686  1.00  0.00    -0.133 A  
BRANCH   8   9
HETATM    9  O   UNL     1      -8.751   7.456  65.850  1.00  0.00    -0.154 OA 
BRANCH   9  10
HETATM   10  C   UNL     1      -8.833   6.199  66.508  1.00  0.00    -0.133 C  
BRANCH  10  11
HETATM   11  C   UNL     1      -8.292   6.313  67.944  1.00  0.00    -0.118 C  
BRANCH  11  12
HETATM   12  N   UNL     1      -9.130   7.140  68.831  1.00  0.00    -0.132 NA 
HETATM   13  H   UNL     1      -9.414   6.620  69.661  1.00  0.00     0.000 HD 
BRANCH  12  14
HETATM   14  C   UNL     1      -8.473   8.414  69.198  1.00  0.00    -0.123 C  
BRANCH  14  15
HETATM   15  C   UNL     1      -9.197   9.642  68.605  1.00  0.00    -0.136 C  
HETATM   16  O   UNL     1      -8.797   9.816  67.242  1.00  0.00    -0.131 OA 
HETATM   17  H   UNL     1      -9.243  10.571  66.876  1.00  0.00     0.000 HD 
BRANCH  15  18
HETATM   18  C   UNL     1     -10.717   9.464  68.709  1.00  0.00    -0.171 C  
BRANCH  18  19
HETATM   19  O   UNL     1     -11.389  10.701  68.494  1.00  0.00    -0.268 OA 
BRANCH  19  20
HETATM   20  C   UNL     1     -12.027  11.232  69.590  1.00  0.00    -0.353 A  
HETATM   21  C   UNL     1     -12.618  10.471  70.615  1.00  0.00    -0.457 A  
HETATM   22  C   UNL     1     -13.223  11.077  71.712  1.00  0.00    -0.505 A  
HETATM   23  C   UNL     1     -13.265  12.465  71.836  1.00  0.00    -0.486 A  
HETATM   24  C   UNL     1     -12.683  13.219  70.808  1.00  0.00    -0.209 A  
HETATM   25  C   UNL     1     -12.074  12.644  69.692  1.00  0.00    -0.277 A  
HETATM   26  C   UNL     1     -11.619  13.720  68.858  1.00  0.00    -0.358 A  
HETATM   27  C   UNL     1     -10.960  13.784  67.611  1.00  0.00    -0.278 A  
HETATM   28  C   UNL     1     -10.644  15.030  67.058  1.00  0.00    -0.293 A  
HETATM   29  C   UNL     1     -10.974  16.204  67.730  1.00  0.00    -0.293 A  
HETATM   30  C   UNL     1     -11.630  16.170  68.964  1.00  0.00    -0.298 A  
HETATM   31  C   UNL     1     -11.942  14.913  69.498  1.00  0.00    -0.310 A  
HETATM   32  N   UNL     1     -12.581  14.584  70.666  1.00  0.00    -0.336 NA 
HETATM   33  H   UNL     1     -12.934  15.262  71.341  1.00  0.00     0.000 HD 
ENDBRANCH  19  20
ENDBRANCH  18  19
ENDBRANCH  15  18
ENDBRANCH  14  15
ENDBRANCH  12  14
ENDBRANCH  11  12
ENDBRANCH  10  11
ENDBRANCH   9  10
ENDBRANCH   8   9
ENDBRANCH   2   3
TORSDOF 10
ENDMDL
MODEL      299
REMARK 921   NORMALIZED FREE ENERGY PREDICTED BY IDOCK:   -3.90 KCAL/MOL
REMARK 922        TOTAL FREE ENERGY PREDICTED BY IDOCK:   -8.03 KCAL/MOL
REMARK 923 INTER-LIGAND FREE ENERGY PREDICTED BY IDOCK:   -8.40 KCAL/MOL
REMARK 924 INTRA-LIGAND FREE ENERGY PREDICTED BY IDOCK:    0.37 KCAL/MOL
REMARK 927      BINDING AFFINITY PREDICTED BY RF-SCORE:    0.00 PKD
ROOT
HETATM    1  C   UNL     1      -7.516   8.687  70.137  1.00  0.00    -0.054 C  
HETATM    2  O   UNL     1      -7.018   7.445  69.643  1.00  0.00    -0.051 OA 
ENDROOT
BRANCH   2   3
HETATM    3  C   UNL     1      -6.989   6.405  70.538  1.00  0.00    -0.064 A  
HETATM    4  C   UNL     1      -6.621   5.110  70.139  1.00  0.00    -0.039 A  
HETATM    5  C   UNL     1      -6.544   4.069  71.063  1.00  0.00    -0.030 A  
HETATM    6  C   UNL     1      -6.861   4.300  72.395  1.00  0.00    -0.054 A  
HETATM    7  C   UNL     1      -7.277   5.569  72.794  1.00  0.00    -0.090 A  
HETATM    8  C   UNL     1      -7.358   6.629  71.879  1.00  0.00    -0.086 A  
BRANCH   8   9
HETATM    9  O   UNL     1      -7.785   7.792  72.475  1.00  0.00    -0.092 OA 
BRANCH   9  10
HETATM   10  C   UNL     1      -8.453   7.674  73.725  1.00  0.00    -0.212 C  
BRANCH  10  11
HETATM   11  C   UNL     1      -9.948   7.388  73.503  1.00  0.00    -0.326 C  
BRANCH  11  12
HETATM   12  N   UNL     1     -10.627   8.389  72.659  1.00  0.00    -0.305 NA 
HETATM   13  H   UNL     1     -10.097   8.574  71.808  1.00  0.00     0.000 HD 
BRANCH  12  14
HETATM   14  C   UNL     1     -12.021   8.006  72.346  1.00  0.00    -0.350 C  
BRANCH  14  15
HETATM   15  C   UNL     1     -12.682   8.968  71.334  1.00  0.00    -0.304 C  
HETATM   16  O   UNL     1     -14.071   8.648  71.213  1.00  0.00    -0.573 OA 
HETATM   17  H   UNL     1     -14.478   9.240  70.590  1.00  0.00     0.000 HD 
BRANCH  15  18
HETATM   18  C   UNL     1     -12.494  10.422  71.783  1.00  0.00    -0.302 C  
BRANCH  18  19
HETATM   19  O   UNL     1     -12.737  11.322  70.707  1.00  0.00    -0.318 OA 
BRANCH  19  20
HETATM   20  C   UNL     1     -12.897  12.642  71.055  1.00  0.00    -0.166 A  
HETATM   21  C   UNL     1     -13.432  13.085  72.280  1.00  0.00    -0.645 A  
HETATM   22  C   UNL     1     -13.538  14.439  72.578  1.00  0.00    -0.598 A  
HETATM   23  C   UNL     1     -13.117  15.411  71.672  1.00  0.00    -0.540 A  
HETATM   24  C   UNL     1     -12.594  14.967  70.451  1.00  0.00    -0.343 A  
HETATM   25  C   UNL     1     -12.478  13.616  70.116  1.00  0.00    -0.305 A  
HETATM   26  C   UNL     1     -11.926  13.554  68.794  1.00  0.00    -0.374 A  
HETATM   27  C   UNL     1     -11.598  12.498  67.915  1.00  0.00    -0.403 A  
HETATM   28  C   UNL     1     -11.053  12.785  66.659  1.00  0.00    -0.313 A  
HETATM   29  C   UNL     1     -10.832  14.105  66.271  1.00  0.00    -0.300 A  
HETATM   30  C   UNL     1     -11.151  15.170  67.119  1.00  0.00    -0.335 A  
HETATM   31  C   UNL     1     -11.700  14.860  68.371  1.00  0.00    -0.309 A  
HETATM   32  N   UNL     1     -12.111  15.689  69.383  1.00  0.00    -0.517 NA 
HETATM   33  H   UNL     1     -12.064  16.708  69.350  1.00  0.00     0.000 HD 
ENDBRANCH  19  20
ENDBRANCH  18  19
ENDBRANCH  15  18
ENDBRANCH  14  15
ENDBRANCH  12  14
ENDBRANCH  11  12
ENDBRANCH  10  11
ENDBRANCH   9  10
ENDBRANCH   8   9
ENDBRANCH   2   3
TORSDOF 10
ENDMDL
MODEL      300
REMARK 921   NORMALIZED FREE ENERGY PREDICTED BY IDOCK:   -3.89 KCAL/MOL
REMARK 922        TOTAL FREE ENERGY PREDICTED BY IDOCK:   -8.02 KCAL/MOL
REMARK 923 INTER-LIGAND FREE ENERGY PREDICTED BY IDOCK:   -6.94 KCAL/MOL
REMARK 924 INTRA-LIGAND FREE ENERGY PREDICTED BY IDOCK:   -1.08 KCAL/MOL
REMARK 927      BINDING AFFINITY PREDICTED BY RF-SCORE:    0.00 PKD
ROOT
HETATM    1  C   UNL     1     -13.030  11.810  71.746  1.00  0.00    -0.361 C  
HETATM    2  O   UNL     1     -13.022  10.470  71.258  1.00  0.00    -0.381 OA 
ENDROOT
BRANCH   2   3
HETATM    3  C   UNL     1     -11.852   9.772  71.423  1.00  0.00    -0.408 A  
HETATM    4  C   UNL     1     -11.704   8.830  72.454  1.00  0.00    -0.337 A  
HETATM    5  C   UNL     1     -10.531   8.087  72.584  1.00  0.00    -0.408 A  
HETATM    6  C   UNL     1      -9.477   8.296  71.704  1.00  0.00    -0.258 A  
HETATM    7  C   UNL     1      -9.592   9.264  70.709  1.00  0.00    -0.341 A  
HETATM    8  C   UNL     1     -10.766  10.019  70.560  1.00  0.00    -0.285 A  
BRANCH   8   9
HETATM    9  O   UNL     1     -10.673  10.914  69.521  1.00  0.00    -0.234 OA 
BRANCH   9  10
HETATM   10  C   UNL     1     -11.547  10.720  68.416  1.00  0.00    -0.239 C  
BRANCH  10  11
HETATM   11  C   UNL     1     -10.782  10.100  67.235  1.00  0.00    -0.254 C  
BRANCH  11  12
HETATM   12  N   UNL     1     -10.606   8.640  67.340  1.00  0.00    -0.400 NA 
HETATM   13  H   UNL     1     -11.487   8.150  67.185  1.00  0.00     0.000 HD 
BRANCH  12  14
HETATM   14  C   UNL     1      -9.549   8.135  66.437  1.00  0.00    -0.216 C  
BRANCH  14  15
HETATM   15  C   UNL     1      -8.155   8.698  66.791  1.00  0.00    -0.101 C  
HETATM   16  O   UNL     1      -7.308   7.629  67.225  1.00  0.00    -0.087 OA 
HETATM   17  H   UNL     1      -6.450   7.975  67.443  1.00  0.00     0.000 HD 
BRANCH  15  18
HETATM   18  C   UNL     1      -7.548   9.416  65.579  1.00  0.00    -0.099 C  
BRANCH  18  19
HETATM   19  O   UNL     1      -7.567  10.828  65.763  1.00  0.00    -0.145 OA 
BRANCH  19  20
HETATM   20  C   UNL     1      -6.999  11.287  66.927  1.00  0.00    -0.137 A  
HETATM   21  C   UNL     1      -5.844  10.744  67.519  1.00  0.00    -0.044 A  
HETATM   22  C   UNL     1      -5.305  11.280  68.685  1.00  0.00    -0.043 A  
HETATM   23  C   UNL     1      -5.892  12.379  69.310  1.00  0.00    -0.085 A  
HETATM   24  C   UNL     1      -7.047  12.911  68.722  1.00  0.00    -0.096 A  
HETATM   25  C   UNL     1      -7.617  12.395  67.557  1.00  0.00    -0.155 A  
HETATM   26  C   UNL     1      -8.785  13.179  67.275  1.00  0.00    -0.210 A  
HETATM   27  C   UNL     1      -9.774  13.139  66.268  1.00  0.00    -0.269 A  
HETATM   28  C   UNL     1     -10.810  14.080  66.277  1.00  0.00    -0.291 A  
HETATM   29  C   UNL     1     -10.870  15.053  67.271  1.00  0.00    -0.310 A  
HETATM   30  C   UNL     1      -9.907  15.113  68.283  1.00  0.00    -0.223 A  
HETATM   31  C   UNL     1      -8.881  14.159  68.258  1.00  0.00    -0.187 A  
HETATM   32  N   UNL     1      -7.826  13.975  69.115  1.00  0.00    -0.335 NA 
HETATM   33  H   UNL     1      -7.642  14.552  69.936  1.00  0.00     0.000 HD 
ENDBRANCH  19  20
ENDBRANCH  18  19
ENDBRANCH  15  18
ENDBRANCH  14  15
ENDBRANCH  12  14
ENDBRANCH  11  12
ENDBRANCH  10  11
ENDBRANCH   9  10
ENDBRANCH   8   9
ENDBRANCH   2   3
TORSDOF 10
ENDMDL
MODEL      301
REMARK 921   NORMALIZED FREE ENERGY PREDICTED BY IDOCK:   -3.89 KCAL/MOL
REMARK 922        TOTAL FREE ENERGY PREDICTED BY IDOCK:   -8.02 KCAL/MOL
REMARK 923 INTER-LIGAND FREE ENERGY PREDICTED BY IDOCK:   -7.03 KCAL/MOL
REMARK 924 INTRA-LIGAND FREE ENERGY PREDICTED BY IDOCK:   -0.99 KCAL/MOL
REMARK 927      BINDING AFFINITY PREDICTED BY RF-SCORE:    0.00 PKD
ROOT
HETATM    1  C   UNL     1     -11.033   6.235  66.772  1.00  0.00    -0.255 C  
HETATM    2  O   UNL     1     -10.156   7.308  66.435  1.00  0.00    -0.131 OA 
ENDROOT
BRANCH   2   3
HETATM    3  C   UNL     1      -8.827   7.114  66.714  1.00  0.00    -0.130 A  
HETATM    4  C   UNL     1      -8.406   6.110  67.602  1.00  0.00    -0.112 A  
HETATM    5  C   UNL     1      -7.051   5.886  67.842  1.00  0.00    -0.071 A  
HETATM    6  C   UNL     1      -6.096   6.679  67.219  1.00  0.00    -0.028 A  
HETATM    7  C   UNL     1      -6.502   7.712  66.376  1.00  0.00    -0.049 A  
HETATM    8  C   UNL     1      -7.861   7.951  66.120  1.00  0.00    -0.094 A  
BRANCH   8   9
HETATM    9  O   UNL     1      -8.044   9.009  65.263  1.00  0.00    -0.114 OA 
BRANCH   9  10
HETATM   10  C   UNL     1      -7.470   8.903  63.967  1.00  0.00    -0.112 C  
BRANCH  10  11
HETATM   11  C   UNL     1      -8.342   9.641  62.936  1.00  0.00    -0.165 C  
BRANCH  11  12
HETATM   12  N   UNL     1      -9.712   9.916  63.405  1.00  0.00    -0.504 NA 
HETATM   13  H   UNL     1      -9.756   9.938  64.424  1.00  0.00     0.000 HD 
BRANCH  12  14
HETATM   14  C   UNL     1     -10.267  11.157  62.820  1.00  0.00     0.002 C  
BRANCH  14  15
HETATM   15  C   UNL     1     -10.845  12.105  63.893  1.00  0.00    -0.406 C  
HETATM   16  O   UNL     1     -12.200  11.739  64.170  1.00  0.00    -0.286 OA 
HETATM   17  H   UNL     1     -12.555  12.323  64.830  1.00  0.00     0.000 HD 
BRANCH  15  18
HETATM   18  C   UNL     1      -9.993  12.048  65.167  1.00  0.00    -0.239 C  
BRANCH  18  19
HETATM   19  O   UNL     1     -10.722  11.461  66.240  1.00  0.00    -0.259 OA 
BRANCH  19  20
HETATM   20  C   UNL     1     -11.230  12.338  67.169  1.00  0.00    -0.307 A  
HETATM   21  C   UNL     1     -11.566  13.678  66.900  1.00  0.00    -0.397 A  
HETATM   22  C   UNL     1     -12.105  14.502  67.883  1.00  0.00    -0.261 A  
HETATM   23  C   UNL     1     -12.333  14.029  69.173  1.00  0.00    -0.169 A  
HETATM   24  C   UNL     1     -11.989  12.697  69.439  1.00  0.00    -0.260 A  
HETATM   25  C   UNL     1     -11.442  11.845  68.479  1.00  0.00    -0.349 A  
HETATM   26  C   UNL     1     -11.205  10.583  69.120  1.00  0.00    -0.314 A  
HETATM   27  C   UNL     1     -10.660   9.352  68.693  1.00  0.00    -0.230 A  
HETATM   28  C   UNL     1     -10.573   8.283  69.592  1.00  0.00    -0.222 A  
HETATM   29  C   UNL     1     -11.021   8.427  70.903  1.00  0.00    -0.279 A  
HETATM   30  C   UNL     1     -11.561   9.636  71.354  1.00  0.00    -0.472 A  
HETATM   31  C   UNL     1     -11.634  10.694  70.439  1.00  0.00    -0.351 A  
HETATM   32  N   UNL     1     -12.100  11.974  70.605  1.00  0.00    -0.466 NA 
HETATM   33  H   UNL     1     -12.478  12.341  71.478  1.00  0.00     0.000 HD 
ENDBRANCH  19  20
ENDBRANCH  18  19
ENDBRANCH  15  18
ENDBRANCH  14  15
ENDBRANCH  12  14
ENDBRANCH  11  12
ENDBRANCH  10  11
ENDBRANCH   9  10
ENDBRANCH   8   9
ENDBRANCH   2   3
TORSDOF 10
ENDMDL
MODEL      302
REMARK 921   NORMALIZED FREE ENERGY PREDICTED BY IDOCK:   -3.87 KCAL/MOL
REMARK 922        TOTAL FREE ENERGY PREDICTED BY IDOCK:   -7.98 KCAL/MOL
REMARK 923 INTER-LIGAND FREE ENERGY PREDICTED BY IDOCK:   -6.56 KCAL/MOL
REMARK 924 INTRA-LIGAND FREE ENERGY PREDICTED BY IDOCK:   -1.42 KCAL/MOL
REMARK 927      BINDING AFFINITY PREDICTED BY RF-SCORE:    0.00 PKD
ROOT
HETATM    1  C   UNL     1     -11.911  11.643  68.690  1.00  0.00    -0.308 C  
HETATM    2  O   UNL     1     -11.761  11.338  67.305  1.00  0.00    -0.566 OA 
ENDROOT
BRANCH   2   3
HETATM    3  C   UNL     1     -11.448  12.391  66.483  1.00  0.00    -0.371 A  
HETATM    4  C   UNL     1     -12.298  12.775  65.432  1.00  0.00    -0.528 A  
HETATM    5  C   UNL     1     -11.999  13.878  64.633  1.00  0.00    -0.443 A  
HETATM    6  C   UNL     1     -10.832  14.597  64.854  1.00  0.00    -0.436 A  
HETATM    7  C   UNL     1      -9.956  14.197  65.861  1.00  0.00    -0.331 A  
HETATM    8  C   UNL     1     -10.241  13.091  66.677  1.00  0.00    -0.257 A  
BRANCH   8   9
HETATM    9  O   UNL     1      -9.252  12.868  67.604  1.00  0.00    -0.178 OA 
BRANCH   9  10
HETATM   10  C   UNL     1      -7.959  12.539  67.111  1.00  0.00    -0.140 C  
BRANCH  10  11
HETATM   11  C   UNL     1      -6.928  12.581  68.251  1.00  0.00    -0.089 C  
BRANCH  11  12
HETATM   12  N   UNL     1      -6.359  11.263  68.588  1.00  0.00    -0.044 NA 
HETATM   13  H   UNL     1      -5.376  11.207  68.320  1.00  0.00     0.000 HD 
BRANCH  12  14
HETATM   14  C   UNL     1      -6.544  10.920  70.015  1.00  0.00    -0.151 C  
BRANCH  14  15
HETATM   15  C   UNL     1      -7.625   9.837  70.224  1.00  0.00    -0.172 C  
HETATM   16  O   UNL     1      -8.920  10.419  70.045  1.00  0.00    -0.372 OA 
HETATM   17  H   UNL     1      -9.586   9.753  70.173  1.00  0.00     0.000 HD 
BRANCH  15  18
HETATM   18  C   UNL     1      -7.410   8.676  69.245  1.00  0.00    -0.074 C  
BRANCH  18  19
HETATM   19  O   UNL     1      -8.253   8.807  68.106  1.00  0.00    -0.113 OA 
BRANCH  19  20
HETATM   20  C   UNL     1      -8.962   7.683  67.753  1.00  0.00    -0.131 A  
HETATM   21  C   UNL     1      -9.984   7.108  68.531  1.00  0.00    -0.163 A  
HETATM   22  C   UNL     1     -10.681   5.985  68.097  1.00  0.00    -0.353 A  
HETATM   23  C   UNL     1     -10.391   5.387  66.873  1.00  0.00    -0.310 A  
HETATM   24  C   UNL     1      -9.367   5.956  66.106  1.00  0.00    -0.132 A  
HETATM   25  C   UNL     1      -8.644   7.079  66.513  1.00  0.00    -0.130 A  
HETATM   26  C   UNL     1      -7.676   7.352  65.489  1.00  0.00    -0.107 A  
HETATM   27  C   UNL     1      -6.663   8.322  65.330  1.00  0.00    -0.052 A  
HETATM   28  C   UNL     1      -5.873   8.317  64.175  1.00  0.00    -0.065 A  
HETATM   29  C   UNL     1      -6.082   7.363  63.182  1.00  0.00    -0.053 A  
HETATM   30  C   UNL     1      -7.076   6.388  63.315  1.00  0.00    -0.050 A  
HETATM   31  C   UNL     1      -7.852   6.408  64.482  1.00  0.00    -0.115 A  
HETATM   32  N   UNL     1      -8.872   5.581  64.878  1.00  0.00    -0.326 NA 
HETATM   33  H   UNL     1      -9.219   4.791  64.333  1.00  0.00     0.000 HD 
ENDBRANCH  19  20
ENDBRANCH  18  19
ENDBRANCH  15  18
ENDBRANCH  14  15
ENDBRANCH  12  14
ENDBRANCH  11  12
ENDBRANCH  10  11
ENDBRANCH   9  10
ENDBRANCH   8   9
ENDBRANCH   2   3
TORSDOF 10
ENDMDL
MODEL      303
REMARK 921   NORMALIZED FREE ENERGY PREDICTED BY IDOCK:   -3.87 KCAL/MOL
REMARK 922        TOTAL FREE ENERGY PREDICTED BY IDOCK:   -7.98 KCAL/MOL
REMARK 923 INTER-LIGAND FREE ENERGY PREDICTED BY IDOCK:   -6.70 KCAL/MOL
REMARK 924 INTRA-LIGAND FREE ENERGY PREDICTED BY IDOCK:   -1.27 KCAL/MOL
REMARK 927      BINDING AFFINITY PREDICTED BY RF-SCORE:    0.00 PKD
ROOT
HETATM    1  C   UNL     1      -7.411   6.703  64.705  1.00  0.00    -0.085 C  
HETATM    2  O   UNL     1      -7.304   5.461  65.398  1.00  0.00    -0.067 OA 
ENDROOT
BRANCH   2   3
HETATM    3  C   UNL     1      -7.890   4.378  64.794  1.00  0.00    -0.089 A  
HETATM    4  C   UNL     1      -7.561   4.009  63.479  1.00  0.00    -0.066 A  
HETATM    5  C   UNL     1      -8.123   2.877  62.889  1.00  0.00    -0.073 A  
HETATM    6  C   UNL     1      -9.043   2.112  63.594  1.00  0.00    -0.096 A  
HETATM    7  C   UNL     1      -9.416   2.497  64.881  1.00  0.00    -0.076 A  
HETATM    8  C   UNL     1      -8.860   3.630  65.491  1.00  0.00    -0.125 A  
BRANCH   8   9
HETATM    9  O   UNL     1      -9.360   3.831  66.756  1.00  0.00    -0.166 OA 
BRANCH   9  10
HETATM   10  C   UNL     1      -8.563   3.391  67.848  1.00  0.00    -0.100 C  
BRANCH  10  11
HETATM   11  C   UNL     1      -9.126   3.937  69.171  1.00  0.00    -0.136 C  
BRANCH  11  12
HETATM   12  N   UNL     1      -8.900   5.381  69.364  1.00  0.00    -0.104 NA 
HETATM   13  H   UNL     1      -8.779   5.858  68.470  1.00  0.00     0.000 HD 
BRANCH  12  14
HETATM   14  C   UNL     1      -9.970   6.015  70.165  1.00  0.00    -0.178 C  
BRANCH  14  15
HETATM   15  C   UNL     1     -11.282   6.181  69.368  1.00  0.00    -0.396 C  
HETATM   16  O   UNL     1     -12.261   6.820  70.193  1.00  0.00    -0.634 OA 
HETATM   17  H   UNL     1     -13.069   6.923  69.702  1.00  0.00     0.000 HD 
BRANCH  15  18
HETATM   18  C   UNL     1     -11.029   6.994  68.092  1.00  0.00    -0.096 C  
BRANCH  18  19
HETATM   19  O   UNL     1     -10.216   8.130  68.365  1.00  0.00    -0.199 OA 
BRANCH  19  20
HETATM   20  C   UNL     1     -10.266   9.140  67.434  1.00  0.00    -0.247 A  
HETATM   21  C   UNL     1      -9.794   9.031  66.113  1.00  0.00    -0.349 A  
HETATM   22  C   UNL     1      -9.904  10.086  65.213  1.00  0.00    -0.388 A  
HETATM   23  C   UNL     1     -10.490  11.294  65.590  1.00  0.00    -0.317 A  
HETATM   24  C   UNL     1     -10.950  11.401  66.908  1.00  0.00    -0.299 A  
HETATM   25  C   UNL     1     -10.850  10.365  67.838  1.00  0.00    -0.331 A  
HETATM   26  C   UNL     1     -11.403  10.849  69.071  1.00  0.00    -0.348 A  
HETATM   27  C   UNL     1     -11.567  10.292  70.358  1.00  0.00    -0.411 A  
HETATM   28  C   UNL     1     -12.168  11.050  71.369  1.00  0.00    -0.292 A  
HETATM   29  C   UNL     1     -12.605  12.347  71.113  1.00  0.00    -0.349 A  
HETATM   30  C   UNL     1     -12.451  12.925  69.849  1.00  0.00    -0.034 A  
HETATM   31  C   UNL     1     -11.843  12.150  68.852  1.00  0.00    -0.304 A  
HETATM   32  N   UNL     1     -11.558  12.458  67.546  1.00  0.00    -0.348 NA 
HETATM   33  H   UNL     1     -11.769  13.354  67.105  1.00  0.00     0.000 HD 
ENDBRANCH  19  20
ENDBRANCH  18  19
ENDBRANCH  15  18
ENDBRANCH  14  15
ENDBRANCH  12  14
ENDBRANCH  11  12
ENDBRANCH  10  11
ENDBRANCH   9  10
ENDBRANCH   8   9
ENDBRANCH   2   3
TORSDOF 10
ENDMDL
MODEL      304
REMARK 921   NORMALIZED FREE ENERGY PREDICTED BY IDOCK:   -3.87 KCAL/MOL
REMARK 922        TOTAL FREE ENERGY PREDICTED BY IDOCK:   -7.97 KCAL/MOL
REMARK 923 INTER-LIGAND FREE ENERGY PREDICTED BY IDOCK:   -7.10 KCAL/MOL
REMARK 924 INTRA-LIGAND FREE ENERGY PREDICTED BY IDOCK:   -0.88 KCAL/MOL
REMARK 927      BINDING AFFINITY PREDICTED BY RF-SCORE:    0.00 PKD
ROOT
HETATM    1  C   UNL     1     -10.269  19.788  68.408  1.00  0.00    -0.449 C  
HETATM    2  O   UNL     1      -9.825  19.589  67.068  1.00  0.00    -0.323 OA 
ENDROOT
BRANCH   2   3
HETATM    3  C   UNL     1      -8.468  19.619  66.868  1.00  0.00    -0.307 A  
HETATM    4  C   UNL     1      -7.696  20.723  67.265  1.00  0.00    -0.332 A  
HETATM    5  C   UNL     1      -6.311  20.726  67.106  1.00  0.00    -0.338 A  
HETATM    6  C   UNL     1      -5.679  19.637  66.521  1.00  0.00    -0.168 A  
HETATM    7  C   UNL     1      -6.439  18.556  66.076  1.00  0.00    -0.269 A  
HETATM    8  C   UNL     1      -7.833  18.535  66.231  1.00  0.00    -0.254 A  
BRANCH   8   9
HETATM    9  O   UNL     1      -8.388  17.382  65.728  1.00  0.00    -0.538 OA 
BRANCH   9  10
HETATM   10  C   UNL     1      -8.337  16.223  66.551  1.00  0.00    -0.308 C  
BRANCH  10  11
HETATM   11  C   UNL     1      -9.752  15.836  67.012  1.00  0.00    -0.228 C  
BRANCH  11  12
HETATM   12  N   UNL     1     -10.796  16.082  66.000  1.00  0.00    -0.245 NA 
HETATM   13  H   UNL     1     -10.720  17.023  65.614  1.00  0.00     0.000 HD 
BRANCH  12  14
HETATM   14  C   UNL     1     -10.792  15.063  64.929  1.00  0.00    -0.411 C  
BRANCH  14  15
HETATM   15  C   UNL     1     -11.043  13.639  65.470  1.00  0.00    -0.295 C  
HETATM   16  O   UNL     1     -12.057  13.004  64.685  1.00  0.00    -0.366 OA 
HETATM   17  H   UNL     1     -12.211  12.127  65.018  1.00  0.00     0.000 HD 
BRANCH  15  18
HETATM   18  C   UNL     1      -9.744  12.824  65.446  1.00  0.00    -0.046 C  
BRANCH  18  19
HETATM   19  O   UNL     1      -9.860  11.658  66.255  1.00  0.00    -0.207 OA 
BRANCH  19  20
HETATM   20  C   UNL     1      -9.011  11.593  67.335  1.00  0.00    -0.166 A  
HETATM   21  C   UNL     1      -8.248  12.672  67.816  1.00  0.00    -0.171 A  
HETATM   22  C   UNL     1      -7.431  12.542  68.934  1.00  0.00     0.011 A  
HETATM   23  C   UNL     1      -7.339  11.333  69.622  1.00  0.00     0.096 A  
HETATM   24  C   UNL     1      -8.093  10.258  69.134  1.00  0.00    -0.138 A  
HETATM   25  C   UNL     1      -8.918  10.352  68.012  1.00  0.00    -0.129 A  
HETATM   26  C   UNL     1      -9.505   9.058  67.809  1.00  0.00    -0.162 A  
HETATM   27  C   UNL     1     -10.391   8.522  66.850  1.00  0.00    -0.367 A  
HETATM   28  C   UNL     1     -10.784   7.182  66.942  1.00  0.00    -0.363 A  
HETATM   29  C   UNL     1     -10.308   6.377  67.973  1.00  0.00    -0.234 A  
HETATM   30  C   UNL     1      -9.426   6.881  68.934  1.00  0.00    -0.136 A  
HETATM   31  C   UNL     1      -9.041   8.223  68.821  1.00  0.00    -0.144 A  
HETATM   32  N   UNL     1      -8.195   8.968  69.602  1.00  0.00    -0.110 NA 
HETATM   33  H   UNL     1      -7.704   8.612  70.423  1.00  0.00     0.000 HD 
ENDBRANCH  19  20
ENDBRANCH  18  19
ENDBRANCH  15  18
ENDBRANCH  14  15
ENDBRANCH  12  14
ENDBRANCH  11  12
ENDBRANCH  10  11
ENDBRANCH   9  10
ENDBRANCH   8   9
ENDBRANCH   2   3
TORSDOF 10
ENDMDL
MODEL      305
REMARK 921   NORMALIZED FREE ENERGY PREDICTED BY IDOCK:   -3.84 KCAL/MOL
REMARK 922        TOTAL FREE ENERGY PREDICTED BY IDOCK:   -7.94 KCAL/MOL
REMARK 923 INTER-LIGAND FREE ENERGY PREDICTED BY IDOCK:   -6.67 KCAL/MOL
REMARK 924 INTRA-LIGAND FREE ENERGY PREDICTED BY IDOCK:   -1.26 KCAL/MOL
REMARK 927      BINDING AFFINITY PREDICTED BY RF-SCORE:    0.00 PKD
ROOT
HETATM    1  C   UNL     1     -11.024  12.272  63.591  1.00  0.00    -0.471 C  
HETATM    2  O   UNL     1     -10.207  13.131  64.384  1.00  0.00    -0.382 OA 
ENDROOT
BRANCH   2   3
HETATM    3  C   UNL     1     -10.687  13.442  65.632  1.00  0.00    -0.277 A  
HETATM    4  C   UNL     1     -11.551  14.531  65.830  1.00  0.00    -0.349 A  
HETATM    5  C   UNL     1     -12.076  14.811  67.092  1.00  0.00    -0.121 A  
HETATM    6  C   UNL     1     -11.723  14.023  68.179  1.00  0.00    -0.387 A  
HETATM    7  C   UNL     1     -10.827  12.970  68.005  1.00  0.00    -0.261 A  
HETATM    8  C   UNL     1     -10.291  12.672  66.743  1.00  0.00    -0.235 A  
BRANCH   8   9
HETATM    9  O   UNL     1      -9.433  11.599  66.789  1.00  0.00    -0.178 OA 
BRANCH   9  10
HETATM   10  C   UNL     1      -8.149  11.817  67.360  1.00  0.00    -0.161 C  
BRANCH  10  11
HETATM   11  C   UNL     1      -7.849  10.742  68.419  1.00  0.00    -0.120 C  
BRANCH  11  12
HETATM   12  N   UNL     1      -8.270   9.385  68.026  1.00  0.00    -0.114 NA 
HETATM   13  H   UNL     1      -7.468   8.762  67.933  1.00  0.00     0.000 HD 
BRANCH  12  14
HETATM   14  C   UNL     1      -9.280   8.821  68.948  1.00  0.00    -0.141 C  
BRANCH  14  15
HETATM   15  C   UNL     1     -10.560   8.368  68.213  1.00  0.00    -0.109 C  
HETATM   16  O   UNL     1     -11.192   9.504  67.615  1.00  0.00    -0.472 OA 
HETATM   17  H   UNL     1     -11.980   9.224  67.162  1.00  0.00     0.000 HD 
BRANCH  15  18
HETATM   18  C   UNL     1     -10.218   7.313  67.152  1.00  0.00    -0.269 C  
BRANCH  18  19
HETATM   19  O   UNL     1     -10.924   6.101  67.395  1.00  0.00    -0.321 OA 
BRANCH  19  20
HETATM   20  C   UNL     1     -10.298   4.950  66.977  1.00  0.00    -0.155 A  
HETATM   21  C   UNL     1     -10.186   4.546  65.634  1.00  0.00    -0.275 A  
HETATM   22  C   UNL     1      -9.511   3.382  65.281  1.00  0.00    -0.145 A  
HETATM   23  C   UNL     1      -8.919   2.572  66.248  1.00  0.00    -0.126 A  
HETATM   24  C   UNL     1      -9.040   2.973  67.584  1.00  0.00    -0.181 A  
HETATM   25  C   UNL     1      -9.715   4.131  67.975  1.00  0.00    -0.155 A  
HETATM   26  C   UNL     1      -9.647   4.198  69.406  1.00  0.00    -0.265 A  
HETATM   27  C   UNL     1     -10.145   5.099  70.372  1.00  0.00    -0.333 A  
HETATM   28  C   UNL     1      -9.889   4.873  71.729  1.00  0.00    -0.240 A  
HETATM   29  C   UNL     1      -9.147   3.765  72.131  1.00  0.00    -0.157 A  
HETATM   30  C   UNL     1      -8.646   2.854  71.197  1.00  0.00    -0.105 A  
HETATM   31  C   UNL     1      -8.917   3.097  69.844  1.00  0.00    -0.105 A  
HETATM   32  N   UNL     1      -8.566   2.377  68.730  1.00  0.00    -0.068 NA 
HETATM   33  H   UNL     1      -8.023   1.513  68.749  1.00  0.00     0.000 HD 
ENDBRANCH  19  20
ENDBRANCH  18  19
ENDBRANCH  15  18
ENDBRANCH  14  15
ENDBRANCH  12  14
ENDBRANCH  11  12
ENDBRANCH  10  11
ENDBRANCH   9  10
ENDBRANCH   8   9
ENDBRANCH   2   3
TORSDOF 10
ENDMDL
MODEL      306
REMARK 921   NORMALIZED FREE ENERGY PREDICTED BY IDOCK:   -3.84 KCAL/MOL
REMARK 922        TOTAL FREE ENERGY PREDICTED BY IDOCK:   -7.94 KCAL/MOL
REMARK 923 INTER-LIGAND FREE ENERGY PREDICTED BY IDOCK:   -7.03 KCAL/MOL
REMARK 924 INTRA-LIGAND FREE ENERGY PREDICTED BY IDOCK:   -0.90 KCAL/MOL
REMARK 927      BINDING AFFINITY PREDICTED BY RF-SCORE:    0.00 PKD
ROOT
HETATM    1  C   UNL     1     -10.265  16.125  65.281  1.00  0.00    -0.170 C  
HETATM    2  O   UNL     1     -10.680  16.699  66.519  1.00  0.00    -0.250 OA 
ENDROOT
BRANCH   2   3
HETATM    3  C   UNL     1      -9.956  17.779  66.958  1.00  0.00    -0.322 A  
HETATM    4  C   UNL     1     -10.385  19.094  66.713  1.00  0.00    -0.507 A  
HETATM    5  C   UNL     1      -9.672  20.185  67.206  1.00  0.00    -0.574 A  
HETATM    6  C   UNL     1      -8.504  19.981  67.929  1.00  0.00    -0.301 A  
HETATM    7  C   UNL     1      -8.040  18.683  68.135  1.00  0.00    -0.318 A  
HETATM    8  C   UNL     1      -8.746  17.572  67.649  1.00  0.00    -0.223 A  
BRANCH   8   9
HETATM    9  O   UNL     1      -8.121  16.389  67.963  1.00  0.00    -0.153 OA 
BRANCH   9  10
HETATM   10  C   UNL     1      -8.636  15.653  69.065  1.00  0.00    -0.232 C  
BRANCH  10  11
HETATM   11  C   UNL     1      -7.996  14.256  69.118  1.00  0.00     0.046 C  
BRANCH  11  12
HETATM   12  N   UNL     1      -8.740  13.231  68.364  1.00  0.00    -0.278 NA 
HETATM   13  H   UNL     1      -8.265  12.329  68.400  1.00  0.00     0.000 HD 
BRANCH  12  14
HETATM   14  C   UNL     1     -10.145  13.113  68.811  1.00  0.00    -0.061 C  
BRANCH  14  15
HETATM   15  C   UNL     1     -11.096  12.714  67.662  1.00  0.00    -0.263 C  
HETATM   16  O   UNL     1     -10.712  13.401  66.467  1.00  0.00    -0.283 OA 
HETATM   17  H   UNL     1     -11.298  13.155  65.760  1.00  0.00     0.000 HD 
BRANCH  15  18
HETATM   18  C   UNL     1     -11.067  11.195  67.451  1.00  0.00    -0.307 C  
BRANCH  18  19
HETATM   19  O   UNL     1      -9.853  10.637  67.942  1.00  0.00    -0.158 OA 
BRANCH  19  20
HETATM   20  C   UNL     1      -9.422   9.495  67.311  1.00  0.00    -0.136 A  
HETATM   21  C   UNL     1      -8.698   9.475  66.104  1.00  0.00    -0.162 A  
HETATM   22  C   UNL     1      -8.267   8.280  65.536  1.00  0.00    -0.138 A  
HETATM   23  C   UNL     1      -8.536   7.056  66.144  1.00  0.00    -0.148 A  
HETATM   24  C   UNL     1      -9.265   7.079  67.340  1.00  0.00    -0.126 A  
HETATM   25  C   UNL     1      -9.718   8.258  67.935  1.00  0.00    -0.192 A  
HETATM   26  C   UNL     1     -10.435   7.885  69.121  1.00  0.00    -0.218 A  
HETATM   27  C   UNL     1     -11.130   8.607  70.115  1.00  0.00    -0.199 A  
HETATM   28  C   UNL     1     -11.731   7.922  71.176  1.00  0.00    -0.306 A  
HETATM   29  C   UNL     1     -11.648   6.534  71.257  1.00  0.00    -0.381 A  
HETATM   30  C   UNL     1     -10.970   5.793  70.283  1.00  0.00    -0.347 A  
HETATM   31  C   UNL     1     -10.379   6.499  69.227  1.00  0.00    -0.202 A  
HETATM   32  N   UNL     1      -9.672   6.040  68.145  1.00  0.00    -0.123 NA 
HETATM   33  H   UNL     1      -9.474   5.056  67.961  1.00  0.00     0.000 HD 
ENDBRANCH  19  20
ENDBRANCH  18  19
ENDBRANCH  15  18
ENDBRANCH  14  15
ENDBRANCH  12  14
ENDBRANCH  11  12
ENDBRANCH  10  11
ENDBRANCH   9  10
ENDBRANCH   8   9
ENDBRANCH   2   3
TORSDOF 10
ENDMDL
MODEL      307
REMARK 921   NORMALIZED FREE ENERGY PREDICTED BY IDOCK:   -3.84 KCAL/MOL
REMARK 922        TOTAL FREE ENERGY PREDICTED BY IDOCK:   -7.93 KCAL/MOL
REMARK 923 INTER-LIGAND FREE ENERGY PREDICTED BY IDOCK:   -6.19 KCAL/MOL
REMARK 924 INTRA-LIGAND FREE ENERGY PREDICTED BY IDOCK:   -1.75 KCAL/MOL
REMARK 927      BINDING AFFINITY PREDICTED BY RF-SCORE:    0.00 PKD
ROOT
HETATM    1  C   UNL     1     -11.018   6.806  67.283  1.00  0.00    -0.363 C  
HETATM    2  O   UNL     1      -9.830   7.551  67.024  1.00  0.00    -0.179 OA 
ENDROOT
BRANCH   2   3
HETATM    3  C   UNL     1      -8.667   7.033  67.535  1.00  0.00    -0.120 A  
HETATM    4  C   UNL     1      -8.360   7.138  68.902  1.00  0.00    -0.126 A  
HETATM    5  C   UNL     1      -7.201   6.565  69.423  1.00  0.00    -0.086 A  
HETATM    6  C   UNL     1      -6.317   5.902  68.582  1.00  0.00    -0.037 A  
HETATM    7  C   UNL     1      -6.584   5.835  67.216  1.00  0.00    -0.056 A  
HETATM    8  C   UNL     1      -7.747   6.403  66.674  1.00  0.00    -0.099 A  
BRANCH   8   9
HETATM    9  O   UNL     1      -7.820   6.224  65.313  1.00  0.00    -0.094 OA 
BRANCH   9  10
HETATM   10  C   UNL     1      -7.988   7.388  64.512  1.00  0.00    -0.122 C  
BRANCH  10  11
HETATM   11  C   UNL     1      -6.813   8.356  64.729  1.00  0.00    -0.072 C  
BRANCH  11  12
HETATM   12  N   UNL     1      -7.228   9.743  65.009  1.00  0.00    -0.121 NA 
HETATM   13  H   UNL     1      -8.188   9.778  65.352  1.00  0.00     0.000 HD 
BRANCH  12  14
HETATM   14  C   UNL     1      -6.304  10.429  65.939  1.00  0.00    -0.119 C  
BRANCH  14  15
HETATM   15  C   UNL     1      -6.458   9.933  67.393  1.00  0.00    -0.068 C  
HETATM   16  O   UNL     1      -5.272   9.236  67.786  1.00  0.00    -0.034 OA 
HETATM   17  H   UNL     1      -5.366   8.932  68.681  1.00  0.00     0.000 HD 
BRANCH  15  18
HETATM   18  C   UNL     1      -6.731  11.116  68.332  1.00  0.00    -0.060 C  
BRANCH  18  19
HETATM   19  O   UNL     1      -7.894  10.883  69.118  1.00  0.00    -0.139 OA 
BRANCH  19  20
HETATM   20  C   UNL     1      -9.073  11.368  68.602  1.00  0.00    -0.135 A  
HETATM   21  C   UNL     1      -9.160  12.274  67.529  1.00  0.00    -0.182 A  
HETATM   22  C   UNL     1     -10.390  12.701  67.037  1.00  0.00    -0.241 A  
HETATM   23  C   UNL     1     -11.584  12.243  67.591  1.00  0.00    -0.421 A  
HETATM   24  C   UNL     1     -11.492  11.348  68.664  1.00  0.00    -0.296 A  
HETATM   25  C   UNL     1     -10.276  10.904  69.186  1.00  0.00    -0.215 A  
HETATM   26  C   UNL     1     -10.581  10.024  70.278  1.00  0.00    -0.354 A  
HETATM   27  C   UNL     1      -9.797   9.291  71.196  1.00  0.00    -0.342 A  
HETATM   28  C   UNL     1     -10.423   8.500  72.165  1.00  0.00    -0.412 A  
HETATM   29  C   UNL     1     -11.813   8.430  72.229  1.00  0.00    -0.456 A  
HETATM   30  C   UNL     1     -12.613   9.149  71.335  1.00  0.00    -0.390 A  
HETATM   31  C   UNL     1     -11.966   9.939  70.376  1.00  0.00    -0.195 A  
HETATM   32  N   UNL     1     -12.489  10.743  69.396  1.00  0.00    -0.649 NA 
HETATM   33  H   UNL     1     -13.487  10.877  69.231  1.00  0.00     0.000 HD 
ENDBRANCH  19  20
ENDBRANCH  18  19
ENDBRANCH  15  18
ENDBRANCH  14  15
ENDBRANCH  12  14
ENDBRANCH  11  12
ENDBRANCH  10  11
ENDBRANCH   9  10
ENDBRANCH   8   9
ENDBRANCH   2   3
TORSDOF 10
ENDMDL
MODEL      308
REMARK 921   NORMALIZED FREE ENERGY PREDICTED BY IDOCK:   -3.83 KCAL/MOL
REMARK 922        TOTAL FREE ENERGY PREDICTED BY IDOCK:   -7.92 KCAL/MOL
REMARK 923 INTER-LIGAND FREE ENERGY PREDICTED BY IDOCK:   -7.10 KCAL/MOL
REMARK 924 INTRA-LIGAND FREE ENERGY PREDICTED BY IDOCK:   -0.82 KCAL/MOL
REMARK 927      BINDING AFFINITY PREDICTED BY RF-SCORE:    0.00 PKD
ROOT
HETATM    1  C   UNL     1      -7.322   7.084  63.444  1.00  0.00    -0.081 C  
HETATM    2  O   UNL     1      -7.769   6.851  64.778  1.00  0.00    -0.100 OA 
ENDROOT
BRANCH   2   3
HETATM    3  C   UNL     1      -8.356   5.635  65.017  1.00  0.00    -0.146 A  
HETATM    4  C   UNL     1      -8.157   4.546  64.152  1.00  0.00    -0.100 A  
HETATM    5  C   UNL     1      -8.715   3.298  64.428  1.00  0.00    -0.094 A  
HETATM    6  C   UNL     1      -9.503   3.126  65.558  1.00  0.00    -0.077 A  
HETATM    7  C   UNL     1      -9.749   4.211  66.398  1.00  0.00    -0.223 A  
HETATM    8  C   UNL     1      -9.194   5.473  66.138  1.00  0.00    -0.158 A  
BRANCH   8   9
HETATM    9  O   UNL     1      -9.558   6.400  67.085  1.00  0.00    -0.126 OA 
BRANCH   9  10
HETATM   10  C   UNL     1      -8.773   6.462  68.269  1.00  0.00    -0.116 C  
BRANCH  10  11
HETATM   11  C   UNL     1      -9.013   7.797  68.996  1.00  0.00    -0.145 C  
BRANCH  11  12
HETATM   12  N   UNL     1      -7.987   8.819  68.718  1.00  0.00    -0.105 NA 
HETATM   13  H   UNL     1      -7.529   8.648  67.823  1.00  0.00     0.000 HD 
BRANCH  12  14
HETATM   14  C   UNL     1      -8.531  10.193  68.786  1.00  0.00    -0.131 C  
BRANCH  14  15
HETATM   15  C   UNL     1     -10.073  10.220  68.706  1.00  0.00    -0.187 C  
HETATM   16  O   UNL     1     -10.591  10.995  69.791  1.00  0.00    -0.432 OA 
HETATM   17  H   UNL     1     -11.540  11.012  69.741  1.00  0.00     0.000 HD 
BRANCH  15  18
HETATM   18  C   UNL     1     -10.525  10.797  67.359  1.00  0.00    -0.225 C  
BRANCH  18  19
HETATM   19  O   UNL     1     -10.118  12.155  67.225  1.00  0.00    -0.201 OA 
BRANCH  19  20
HETATM   20  C   UNL     1     -10.787  12.889  66.274  1.00  0.00    -0.275 A  
HETATM   21  C   UNL     1     -11.884  12.418  65.530  1.00  0.00    -0.469 A  
HETATM   22  C   UNL     1     -12.533  13.228  64.603  1.00  0.00    -0.408 A  
HETATM   23  C   UNL     1     -12.119  14.540  64.379  1.00  0.00    -0.492 A  
HETATM   24  C   UNL     1     -11.021  15.001  65.115  1.00  0.00    -0.406 A  
HETATM   25  C   UNL     1     -10.343  14.215  66.048  1.00  0.00    -0.316 A  
HETATM   26  C   UNL     1      -9.275  15.013  66.578  1.00  0.00    -0.320 A  
HETATM   27  C   UNL     1      -8.250  14.781  67.521  1.00  0.00    -0.201 A  
HETATM   28  C   UNL     1      -7.346  15.803  67.829  1.00  0.00    -0.167 A  
HETATM   29  C   UNL     1      -7.452  17.047  67.211  1.00  0.00    -0.190 A  
HETATM   30  C   UNL     1      -8.454  17.304  66.270  1.00  0.00    -0.278 A  
HETATM   31  C   UNL     1      -9.346  16.264  65.974  1.00  0.00    -0.326 A  
HETATM   32  N   UNL     1     -10.402  16.230  65.099  1.00  0.00    -0.603 NA 
HETATM   33  H   UNL     1     -10.691  17.014  64.513  1.00  0.00     0.000 HD 
ENDBRANCH  19  20
ENDBRANCH  18  19
ENDBRANCH  15  18
ENDBRANCH  14  15
ENDBRANCH  12  14
ENDBRANCH  11  12
ENDBRANCH  10  11
ENDBRANCH   9  10
ENDBRANCH   8   9
ENDBRANCH   2   3
TORSDOF 10
ENDMDL
MODEL      309
REMARK 921   NORMALIZED FREE ENERGY PREDICTED BY IDOCK:   -3.83 KCAL/MOL
REMARK 922        TOTAL FREE ENERGY PREDICTED BY IDOCK:   -7.92 KCAL/MOL
REMARK 923 INTER-LIGAND FREE ENERGY PREDICTED BY IDOCK:   -6.80 KCAL/MOL
REMARK 924 INTRA-LIGAND FREE ENERGY PREDICTED BY IDOCK:   -1.12 KCAL/MOL
REMARK 927      BINDING AFFINITY PREDICTED BY RF-SCORE:    0.00 PKD
ROOT
HETATM    1  C   UNL     1      -9.883   4.348  71.212  1.00  0.00    -0.190 C  
HETATM    2  O   UNL     1     -10.351   5.629  71.629  1.00  0.00    -0.201 OA 
ENDROOT
BRANCH   2   3
HETATM    3  C   UNL     1      -9.401   6.613  71.744  1.00  0.00    -0.148 A  
HETATM    4  C   UNL     1      -8.580   6.705  72.880  1.00  0.00    -0.124 A  
HETATM    5  C   UNL     1      -7.583   7.676  72.968  1.00  0.00    -0.120 A  
HETATM    6  C   UNL     1      -7.409   8.586  71.934  1.00  0.00    -0.119 A  
HETATM    7  C   UNL     1      -8.250   8.537  70.824  1.00  0.00    -0.141 A  
HETATM    8  C   UNL     1      -9.257   7.566  70.717  1.00  0.00    -0.158 A  
BRANCH   8   9
HETATM    9  O   UNL     1      -9.969   7.691  69.548  1.00  0.00    -0.176 OA 
BRANCH   9  10
HETATM   10  C   UNL     1     -10.571   8.952  69.285  1.00  0.00    -0.207 C  
BRANCH  10  11
HETATM   11  C   UNL     1     -10.696   9.176  67.768  1.00  0.00    -0.179 C  
BRANCH  11  12
HETATM   12  N   UNL     1     -10.202  10.491  67.318  1.00  0.00    -0.204 NA 
HETATM   13  H   UNL     1     -10.701  11.250  67.781  1.00  0.00     0.000 HD 
BRANCH  12  14
HETATM   14  C   UNL     1      -8.740  10.630  67.489  1.00  0.00    -0.125 C  
BRANCH  14  15
HETATM   15  C   UNL     1      -8.365  11.816  68.405  1.00  0.00    -0.153 C  
HETATM   16  O   UNL     1      -7.030  11.640  68.888  1.00  0.00    -0.094 OA 
HETATM   17  H   UNL     1      -6.799  12.370  69.451  1.00  0.00     0.000 HD 
BRANCH  15  18
HETATM   18  C   UNL     1      -8.499  13.139  67.642  1.00  0.00    -0.194 C  
BRANCH  18  19
HETATM   19  O   UNL     1      -9.828  13.644  67.728  1.00  0.00    -0.221 OA 
BRANCH  19  20
HETATM   20  C   UNL     1     -10.363  14.123  66.556  1.00  0.00    -0.284 A  
HETATM   21  C   UNL     1     -10.981  13.324  65.576  1.00  0.00    -0.297 A  
HETATM   22  C   UNL     1     -11.529  13.881  64.425  1.00  0.00    -0.376 A  
HETATM   23  C   UNL     1     -11.484  15.256  64.200  1.00  0.00    -0.017 A  
HETATM   24  C   UNL     1     -10.860  16.047  65.173  1.00  0.00    -0.395 A  
HETATM   25  C   UNL     1     -10.295  15.520  66.336  1.00  0.00    -0.303 A  
HETATM   26  C   UNL     1      -9.737  16.620  67.070  1.00  0.00    -0.253 A  
HETATM   27  C   UNL     1      -9.031  16.730  68.288  1.00  0.00    -0.228 A  
HETATM   28  C   UNL     1      -8.621  17.989  68.740  1.00  0.00    -0.212 A  
HETATM   29  C   UNL     1      -8.904  19.132  67.996  1.00  0.00    -0.353 A  
HETATM   30  C   UNL     1      -9.598  19.052  66.785  1.00  0.00    -0.374 A  
HETATM   31  C   UNL     1      -9.996  17.781  66.349  1.00  0.00    -0.344 A  
HETATM   32  N   UNL     1     -10.670  17.409  65.213  1.00  0.00    -0.614 NA 
HETATM   33  H   UNL     1     -10.989  18.058  64.493  1.00  0.00     0.000 HD 
ENDBRANCH  19  20
ENDBRANCH  18  19
ENDBRANCH  15  18
ENDBRANCH  14  15
ENDBRANCH  12  14
ENDBRANCH  11  12
ENDBRANCH  10  11
ENDBRANCH   9  10
ENDBRANCH   8   9
ENDBRANCH   2   3
TORSDOF 10
ENDMDL
MODEL      310
REMARK 921   NORMALIZED FREE ENERGY PREDICTED BY IDOCK:   -3.83 KCAL/MOL
REMARK 922        TOTAL FREE ENERGY PREDICTED BY IDOCK:   -7.91 KCAL/MOL
REMARK 923 INTER-LIGAND FREE ENERGY PREDICTED BY IDOCK:   -6.95 KCAL/MOL
REMARK 924 INTRA-LIGAND FREE ENERGY PREDICTED BY IDOCK:   -0.96 KCAL/MOL
REMARK 927      BINDING AFFINITY PREDICTED BY RF-SCORE:    0.00 PKD
ROOT
HETATM    1  C   UNL     1     -10.685   6.640  67.309  1.00  0.00    -0.357 C  
HETATM    2  O   UNL     1      -9.409   7.081  67.769  1.00  0.00    -0.127 OA 
ENDROOT
BRANCH   2   3
HETATM    3  C   UNL     1      -8.620   6.132  68.368  1.00  0.00    -0.112 A  
HETATM    4  C   UNL     1      -8.180   4.998  67.665  1.00  0.00    -0.105 A  
HETATM    5  C   UNL     1      -7.337   4.064  68.265  1.00  0.00    -0.059 A  
HETATM    6  C   UNL     1      -6.943   4.233  69.585  1.00  0.00    -0.045 A  
HETATM    7  C   UNL     1      -7.414   5.326  70.310  1.00  0.00    -0.071 A  
HETATM    8  C   UNL     1      -8.261   6.278  69.723  1.00  0.00    -0.125 A  
BRANCH   8   9
HETATM    9  O   UNL     1      -8.606   7.274  70.605  1.00  0.00    -0.139 OA 
BRANCH   9  10
HETATM   10  C   UNL     1      -9.320   6.888  71.773  1.00  0.00    -0.145 C  
BRANCH  10  11
HETATM   11  C   UNL     1     -10.500   7.844  72.014  1.00  0.00    -0.231 C  
BRANCH  11  12
HETATM   12  N   UNL     1     -10.419   9.097  71.242  1.00  0.00    -0.302 NA 
HETATM   13  H   UNL     1      -9.777   9.004  70.455  1.00  0.00     0.000 HD 
BRANCH  12  14
HETATM   14  C   UNL     1     -11.748   9.567  70.793  1.00  0.00    -0.298 C  
BRANCH  14  15
HETATM   15  C   UNL     1     -11.652  10.772  69.831  1.00  0.00    -0.331 C  
HETATM   16  O   UNL     1     -11.183  11.917  70.550  1.00  0.00    -0.223 OA 
HETATM   17  H   UNL     1     -11.124  12.658  69.958  1.00  0.00     0.000 HD 
BRANCH  15  18
HETATM   18  C   UNL     1     -10.717  10.444  68.660  1.00  0.00    -0.218 C  
BRANCH  18  19
HETATM   19  O   UNL     1     -10.181  11.632  68.089  1.00  0.00    -0.184 OA 
BRANCH  19  20
HETATM   20  C   UNL     1     -10.408  11.805  66.744  1.00  0.00    -0.219 A  
HETATM   21  C   UNL     1     -10.662  10.758  65.837  1.00  0.00    -0.143 A  
HETATM   22  C   UNL     1     -10.913  11.009  64.492  1.00  0.00    -0.158 A  
HETATM   23  C   UNL     1     -10.923  12.309  63.992  1.00  0.00    -0.438 A  
HETATM   24  C   UNL     1     -10.661  13.347  64.895  1.00  0.00    -0.369 A  
HETATM   25  C   UNL     1     -10.400  13.132  66.249  1.00  0.00    -0.291 A  
HETATM   26  C   UNL     1     -10.162  14.416  66.844  1.00  0.00    -0.265 A  
HETATM   27  C   UNL     1      -9.833  14.849  68.146  1.00  0.00    -0.218 A  
HETATM   28  C   UNL     1      -9.670  16.215  68.403  1.00  0.00    -0.219 A  
HETATM   29  C   UNL     1      -9.832  17.148  67.381  1.00  0.00    -0.264 A  
HETATM   30  C   UNL     1     -10.153  16.747  66.081  1.00  0.00    -0.360 A  
HETATM   31  C   UNL     1     -10.306  15.374  65.845  1.00  0.00    -0.341 A  
HETATM   32  N   UNL     1     -10.606  14.706  64.685  1.00  0.00    -0.596 NA 
HETATM   33  H   UNL     1     -10.766  15.157  63.784  1.00  0.00     0.000 HD 
ENDBRANCH  19  20
ENDBRANCH  18  19
ENDBRANCH  15  18
ENDBRANCH  14  15
ENDBRANCH  12  14
ENDBRANCH  11  12
ENDBRANCH  10  11
ENDBRANCH   9  10
ENDBRANCH   8   9
ENDBRANCH   2   3
TORSDOF 10
ENDMDL
MODEL      311
REMARK 921   NORMALIZED FREE ENERGY PREDICTED BY IDOCK:   -3.83 KCAL/MOL
REMARK 922        TOTAL FREE ENERGY PREDICTED BY IDOCK:   -7.91 KCAL/MOL
REMARK 923 INTER-LIGAND FREE ENERGY PREDICTED BY IDOCK:   -6.83 KCAL/MOL
REMARK 924 INTRA-LIGAND FREE ENERGY PREDICTED BY IDOCK:   -1.08 KCAL/MOL
REMARK 927      BINDING AFFINITY PREDICTED BY RF-SCORE:    0.00 PKD
ROOT
HETATM    1  C   UNL     1     -12.548  12.603  65.139  1.00  0.00    -0.386 C  
HETATM    2  O   UNL     1     -11.237  12.780  64.605  1.00  0.00    -0.297 OA 
ENDROOT
BRANCH   2   3
HETATM    3  C   UNL     1     -10.286  13.245  65.477  1.00  0.00    -0.290 A  
HETATM    4  C   UNL     1     -10.048  14.621  65.632  1.00  0.00    -0.389 A  
HETATM    5  C   UNL     1      -9.115  15.089  66.557  1.00  0.00    -0.319 A  
HETATM    6  C   UNL     1      -8.386  14.188  67.321  1.00  0.00    -0.212 A  
HETATM    7  C   UNL     1      -8.576  12.819  67.141  1.00  0.00    -0.197 A  
HETATM    8  C   UNL     1      -9.512  12.330  66.218  1.00  0.00    -0.231 A  
BRANCH   8   9
HETATM    9  O   UNL     1      -9.544  10.956  66.197  1.00  0.00    -0.189 OA 
BRANCH   9  10
HETATM   10  C   UNL     1      -9.781  10.293  67.433  1.00  0.00    -0.160 C  
BRANCH  10  11
HETATM   11  C   UNL     1     -11.275  10.353  67.791  1.00  0.00    -0.237 C  
BRANCH  11  12
HETATM   12  N   UNL     1     -11.552  11.006  69.084  1.00  0.00    -0.292 NA 
HETATM   13  H   UNL     1     -12.541  11.237  69.176  1.00  0.00     0.000 HD 
BRANCH  12  14
HETATM   14  C   UNL     1     -11.084  10.199  70.232  1.00  0.00    -0.317 C  
BRANCH  14  15
HETATM   15  C   UNL     1     -12.239   9.785  71.170  1.00  0.00    -0.362 C  
HETATM   16  O   UNL     1     -13.486   9.953  70.489  1.00  0.00    -0.610 OA 
HETATM   17  H   UNL     1     -14.197   9.698  71.067  1.00  0.00     0.000 HD 
BRANCH  15  18
HETATM   18  C   UNL     1     -12.058   8.332  71.627  1.00  0.00    -0.306 C  
BRANCH  18  19
HETATM   19  O   UNL     1     -10.832   8.170  72.334  1.00  0.00    -0.289 OA 
BRANCH  19  20
HETATM   20  C   UNL     1     -10.422   6.873  72.530  1.00  0.00    -0.214 A  
HETATM   21  C   UNL     1     -11.240   5.846  73.037  1.00  0.00    -0.258 A  
HETATM   22  C   UNL     1     -10.767   4.546  73.183  1.00  0.00    -0.308 A  
HETATM   23  C   UNL     1      -9.460   4.212  72.829  1.00  0.00    -0.161 A  
HETATM   24  C   UNL     1      -8.647   5.239  72.334  1.00  0.00    -0.122 A  
HETATM   25  C   UNL     1      -9.088   6.555  72.180  1.00  0.00    -0.139 A  
HETATM   26  C   UNL     1      -7.981   7.315  71.672  1.00  0.00    -0.096 A  
HETATM   27  C   UNL     1      -7.795   8.673  71.337  1.00  0.00    -0.162 A  
HETATM   28  C   UNL     1      -6.557   9.103  70.847  1.00  0.00    -0.082 A  
HETATM   29  C   UNL     1      -5.509   8.199  70.688  1.00  0.00    -0.025 A  
HETATM   30  C   UNL     1      -5.664   6.849  71.016  1.00  0.00    -0.028 A  
HETATM   31  C   UNL     1      -6.911   6.441  71.510  1.00  0.00    -0.067 A  
HETATM   32  N   UNL     1      -7.337   5.201  71.914  1.00  0.00    -0.083 NA 
HETATM   33  H   UNL     1      -6.758   4.361  71.906  1.00  0.00     0.000 HD 
ENDBRANCH  19  20
ENDBRANCH  18  19
ENDBRANCH  15  18
ENDBRANCH  14  15
ENDBRANCH  12  14
ENDBRANCH  11  12
ENDBRANCH  10  11
ENDBRANCH   9  10
ENDBRANCH   8   9
ENDBRANCH   2   3
TORSDOF 10
ENDMDL
MODEL      312
REMARK 921   NORMALIZED FREE ENERGY PREDICTED BY IDOCK:   -3.81 KCAL/MOL
REMARK 922        TOTAL FREE ENERGY PREDICTED BY IDOCK:   -7.89 KCAL/MOL
REMARK 923 INTER-LIGAND FREE ENERGY PREDICTED BY IDOCK:   -6.77 KCAL/MOL
REMARK 924 INTRA-LIGAND FREE ENERGY PREDICTED BY IDOCK:   -1.12 KCAL/MOL
REMARK 927      BINDING AFFINITY PREDICTED BY RF-SCORE:    0.00 PKD
ROOT
HETATM    1  C   UNL     1      -6.455   7.106  63.694  1.00  0.00    -0.044 C  
HETATM    2  O   UNL     1      -7.729   7.015  64.329  1.00  0.00    -0.106 OA 
ENDROOT
BRANCH   2   3
HETATM    3  C   UNL     1      -8.350   5.793  64.270  1.00  0.00    -0.059 A  
HETATM    4  C   UNL     1      -8.323   5.017  63.099  1.00  0.00    -0.118 A  
HETATM    5  C   UNL     1      -8.913   3.754  63.062  1.00  0.00    -0.102 A  
HETATM    6  C   UNL     1      -9.562   3.258  64.185  1.00  0.00    -0.144 A  
HETATM    7  C   UNL     1      -9.639   4.040  65.336  1.00  0.00    -0.188 A  
HETATM    8  C   UNL     1      -9.050   5.312  65.393  1.00  0.00    -0.117 A  
BRANCH   8   9
HETATM    9  O   UNL     1      -9.239   5.911  66.616  1.00  0.00    -0.131 OA 
BRANCH   9  10
HETATM   10  C   UNL     1      -8.078   6.324  67.325  1.00  0.00    -0.109 C  
BRANCH  10  11
HETATM   11  C   UNL     1      -8.219   7.789  67.769  1.00  0.00    -0.126 C  
BRANCH  11  12
HETATM   12  N   UNL     1      -8.912   7.956  69.059  1.00  0.00    -0.145 NA 
HETATM   13  H   UNL     1      -8.479   8.691  69.618  1.00  0.00     0.000 HD 
BRANCH  12  14
HETATM   14  C   UNL     1     -10.362   8.198  68.891  1.00  0.00    -0.211 C  
BRANCH  14  15
HETATM   15  C   UNL     1     -11.012   8.786  70.163  1.00  0.00    -0.223 C  
HETATM   16  O   UNL     1     -10.345   8.270  71.318  1.00  0.00    -0.195 OA 
HETATM   17  H   UNL     1     -10.744   8.632  72.101  1.00  0.00     0.000 HD 
BRANCH  15  18
HETATM   18  C   UNL     1     -10.946  10.318  70.134  1.00  0.00    -0.314 C  
BRANCH  18  19
HETATM   19  O   UNL     1     -10.473  10.783  68.874  1.00  0.00    -0.184 OA 
BRANCH  19  20
HETATM   20  C   UNL     1     -10.928  12.020  68.483  1.00  0.00    -0.240 A  
HETATM   21  C   UNL     1     -11.481  12.977  69.354  1.00  0.00    -0.323 A  
HETATM   22  C   UNL     1     -11.895  14.223  68.894  1.00  0.00    -0.372 A  
HETATM   23  C   UNL     1     -11.775  14.570  67.550  1.00  0.00    -0.413 A  
HETATM   24  C   UNL     1     -11.232  13.612  66.685  1.00  0.00    -0.313 A  
HETATM   25  C   UNL     1     -10.813  12.350  67.111  1.00  0.00    -0.280 A  
HETATM   26  C   UNL     1     -10.339  11.648  65.953  1.00  0.00    -0.289 A  
HETATM   27  C   UNL     1      -9.817  10.355  65.734  1.00  0.00    -0.300 A  
HETATM   28  C   UNL     1      -9.432   9.972  64.444  1.00  0.00    -0.349 A  
HETATM   29  C   UNL     1      -9.560  10.858  63.378  1.00  0.00    -0.364 A  
HETATM   30  C   UNL     1     -10.078  12.144  63.565  1.00  0.00    -0.410 A  
HETATM   31  C   UNL     1     -10.461  12.505  64.863  1.00  0.00    -0.303 A  
HETATM   32  N   UNL     1     -11.001  13.677  65.330  1.00  0.00    -0.300 NA 
HETATM   33  H   UNL     1     -11.204  14.490  64.748  1.00  0.00     0.000 HD 
ENDBRANCH  19  20
ENDBRANCH  18  19
ENDBRANCH  15  18
ENDBRANCH  14  15
ENDBRANCH  12  14
ENDBRANCH  11  12
ENDBRANCH  10  11
ENDBRANCH   9  10
ENDBRANCH   8   9
ENDBRANCH   2   3
TORSDOF 10
ENDMDL
MODEL      313
REMARK 921   NORMALIZED FREE ENERGY PREDICTED BY IDOCK:   -3.81 KCAL/MOL
REMARK 922        TOTAL FREE ENERGY PREDICTED BY IDOCK:   -7.88 KCAL/MOL
REMARK 923 INTER-LIGAND FREE ENERGY PREDICTED BY IDOCK:   -7.82 KCAL/MOL
REMARK 924 INTRA-LIGAND FREE ENERGY PREDICTED BY IDOCK:   -0.06 KCAL/MOL
REMARK 927      BINDING AFFINITY PREDICTED BY RF-SCORE:    0.00 PKD
ROOT
HETATM    1  C   UNL     1      -8.256   9.349  70.479  1.00  0.00    -0.189 C  
HETATM    2  O   UNL     1      -7.383   8.597  69.640  1.00  0.00    -0.054 OA 
ENDROOT
BRANCH   2   3
HETATM    3  C   UNL     1      -7.696   7.271  69.472  1.00  0.00    -0.113 A  
HETATM    4  C   UNL     1      -7.367   6.587  68.290  1.00  0.00    -0.087 A  
HETATM    5  C   UNL     1      -7.643   5.228  68.147  1.00  0.00    -0.080 A  
HETATM    6  C   UNL     1      -8.277   4.538  69.172  1.00  0.00    -0.082 A  
HETATM    7  C   UNL     1      -8.655   5.217  70.329  1.00  0.00    -0.121 A  
HETATM    8  C   UNL     1      -8.383   6.583  70.492  1.00  0.00    -0.133 A  
BRANCH   8   9
HETATM    9  O   UNL     1      -8.835   7.057  71.701  1.00  0.00    -0.130 OA 
BRANCH   9  10
HETATM   10  C   UNL     1      -9.851   6.307  72.354  1.00  0.00    -0.164 C  
BRANCH  10  11
HETATM   11  C   UNL     1     -11.207   6.539  71.667  1.00  0.00    -0.270 C  
BRANCH  11  12
HETATM   12  N   UNL     1     -11.535   7.961  71.460  1.00  0.00    -0.258 NA 
HETATM   13  H   UNL     1     -11.097   8.321  70.611  1.00  0.00     0.000 HD 
BRANCH  12  14
HETATM   14  C   UNL     1     -12.993   8.207  71.454  1.00  0.00    -0.242 C  
BRANCH  14  15
HETATM   15  C   UNL     1     -13.336   9.710  71.361  1.00  0.00    -0.368 C  
HETATM   16  O   UNL     1     -13.890  10.149  72.605  1.00  0.00    -0.551 OA 
HETATM   17  H   UNL     1     -14.101  11.074  72.547  1.00  0.00     0.000 HD 
BRANCH  15  18
HETATM   18  C   UNL     1     -12.083  10.520  71.006  1.00  0.00    -0.387 C  
BRANCH  18  19
HETATM   19  O   UNL     1     -12.217  11.130  69.727  1.00  0.00    -0.315 OA 
BRANCH  19  20
HETATM   20  C   UNL     1     -12.224  12.505  69.718  1.00  0.00    -0.132 A  
HETATM   21  C   UNL     1     -12.589  13.308  70.814  1.00  0.00    -0.357 A  
HETATM   22  C   UNL     1     -12.544  14.697  70.744  1.00  0.00    -0.415 A  
HETATM   23  C   UNL     1     -12.134  15.345  69.580  1.00  0.00    -0.354 A  
HETATM   24  C   UNL     1     -11.781  14.543  68.488  1.00  0.00    -0.318 A  
HETATM   25  C   UNL     1     -11.819  13.148  68.522  1.00  0.00    -0.377 A  
HETATM   26  C   UNL     1     -11.413  12.682  67.227  1.00  0.00    -0.402 A  
HETATM   27  C   UNL     1     -11.272  11.404  66.644  1.00  0.00    -0.298 A  
HETATM   28  C   UNL     1     -10.836  11.291  65.319  1.00  0.00    -0.261 A  
HETATM   29  C   UNL     1     -10.540  12.430  64.575  1.00  0.00    -0.352 A  
HETATM   30  C   UNL     1     -10.675  13.708  65.126  1.00  0.00    -0.359 A  
HETATM   31  C   UNL     1     -11.118  13.799  66.452  1.00  0.00    -0.308 A  
HETATM   32  N   UNL     1     -11.348  14.903  67.233  1.00  0.00    -0.346 NA 
HETATM   33  H   UNL     1     -11.215  15.866  66.923  1.00  0.00     0.000 HD 
ENDBRANCH  19  20
ENDBRANCH  18  19
ENDBRANCH  15  18
ENDBRANCH  14  15
ENDBRANCH  12  14
ENDBRANCH  11  12
ENDBRANCH  10  11
ENDBRANCH   9  10
ENDBRANCH   8   9
ENDBRANCH   2   3
TORSDOF 10
ENDMDL
MODEL      314
REMARK 921   NORMALIZED FREE ENERGY PREDICTED BY IDOCK:   -3.81 KCAL/MOL
REMARK 922        TOTAL FREE ENERGY PREDICTED BY IDOCK:   -7.88 KCAL/MOL
REMARK 923 INTER-LIGAND FREE ENERGY PREDICTED BY IDOCK:   -6.50 KCAL/MOL
REMARK 924 INTRA-LIGAND FREE ENERGY PREDICTED BY IDOCK:   -1.37 KCAL/MOL
REMARK 927      BINDING AFFINITY PREDICTED BY RF-SCORE:    0.00 PKD
ROOT
HETATM    1  C   UNL     1     -13.007   7.164  71.461  1.00  0.00    -0.383 C  
HETATM    2  O   UNL     1     -11.765   6.510  71.709  1.00  0.00    -0.296 OA 
ENDROOT
BRANCH   2   3
HETATM    3  C   UNL     1     -10.633   7.229  71.418  1.00  0.00    -0.211 A  
HETATM    4  C   UNL     1     -10.593   8.624  71.582  1.00  0.00    -0.374 A  
HETATM    5  C   UNL     1      -9.424   9.342  71.333  1.00  0.00    -0.180 A  
HETATM    6  C   UNL     1      -8.286   8.681  70.889  1.00  0.00    -0.165 A  
HETATM    7  C   UNL     1      -8.328   7.305  70.673  1.00  0.00    -0.128 A  
HETATM    8  C   UNL     1      -9.494   6.565  70.921  1.00  0.00    -0.172 A  
BRANCH   8   9
HETATM    9  O   UNL     1      -9.323   5.229  70.647  1.00  0.00    -0.152 OA 
BRANCH   9  10
HETATM   10  C   UNL     1     -10.089   4.681  69.582  1.00  0.00    -0.162 C  
BRANCH  10  11
HETATM   11  C   UNL     1      -9.277   4.703  68.277  1.00  0.00    -0.128 C  
BRANCH  11  12
HETATM   12  N   UNL     1      -9.950   5.406  67.169  1.00  0.00    -0.157 NA 
HETATM   13  H   UNL     1     -10.928   5.128  67.096  1.00  0.00     0.000 HD 
BRANCH  12  14
HETATM   14  C   UNL     1      -9.819   6.876  67.274  1.00  0.00    -0.152 C  
BRANCH  14  15
HETATM   15  C   UNL     1      -9.027   7.482  66.095  1.00  0.00    -0.153 C  
HETATM   16  O   UNL     1      -8.922   6.514  65.046  1.00  0.00    -0.357 OA 
HETATM   17  H   UNL     1      -8.435   6.887  64.320  1.00  0.00     0.000 HD 
BRANCH  15  18
HETATM   18  C   UNL     1      -9.715   8.757  65.593  1.00  0.00     0.054 C  
BRANCH  18  19
HETATM   19  O   UNL     1      -8.774   9.814  65.434  1.00  0.00    -0.138 OA 
BRANCH  19  20
HETATM   20  C   UNL     1      -8.448  10.502  66.579  1.00  0.00    -0.139 A  
HETATM   21  C   UNL     1      -7.383  10.166  67.435  1.00  0.00    -0.089 A  
HETATM   22  C   UNL     1      -7.091  10.925  68.564  1.00  0.00    -0.076 A  
HETATM   23  C   UNL     1      -7.846  12.051  68.888  1.00  0.00     0.042 A  
HETATM   24  C   UNL     1      -8.911  12.377  68.038  1.00  0.00    -0.194 A  
HETATM   25  C   UNL     1      -9.235  11.634  66.902  1.00  0.00    -0.187 A  
HETATM   26  C   UNL     1     -10.383  12.254  66.305  1.00  0.00    -0.257 A  
HETATM   27  C   UNL     1     -11.177  11.966  65.173  1.00  0.00    -0.346 A  
HETATM   28  C   UNL     1     -12.255  12.798  64.853  1.00  0.00    -0.519 A  
HETATM   29  C   UNL     1     -12.549  13.907  65.643  1.00  0.00    -0.553 A  
HETATM   30  C   UNL     1     -11.783  14.213  66.772  1.00  0.00    -0.432 A  
HETATM   31  C   UNL     1     -10.711  13.364  67.077  1.00  0.00    -0.268 A  
HETATM   32  N   UNL     1      -9.812  13.415  68.112  1.00  0.00    -0.229 NA 
HETATM   33  H   UNL     1      -9.812  14.128  68.841  1.00  0.00     0.000 HD 
ENDBRANCH  19  20
ENDBRANCH  18  19
ENDBRANCH  15  18
ENDBRANCH  14  15
ENDBRANCH  12  14
ENDBRANCH  11  12
ENDBRANCH  10  11
ENDBRANCH   9  10
ENDBRANCH   8   9
ENDBRANCH   2   3
TORSDOF 10
ENDMDL
MODEL      315
REMARK 921   NORMALIZED FREE ENERGY PREDICTED BY IDOCK:   -3.78 KCAL/MOL
REMARK 922        TOTAL FREE ENERGY PREDICTED BY IDOCK:   -7.84 KCAL/MOL
REMARK 923 INTER-LIGAND FREE ENERGY PREDICTED BY IDOCK:   -6.77 KCAL/MOL
REMARK 924 INTRA-LIGAND FREE ENERGY PREDICTED BY IDOCK:   -1.07 KCAL/MOL
REMARK 927      BINDING AFFINITY PREDICTED BY RF-SCORE:    0.00 PKD
ROOT
HETATM    1  C   UNL     1      -8.586   8.357  67.177  1.00  0.00    -0.123 C  
HETATM    2  O   UNL     1      -8.795   9.624  66.557  1.00  0.00    -0.138 OA 
ENDROOT
BRANCH   2   3
HETATM    3  C   UNL     1      -8.819   9.630  65.185  1.00  0.00    -0.180 A  
HETATM    4  C   UNL     1      -8.041   8.731  64.437  1.00  0.00    -0.155 A  
HETATM    5  C   UNL     1      -8.109   8.709  63.045  1.00  0.00    -0.174 A  
HETATM    6  C   UNL     1      -8.935   9.604  62.377  1.00  0.00    -0.282 A  
HETATM    7  C   UNL     1      -9.674  10.535  63.105  1.00  0.00    -0.351 A  
HETATM    8  C   UNL     1      -9.620  10.570  64.507  1.00  0.00    -0.302 A  
BRANCH   8   9
HETATM    9  O   UNL     1     -10.422  11.558  65.027  1.00  0.00    -0.266 OA 
BRANCH   9  10
HETATM   10  C   UNL     1     -11.656  11.808  64.367  1.00  0.00    -0.245 C  
BRANCH  10  11
HETATM   11  C   UNL     1     -12.603  12.592  65.291  1.00  0.00    -0.183 C  
BRANCH  11  12
HETATM   12  N   UNL     1     -12.199  13.993  65.509  1.00  0.00    -0.414 NA 
HETATM   13  H   UNL     1     -11.270  14.048  65.926  1.00  0.00     0.000 HD 
BRANCH  12  14
HETATM   14  C   UNL     1     -12.276  14.798  64.270  1.00  0.00    -0.379 C  
BRANCH  14  15
HETATM   15  C   UNL     1     -11.044  15.711  64.084  1.00  0.00     0.255 C  
HETATM   16  O   UNL     1     -11.458  17.080  64.121  1.00  0.00    -1.231 OA 
HETATM   17  H   UNL     1     -10.700  17.641  64.007  1.00  0.00     0.000 HD 
BRANCH  15  18
HETATM   18  C   UNL     1     -10.003  15.426  65.174  1.00  0.00    -0.194 C  
BRANCH  18  19
HETATM   19  O   UNL     1      -9.654  16.620  65.867  1.00  0.00    -0.439 OA 
BRANCH  19  20
HETATM   20  C   UNL     1      -8.637  16.503  66.785  1.00  0.00    -0.230 A  
HETATM   21  C   UNL     1      -7.279  16.744  66.506  1.00  0.00    -0.278 A  
HETATM   22  C   UNL     1      -6.305  16.635  67.494  1.00  0.00    -0.188 A  
HETATM   23  C   UNL     1      -6.641  16.282  68.800  1.00  0.00    -0.136 A  
HETATM   24  C   UNL     1      -7.992  16.034  69.071  1.00  0.00    -0.224 A  
HETATM   25  C   UNL     1      -8.994  16.128  68.103  1.00  0.00    -0.185 A  
HETATM   26  C   UNL     1     -10.232  15.786  68.742  1.00  0.00    -0.217 A  
HETATM   27  C   UNL     1     -11.569  15.680  68.300  1.00  0.00    -0.326 A  
HETATM   28  C   UNL     1     -12.572  15.319  69.206  1.00  0.00     0.115 A  
HETATM   29  C   UNL     1     -12.261  15.065  70.539  1.00  0.00    -0.391 A  
HETATM   30  C   UNL     1     -10.945  15.158  71.004  1.00  0.00    -0.216 A  
HETATM   31  C   UNL     1      -9.955  15.516  70.079  1.00  0.00    -0.165 A  
HETATM   32  N   UNL     1      -8.603  15.671  70.250  1.00  0.00     0.471 NA 
HETATM   33  H   UNL     1      -8.114  15.536  71.135  1.00  0.00     0.000 HD 
ENDBRANCH  19  20
ENDBRANCH  18  19
ENDBRANCH  15  18
ENDBRANCH  14  15
ENDBRANCH  12  14
ENDBRANCH  11  12
ENDBRANCH  10  11
ENDBRANCH   9  10
ENDBRANCH   8   9
ENDBRANCH   2   3
TORSDOF 10
ENDMDL
MODEL      316
REMARK 921   NORMALIZED FREE ENERGY PREDICTED BY IDOCK:   -3.77 KCAL/MOL
REMARK 922        TOTAL FREE ENERGY PREDICTED BY IDOCK:   -7.82 KCAL/MOL
REMARK 923 INTER-LIGAND FREE ENERGY PREDICTED BY IDOCK:   -5.88 KCAL/MOL
REMARK 924 INTRA-LIGAND FREE ENERGY PREDICTED BY IDOCK:   -1.94 KCAL/MOL
REMARK 927      BINDING AFFINITY PREDICTED BY RF-SCORE:    0.00 PKD
ROOT
HETATM    1  C   UNL     1      -7.030  10.636  68.250  1.00  0.00    -0.072 C  
HETATM    2  O   UNL     1      -5.944   9.847  68.732  1.00  0.00    -0.039 OA 
ENDROOT
BRANCH   2   3
HETATM    3  C   UNL     1      -6.062   8.490  68.569  1.00  0.00    -0.046 A  
HETATM    4  C   UNL     1      -6.250   7.921  67.298  1.00  0.00    -0.054 A  
HETATM    5  C   UNL     1      -6.318   6.538  67.133  1.00  0.00    -0.041 A  
HETATM    6  C   UNL     1      -6.227   5.703  68.239  1.00  0.00    -0.030 A  
HETATM    7  C   UNL     1      -6.091   6.257  69.510  1.00  0.00    -0.029 A  
HETATM    8  C   UNL     1      -6.018   7.646  69.696  1.00  0.00    -0.027 A  
BRANCH   8   9
HETATM    9  O   UNL     1      -5.884   7.981  71.022  1.00  0.00    -0.033 OA 
BRANCH   9  10
HETATM   10  C   UNL     1      -6.894   8.806  71.589  1.00  0.00    -0.078 C  
BRANCH  10  11
HETATM   11  C   UNL     1      -7.486   8.137  72.841  1.00  0.00    -0.125 C  
BRANCH  11  12
HETATM   12  N   UNL     1      -8.851   8.587  73.169  1.00  0.00    -0.337 NA 
HETATM   13  H   UNL     1      -9.243   9.154  72.416  1.00  0.00     0.000 HD 
BRANCH  12  14
HETATM   14  C   UNL     1      -9.747   7.461  73.511  1.00  0.00    -0.288 C  
BRANCH  14  15
HETATM   15  C   UNL     1     -10.477   6.893  72.274  1.00  0.00    -0.207 C  
HETATM   16  O   UNL     1     -11.807   6.514  72.639  1.00  0.00    -0.483 OA 
HETATM   17  H   UNL     1     -12.256   6.165  71.878  1.00  0.00     0.000 HD 
BRANCH  15  18
HETATM   18  C   UNL     1     -10.497   7.933  71.146  1.00  0.00    -0.204 C  
BRANCH  18  19
HETATM   19  O   UNL     1     -11.394   7.543  70.111  1.00  0.00    -0.244 OA 
BRANCH  19  20
HETATM   20  C   UNL     1     -10.819   6.952  69.011  1.00  0.00    -0.212 A  
HETATM   21  C   UNL     1     -10.543   5.576  68.898  1.00  0.00    -0.258 A  
HETATM   22  C   UNL     1      -9.985   5.041  67.741  1.00  0.00    -0.198 A  
HETATM   23  C   UNL     1      -9.679   5.850  66.649  1.00  0.00    -0.184 A  
HETATM   24  C   UNL     1      -9.947   7.220  66.769  1.00  0.00    -0.217 A  
HETATM   25  C   UNL     1     -10.500   7.791  67.916  1.00  0.00    -0.263 A  
HETATM   26  C   UNL     1     -10.606   9.202  67.677  1.00  0.00    -0.307 A  
HETATM   27  C   UNL     1     -11.059  10.297  68.445  1.00  0.00    -0.302 A  
HETATM   28  C   UNL     1     -11.035  11.584  67.899  1.00  0.00    -0.287 A  
HETATM   29  C   UNL     1     -10.569  11.792  66.602  1.00  0.00    -0.275 A  
HETATM   30  C   UNL     1     -10.111  10.726  65.821  1.00  0.00    -0.320 A  
HETATM   31  C   UNL     1     -10.139   9.446  66.389  1.00  0.00    -0.262 A  
HETATM   32  N   UNL     1      -9.748   8.240  65.867  1.00  0.00    -0.456 NA 
HETATM   33  H   UNL     1      -9.361   8.115  64.931  1.00  0.00     0.000 HD 
ENDBRANCH  19  20
ENDBRANCH  18  19
ENDBRANCH  15  18
ENDBRANCH  14  15
ENDBRANCH  12  14
ENDBRANCH  11  12
ENDBRANCH  10  11
ENDBRANCH   9  10
ENDBRANCH   8   9
ENDBRANCH   2   3
TORSDOF 10
ENDMDL
MODEL      317
REMARK 921   NORMALIZED FREE ENERGY PREDICTED BY IDOCK:   -3.75 KCAL/MOL
REMARK 922        TOTAL FREE ENERGY PREDICTED BY IDOCK:   -7.80 KCAL/MOL
REMARK 923 INTER-LIGAND FREE ENERGY PREDICTED BY IDOCK:   -6.27 KCAL/MOL
REMARK 924 INTRA-LIGAND FREE ENERGY PREDICTED BY IDOCK:   -1.52 KCAL/MOL
REMARK 927      BINDING AFFINITY PREDICTED BY RF-SCORE:    0.00 PKD
ROOT
HETATM    1  C   UNL     1      -8.437   8.169  67.007  1.00  0.00    -0.120 C  
HETATM    2  O   UNL     1      -8.524   9.498  66.496  1.00  0.00    -0.124 OA 
ENDROOT
BRANCH   2   3
HETATM    3  C   UNL     1      -8.650   9.617  65.135  1.00  0.00    -0.157 A  
HETATM    4  C   UNL     1      -8.148   8.633  64.267  1.00  0.00    -0.158 A  
HETATM    5  C   UNL     1      -8.324   8.736  62.888  1.00  0.00    -0.182 A  
HETATM    6  C   UNL     1      -8.980   9.836  62.353  1.00  0.00    -0.288 A  
HETATM    7  C   UNL     1      -9.438  10.844  63.199  1.00  0.00    -0.361 A  
HETATM    8  C   UNL     1      -9.272  10.757  64.590  1.00  0.00    -0.219 A  
BRANCH   8   9
HETATM    9  O   UNL     1      -9.795  11.850  65.239  1.00  0.00    -0.245 OA 
BRANCH   9  10
HETATM   10  C   UNL     1     -11.206  11.890  65.412  1.00  0.00    -0.295 C  
BRANCH  10  11
HETATM   11  C   UNL     1     -11.555  11.982  66.907  1.00  0.00    -0.318 C  
BRANCH  11  12
HETATM   12  N   UNL     1     -10.381  11.936  67.797  1.00  0.00    -0.195 NA 
HETATM   13  H   UNL     1      -9.677  11.286  67.446  1.00  0.00     0.000 HD 
BRANCH  12  14
HETATM   14  C   UNL     1      -9.800  13.276  68.031  1.00  0.00    -0.230 C  
BRANCH  14  15
HETATM   15  C   UNL     1      -8.266  13.231  68.200  1.00  0.00    -0.160 C  
HETATM   16  O   UNL     1      -7.893  13.985  69.357  1.00  0.00    -0.342 OA 
HETATM   17  H   UNL     1      -6.949  13.957  69.461  1.00  0.00     0.000 HD 
BRANCH  15  18
HETATM   18  C   UNL     1      -7.787  11.779  68.318  1.00  0.00    -0.137 C  
BRANCH  18  19
HETATM   19  O   UNL     1      -8.204  11.204  69.552  1.00  0.00     0.089 OA 
BRANCH  19  20
HETATM   20  C   UNL     1      -7.640   9.991  69.868  1.00  0.00    -0.170 A  
HETATM   21  C   UNL     1      -6.309   9.633  69.587  1.00  0.00    -0.045 A  
HETATM   22  C   UNL     1      -5.795   8.396  69.963  1.00  0.00    -0.024 A  
HETATM   23  C   UNL     1      -6.584   7.464  70.635  1.00  0.00    -0.043 A  
HETATM   24  C   UNL     1      -7.911   7.820  70.905  1.00  0.00    -0.089 A  
HETATM   25  C   UNL     1      -8.460   9.050  70.537  1.00  0.00    -0.226 A  
HETATM   26  C   UNL     1      -9.832   9.043  70.958  1.00  0.00    -0.352 A  
HETATM   27  C   UNL     1     -10.895   9.967  70.857  1.00  0.00    -0.357 A  
HETATM   28  C   UNL     1     -12.146   9.646  71.393  1.00  0.00    -0.472 A  
HETATM   29  C   UNL     1     -12.349   8.421  72.025  1.00  0.00    -0.413 A  
HETATM   30  C   UNL     1     -11.316   7.485  72.135  1.00  0.00    -0.326 A  
HETATM   31  C   UNL     1     -10.072   7.825  71.587  1.00  0.00    -0.185 A  
HETATM   32  N   UNL     1      -8.903   7.110  71.541  1.00  0.00    -0.127 NA 
HETATM   33  H   UNL     1      -8.784   6.173  71.928  1.00  0.00     0.000 HD 
ENDBRANCH  19  20
ENDBRANCH  18  19
ENDBRANCH  15  18
ENDBRANCH  14  15
ENDBRANCH  12  14
ENDBRANCH  11  12
ENDBRANCH  10  11
ENDBRANCH   9  10
ENDBRANCH   8   9
ENDBRANCH   2   3
TORSDOF 10
ENDMDL
MODEL      318
REMARK 921   NORMALIZED FREE ENERGY PREDICTED BY IDOCK:   -3.75 KCAL/MOL
REMARK 922        TOTAL FREE ENERGY PREDICTED BY IDOCK:   -7.79 KCAL/MOL
REMARK 923 INTER-LIGAND FREE ENERGY PREDICTED BY IDOCK:   -6.04 KCAL/MOL
REMARK 924 INTRA-LIGAND FREE ENERGY PREDICTED BY IDOCK:   -1.75 KCAL/MOL
REMARK 927      BINDING AFFINITY PREDICTED BY RF-SCORE:    0.00 PKD
ROOT
HETATM    1  C   UNL     1      -6.267   8.048  62.801  1.00  0.00    -0.081 C  
HETATM    2  O   UNL     1      -7.416   8.124  63.642  1.00  0.00    -0.106 OA 
ENDROOT
BRANCH   2   3
HETATM    3  C   UNL     1      -7.320   7.494  64.857  1.00  0.00    -0.079 A  
HETATM    4  C   UNL     1      -7.917   6.243  65.080  1.00  0.00    -0.115 A  
HETATM    5  C   UNL     1      -7.772   5.586  66.302  1.00  0.00    -0.099 A  
HETATM    6  C   UNL     1      -7.052   6.182  67.328  1.00  0.00    -0.070 A  
HETATM    7  C   UNL     1      -6.497   7.446  67.137  1.00  0.00    -0.060 A  
HETATM    8  C   UNL     1      -6.630   8.121  65.914  1.00  0.00    -0.046 A  
BRANCH   8   9
HETATM    9  O   UNL     1      -6.010   9.348  65.934  1.00  0.00    -0.053 OA 
BRANCH   9  10
HETATM   10  C   UNL     1      -5.683   9.890  67.207  1.00  0.00    -0.046 C  
BRANCH  10  11
HETATM   11  C   UNL     1      -5.997  11.396  67.240  1.00  0.00    -0.081 C  
BRANCH  11  12
HETATM   12  N   UNL     1      -7.166  11.778  66.427  1.00  0.00    -0.370 NA 
HETATM   13  H   UNL     1      -7.058  11.474  65.460  1.00  0.00     0.000 HD 
BRANCH  12  14
HETATM   14  C   UNL     1      -8.436  11.285  67.004  1.00  0.00    -0.150 C  
BRANCH  14  15
HETATM   15  C   UNL     1      -8.558  11.598  68.511  1.00  0.00    -0.134 C  
HETATM   16  O   UNL     1      -9.711  12.416  68.734  1.00  0.00    -0.398 OA 
HETATM   17  H   UNL     1      -9.786  12.609  69.662  1.00  0.00     0.000 HD 
BRANCH  15  18
HETATM   18  C   UNL     1      -8.648  10.297  69.318  1.00  0.00    -0.168 C  
BRANCH  18  19
HETATM   19  O   UNL     1     -10.003   9.886  69.470  1.00  0.00    -0.195 OA 
BRANCH  19  20
HETATM   20  C   UNL     1     -10.351   8.723  68.826  1.00  0.00    -0.213 A  
HETATM   21  C   UNL     1     -10.491   8.594  67.432  1.00  0.00    -0.351 A  
HETATM   22  C   UNL     1     -10.818   7.376  66.844  1.00  0.00    -0.223 A  
HETATM   23  C   UNL     1     -11.018   6.235  67.618  1.00  0.00    -0.438 A  
HETATM   24  C   UNL     1     -10.886   6.369  69.006  1.00  0.00    -0.327 A  
HETATM   25  C   UNL     1     -10.566   7.576  69.629  1.00  0.00    -0.243 A  
HETATM   26  C   UNL     1     -10.541   7.329  71.043  1.00  0.00    -0.235 A  
HETATM   27  C   UNL     1     -10.304   8.137  72.176  1.00  0.00    -0.342 A  
HETATM   28  C   UNL     1     -10.350   7.569  73.454  1.00  0.00    -0.405 A  
HETATM   29  C   UNL     1     -10.626   6.213  73.613  1.00  0.00    -0.279 A  
HETATM   30  C   UNL     1     -10.869   5.391  72.509  1.00  0.00    -0.304 A  
HETATM   31  C   UNL     1     -10.823   5.981  71.239  1.00  0.00    -0.272 A  
HETATM   32  N   UNL     1     -11.027   5.427  70.000  1.00  0.00    -0.156 NA 
HETATM   33  H   UNL     1     -11.254   4.446  69.838  1.00  0.00     0.000 HD 
ENDBRANCH  19  20
ENDBRANCH  18  19
ENDBRANCH  15  18
ENDBRANCH  14  15
ENDBRANCH  12  14
ENDBRANCH  11  12
ENDBRANCH  10  11
ENDBRANCH   9  10
ENDBRANCH   8   9
ENDBRANCH   2   3
TORSDOF 10
ENDMDL
MODEL      319
REMARK 921   NORMALIZED FREE ENERGY PREDICTED BY IDOCK:   -3.74 KCAL/MOL
REMARK 922        TOTAL FREE ENERGY PREDICTED BY IDOCK:   -7.77 KCAL/MOL
REMARK 923 INTER-LIGAND FREE ENERGY PREDICTED BY IDOCK:   -7.73 KCAL/MOL
REMARK 924 INTRA-LIGAND FREE ENERGY PREDICTED BY IDOCK:   -0.04 KCAL/MOL
REMARK 927      BINDING AFFINITY PREDICTED BY RF-SCORE:    0.00 PKD
ROOT
HETATM    1  C   UNL     1     -13.707  10.039  72.276  1.00  0.00    -0.101 C  
HETATM    2  O   UNL     1     -12.973   9.216  71.371  1.00  0.00    -0.323 OA 
ENDROOT
BRANCH   2   3
HETATM    3  C   UNL     1     -11.731   8.813  71.790  1.00  0.00    -0.346 A  
HETATM    4  C   UNL     1     -11.579   7.829  72.781  1.00  0.00    -0.368 A  
HETATM    5  C   UNL     1     -10.313   7.387  73.166  1.00  0.00    -0.384 A  
HETATM    6  C   UNL     1      -9.180   7.941  72.586  1.00  0.00    -0.269 A  
HETATM    7  C   UNL     1      -9.316   8.955  71.639  1.00  0.00    -0.328 A  
HETATM    8  C   UNL     1     -10.581   9.410  71.237  1.00  0.00    -0.330 A  
BRANCH   8   9
HETATM    9  O   UNL     1     -10.493  10.408  70.296  1.00  0.00    -0.227 OA 
BRANCH   9  10
HETATM   10  C   UNL     1     -11.428  10.376  69.225  1.00  0.00    -0.215 C  
BRANCH  10  11
HETATM   11  C   UNL     1     -10.838   9.616  68.026  1.00  0.00    -0.196 C  
BRANCH  11  12
HETATM   12  N   UNL     1     -10.970   8.151  68.126  1.00  0.00    -0.443 NA 
HETATM   13  H   UNL     1     -11.947   7.874  68.218  1.00  0.00     0.000 HD 
BRANCH  12  14
HETATM   14  C   UNL     1     -10.322   7.450  66.995  1.00  0.00    -0.314 C  
BRANCH  14  15
HETATM   15  C   UNL     1      -8.801   7.711  66.937  1.00  0.00    -0.131 C  
HETATM   16  O   UNL     1      -8.100   6.517  67.300  1.00  0.00    -0.111 OA 
HETATM   17  H   UNL     1      -7.164   6.677  67.264  1.00  0.00     0.000 HD 
BRANCH  15  18
HETATM   18  C   UNL     1      -8.395   8.175  65.533  1.00  0.00    -0.153 C  
BRANCH  18  19
HETATM   19  O   UNL     1      -8.894   9.481  65.265  1.00  0.00    -0.159 OA 
BRANCH  19  20
HETATM   20  C   UNL     1      -8.427  10.480  66.085  1.00  0.00    -0.153 A  
HETATM   21  C   UNL     1      -7.310  10.360  66.933  1.00  0.00    -0.106 A  
HETATM   22  C   UNL     1      -6.875  11.424  67.716  1.00  0.00    -0.075 A  
HETATM   23  C   UNL     1      -7.532  12.653  67.688  1.00  0.00    -0.143 A  
HETATM   24  C   UNL     1      -8.648  12.766  66.851  1.00  0.00    -0.137 A  
HETATM   25  C   UNL     1      -9.116  11.718  66.056  1.00  0.00    -0.159 A  
HETATM   26  C   UNL     1     -10.276  12.198  65.361  1.00  0.00    -0.299 A  
HETATM   27  C   UNL     1     -11.183  11.618  64.448  1.00  0.00    -0.360 A  
HETATM   28  C   UNL     1     -12.236  12.384  63.936  1.00  0.00    -0.603 A  
HETATM   29  C   UNL     1     -12.394  13.713  64.322  1.00  0.00    -0.388 A  
HETATM   30  C   UNL     1     -11.513  14.311  65.228  1.00  0.00    -0.344 A  
HETATM   31  C   UNL     1     -10.468  13.525  65.732  1.00  0.00    -0.291 A  
HETATM   32  N   UNL     1      -9.478  13.841  66.627  1.00  0.00    -0.276 NA 
HETATM   33  H   UNL     1      -9.371  14.754  67.070  1.00  0.00     0.000 HD 
ENDBRANCH  19  20
ENDBRANCH  18  19
ENDBRANCH  15  18
ENDBRANCH  14  15
ENDBRANCH  12  14
ENDBRANCH  11  12
ENDBRANCH  10  11
ENDBRANCH   9  10
ENDBRANCH   8   9
ENDBRANCH   2   3
TORSDOF 10
ENDMDL
MODEL      320
REMARK 921   NORMALIZED FREE ENERGY PREDICTED BY IDOCK:   -3.74 KCAL/MOL
REMARK 922        TOTAL FREE ENERGY PREDICTED BY IDOCK:   -7.77 KCAL/MOL
REMARK 923 INTER-LIGAND FREE ENERGY PREDICTED BY IDOCK:   -6.80 KCAL/MOL
REMARK 924 INTRA-LIGAND FREE ENERGY PREDICTED BY IDOCK:   -0.97 KCAL/MOL
REMARK 927      BINDING AFFINITY PREDICTED BY RF-SCORE:    0.00 PKD
ROOT
HETATM    1  C   UNL     1      -7.840   6.083  65.831  1.00  0.00    -0.106 C  
HETATM    2  O   UNL     1      -8.661   6.040  66.995  1.00  0.00    -0.111 OA 
ENDROOT
BRANCH   2   3
HETATM    3  C   UNL     1      -8.987   4.791  67.461  1.00  0.00    -0.110 A  
HETATM    4  C   UNL     1      -8.870   3.654  66.643  1.00  0.00    -0.134 A  
HETATM    5  C   UNL     1      -9.154   2.382  67.138  1.00  0.00    -0.164 A  
HETATM    6  C   UNL     1      -9.585   2.229  68.449  1.00  0.00    -0.122 A  
HETATM    7  C   UNL     1      -9.754   3.353  69.255  1.00  0.00    -0.008 A  
HETATM    8  C   UNL     1      -9.471   4.641  68.775  1.00  0.00    -0.151 A  
BRANCH   8   9
HETATM    9  O   UNL     1      -9.701   5.606  69.727  1.00  0.00    -0.151 OA 
BRANCH   9  10
HETATM   10  C   UNL     1     -11.045   5.790  70.155  1.00  0.00    -0.253 C  
BRANCH  10  11
HETATM   11  C   UNL     1     -11.094   5.992  71.678  1.00  0.00    -0.275 C  
BRANCH  11  12
HETATM   12  N   UNL     1     -12.188   6.873  72.127  1.00  0.00    -0.474 NA 
HETATM   13  H   UNL     1     -11.937   7.364  72.985  1.00  0.00     0.000 HD 
BRANCH  12  14
HETATM   14  C   UNL     1     -12.612   7.822  71.074  1.00  0.00    -0.115 C  
BRANCH  14  15
HETATM   15  C   UNL     1     -12.988   9.206  71.647  1.00  0.00    -0.365 C  
HETATM   16  O   UNL     1     -13.159   9.103  73.064  1.00  0.00    -0.679 OA 
HETATM   17  H   UNL     1     -13.390   9.955  73.416  1.00  0.00     0.000 HD 
BRANCH  15  18
HETATM   18  C   UNL     1     -11.903  10.235  71.303  1.00  0.00    -0.335 C  
BRANCH  18  19
HETATM   19  O   UNL     1     -11.856  10.474  69.900  1.00  0.00    -0.268 OA 
BRANCH  19  20
HETATM   20  C   UNL     1     -10.686  10.122  69.272  1.00  0.00    -0.231 A  
HETATM   21  C   UNL     1      -9.825   9.097  69.706  1.00  0.00    -0.192 A  
HETATM   22  C   UNL     1      -8.669   8.773  69.002  1.00  0.00    -0.133 A  
HETATM   23  C   UNL     1      -8.321   9.455  67.837  1.00  0.00    -0.115 A  
HETATM   24  C   UNL     1      -9.176  10.480  67.414  1.00  0.00    -0.142 A  
HETATM   25  C   UNL     1     -10.340  10.835  68.098  1.00  0.00    -0.197 A  
HETATM   26  C   UNL     1     -10.934  11.928  67.383  1.00  0.00    -0.315 A  
HETATM   27  C   UNL     1     -12.086  12.719  67.581  1.00  0.00    -0.200 A  
HETATM   28  C   UNL     1     -12.396  13.733  66.667  1.00  0.00    -0.403 A  
HETATM   29  C   UNL     1     -11.577  13.964  65.565  1.00  0.00    -0.332 A  
HETATM   30  C   UNL     1     -10.427  13.198  65.347  1.00  0.00    -0.307 A  
HETATM   31  C   UNL     1     -10.132  12.192  66.277  1.00  0.00    -0.224 A  
HETATM   32  N   UNL     1      -9.083  11.309  66.319  1.00  0.00    -0.193 NA 
HETATM   33  H   UNL     1      -8.332  11.272  65.630  1.00  0.00     0.000 HD 
ENDBRANCH  19  20
ENDBRANCH  18  19
ENDBRANCH  15  18
ENDBRANCH  14  15
ENDBRANCH  12  14
ENDBRANCH  11  12
ENDBRANCH  10  11
ENDBRANCH   9  10
ENDBRANCH   8   9
ENDBRANCH   2   3
TORSDOF 10
ENDMDL
MODEL      321
REMARK 921   NORMALIZED FREE ENERGY PREDICTED BY IDOCK:   -3.71 KCAL/MOL
REMARK 922        TOTAL FREE ENERGY PREDICTED BY IDOCK:   -7.72 KCAL/MOL
REMARK 923 INTER-LIGAND FREE ENERGY PREDICTED BY IDOCK:   -6.99 KCAL/MOL
REMARK 924 INTRA-LIGAND FREE ENERGY PREDICTED BY IDOCK:   -0.74 KCAL/MOL
REMARK 927      BINDING AFFINITY PREDICTED BY RF-SCORE:    0.00 PKD
ROOT
HETATM    1  C   UNL     1     -11.532  16.057  64.392  1.00  0.00    -0.242 C  
HETATM    2  O   UNL     1     -10.878  15.203  65.328  1.00  0.00    -0.347 OA 
ENDROOT
BRANCH   2   3
HETATM    3  C   UNL     1     -10.568  15.761  66.543  1.00  0.00    -0.306 A  
HETATM    4  C   UNL     1      -9.563  16.736  66.662  1.00  0.00    -0.274 A  
HETATM    5  C   UNL     1      -9.288  17.335  67.891  1.00  0.00    -0.258 A  
HETATM    6  C   UNL     1      -9.993  16.950  69.023  1.00  0.00    -0.265 A  
HETATM    7  C   UNL     1     -10.956  15.948  68.928  1.00  0.00    -0.290 A  
HETATM    8  C   UNL     1     -11.249  15.335  67.700  1.00  0.00    -0.320 A  
BRANCH   8   9
HETATM    9  O   UNL     1     -12.228  14.378  67.824  1.00  0.00    -0.314 OA 
BRANCH   9  10
HETATM   10  C   UNL     1     -12.147  13.251  66.961  1.00  0.00    -0.320 C  
BRANCH  10  11
HETATM   11  C   UNL     1     -11.501  12.064  67.695  1.00  0.00    -0.322 C  
BRANCH  11  12
HETATM   12  N   UNL     1     -10.469  11.366  66.907  1.00  0.00    -0.230 NA 
HETATM   13  H   UNL     1     -10.613  10.357  66.922  1.00  0.00     0.000 HD 
BRANCH  12  14
HETATM   14  C   UNL     1     -10.385  11.872  65.519  1.00  0.00    -0.264 C  
BRANCH  14  15
HETATM   15  C   UNL     1     -10.569  10.752  64.473  1.00  0.00    -0.188 C  
HETATM   16  O   UNL     1     -11.075  11.315  63.258  1.00  0.00    -0.771 OA 
HETATM   17  H   UNL     1     -11.188  10.625  62.614  1.00  0.00     0.000 HD 
BRANCH  15  18
HETATM   18  C   UNL     1      -9.237  10.032  64.226  1.00  0.00    -0.269 C  
BRANCH  18  19
HETATM   19  O   UNL     1      -9.037   8.992  65.178  1.00  0.00    -0.207 OA 
BRANCH  19  20
HETATM   20  C   UNL     1      -8.075   9.230  66.130  1.00  0.00    -0.110 A  
HETATM   21  C   UNL     1      -7.056  10.194  66.011  1.00  0.00    -0.118 A  
HETATM   22  C   UNL     1      -6.132  10.402  67.030  1.00  0.00    -0.052 A  
HETATM   23  C   UNL     1      -6.182   9.662  68.210  1.00  0.00    -0.055 A  
HETATM   24  C   UNL     1      -7.192   8.698  68.320  1.00  0.00    -0.086 A  
HETATM   25  C   UNL     1      -8.132   8.459  67.316  1.00  0.00    -0.105 A  
HETATM   26  C   UNL     1      -8.982   7.398  67.777  1.00  0.00    -0.127 A  
HETATM   27  C   UNL     1     -10.081   6.709  67.220  1.00  0.00    -0.222 A  
HETATM   28  C   UNL     1     -10.711   5.699  67.955  1.00  0.00    -0.241 A  
HETATM   29  C   UNL     1     -10.261   5.371  69.232  1.00  0.00    -0.315 A  
HETATM   30  C   UNL     1      -9.172   6.034  69.806  1.00  0.00    -0.153 A  
HETATM   31  C   UNL     1      -8.553   7.039  69.051  1.00  0.00    -0.129 A  
HETATM   32  N   UNL     1      -7.477   7.833  69.353  1.00  0.00    -0.086 NA 
HETATM   33  H   UNL     1      -6.955   7.789  70.229  1.00  0.00     0.000 HD 
ENDBRANCH  19  20
ENDBRANCH  18  19
ENDBRANCH  15  18
ENDBRANCH  14  15
ENDBRANCH  12  14
ENDBRANCH  11  12
ENDBRANCH  10  11
ENDBRANCH   9  10
ENDBRANCH   8   9
ENDBRANCH   2   3
TORSDOF 10
ENDMDL
MODEL      322
REMARK 921   NORMALIZED FREE ENERGY PREDICTED BY IDOCK:   -3.70 KCAL/MOL
REMARK 922        TOTAL FREE ENERGY PREDICTED BY IDOCK:   -7.71 KCAL/MOL
REMARK 923 INTER-LIGAND FREE ENERGY PREDICTED BY IDOCK:   -7.27 KCAL/MOL
REMARK 924 INTRA-LIGAND FREE ENERGY PREDICTED BY IDOCK:   -0.44 KCAL/MOL
REMARK 927      BINDING AFFINITY PREDICTED BY RF-SCORE:    0.00 PKD
ROOT
HETATM    1  C   UNL     1      -7.876  12.750  67.578  1.00  0.00    -0.171 C  
HETATM    2  O   UNL     1      -9.121  12.997  66.928  1.00  0.00    -0.222 OA 
ENDROOT
BRANCH   2   3
HETATM    3  C   UNL     1      -9.940  13.925  67.521  1.00  0.00    -0.240 A  
HETATM    4  C   UNL     1      -9.476  15.212  67.837  1.00  0.00    -0.194 A  
HETATM    5  C   UNL     1     -10.328  16.166  68.393  1.00  0.00    -0.257 A  
HETATM    6  C   UNL     1     -11.649  15.839  68.667  1.00  0.00    -0.392 A  
HETATM    7  C   UNL     1     -12.108  14.549  68.406  1.00  0.00    -0.249 A  
HETATM    8  C   UNL     1     -11.267  13.578  67.844  1.00  0.00    -0.274 A  
BRANCH   8   9
HETATM    9  O   UNL     1     -11.914  12.378  67.666  1.00  0.00    -0.454 OA 
BRANCH   9  10
HETATM   10  C   UNL     1     -11.672  11.359  68.628  1.00  0.00    -0.329 C  
BRANCH  10  11
HETATM   11  C   UNL     1     -12.546  11.586  69.873  1.00  0.00     0.017 C  
BRANCH  11  12
HETATM   12  N   UNL     1     -13.245  10.375  70.339  1.00  0.00    -0.454 NA 
HETATM   13  H   UNL     1     -12.960   9.555  69.803  1.00  0.00     0.000 HD 
BRANCH  12  14
HETATM   14  C   UNL     1     -13.071  10.149  71.791  1.00  0.00    -0.463 C  
BRANCH  14  15
HETATM   15  C   UNL     1     -12.857   8.659  72.133  1.00  0.00    -0.391 C  
HETATM   16  O   UNL     1     -13.509   7.847  71.151  1.00  0.00    -0.542 OA 
HETATM   17  H   UNL     1     -13.377   6.930  71.361  1.00  0.00     0.000 HD 
BRANCH  15  18
HETATM   18  C   UNL     1     -11.358   8.338  72.196  1.00  0.00    -0.352 C  
BRANCH  18  19
HETATM   19  O   UNL     1     -11.143   6.942  72.373  1.00  0.00    -0.242 OA 
BRANCH  19  20
HETATM   20  C   UNL     1     -10.324   6.341  71.446  1.00  0.00    -0.210 A  
HETATM   21  C   UNL     1     -10.780   5.566  70.364  1.00  0.00    -0.321 A  
HETATM   22  C   UNL     1      -9.894   5.010  69.446  1.00  0.00    -0.273 A  
HETATM   23  C   UNL     1      -8.519   5.203  69.565  1.00  0.00    -0.093 A  
HETATM   24  C   UNL     1      -8.069   5.967  70.649  1.00  0.00    -0.118 A  
HETATM   25  C   UNL     1      -8.929   6.534  71.592  1.00  0.00    -0.143 A  
HETATM   26  C   UNL     1      -8.111   7.218  72.552  1.00  0.00    -0.112 A  
HETATM   27  C   UNL     1      -8.383   7.952  73.728  1.00  0.00    -0.292 A  
HETATM   28  C   UNL     1      -7.328   8.513  74.454  1.00  0.00    -0.206 A  
HETATM   29  C   UNL     1      -6.012   8.352  74.025  1.00  0.00    -0.123 A  
HETATM   30  C   UNL     1      -5.714   7.626  72.868  1.00  0.00    -0.044 A  
HETATM   31  C   UNL     1      -6.786   7.069  72.158  1.00  0.00    -0.057 A  
HETATM   32  N   UNL     1      -6.788   6.313  71.013  1.00  0.00    -0.064 NA 
HETATM   33  H   UNL     1      -5.949   6.043  70.499  1.00  0.00     0.000 HD 
ENDBRANCH  19  20
ENDBRANCH  18  19
ENDBRANCH  15  18
ENDBRANCH  14  15
ENDBRANCH  12  14
ENDBRANCH  11  12
ENDBRANCH  10  11
ENDBRANCH   9  10
ENDBRANCH   8   9
ENDBRANCH   2   3
TORSDOF 10
ENDMDL
MODEL      323
REMARK 921   NORMALIZED FREE ENERGY PREDICTED BY IDOCK:   -3.70 KCAL/MOL
REMARK 922        TOTAL FREE ENERGY PREDICTED BY IDOCK:   -7.71 KCAL/MOL
REMARK 923 INTER-LIGAND FREE ENERGY PREDICTED BY IDOCK:   -6.71 KCAL/MOL
REMARK 924 INTRA-LIGAND FREE ENERGY PREDICTED BY IDOCK:   -0.99 KCAL/MOL
REMARK 927      BINDING AFFINITY PREDICTED BY RF-SCORE:    0.00 PKD
ROOT
HETATM    1  C   UNL     1     -13.147   6.896  71.752  1.00  0.00    -0.245 C  
HETATM    2  O   UNL     1     -12.662   6.809  70.414  1.00  0.00    -0.053 OA 
ENDROOT
BRANCH   2   3
HETATM    3  C   UNL     1     -11.348   6.441  70.268  1.00  0.00    -0.403 A  
HETATM    4  C   UNL     1     -10.720   5.594  71.197  1.00  0.00    -0.310 A  
HETATM    5  C   UNL     1      -9.400   5.184  71.015  1.00  0.00    -0.198 A  
HETATM    6  C   UNL     1      -8.678   5.635  69.918  1.00  0.00    -0.127 A  
HETATM    7  C   UNL     1      -9.273   6.517  69.018  1.00  0.00    -0.130 A  
HETATM    8  C   UNL     1     -10.601   6.938  69.182  1.00  0.00    -0.223 A  
BRANCH   8   9
HETATM    9  O   UNL     1     -10.993   7.801  68.186  1.00  0.00    -0.015 OA 
BRANCH   9  10
HETATM   10  C   UNL     1     -10.465   9.121  68.224  1.00  0.00    -0.208 C  
BRANCH  10  11
HETATM   11  C   UNL     1     -10.146   9.607  66.800  1.00  0.00    -0.236 C  
BRANCH  11  12
HETATM   12  N   UNL     1     -10.282  11.064  66.623  1.00  0.00    -0.226 NA 
HETATM   13  H   UNL     1      -9.417  11.547  66.865  1.00  0.00     0.000 HD 
BRANCH  12  14
HETATM   14  C   UNL     1     -10.732  11.425  65.261  1.00  0.00    -0.265 C  
BRANCH  14  15
HETATM   15  C   UNL     1     -11.513  12.758  65.234  1.00  0.00    -0.325 C  
HETATM   16  O   UNL     1     -12.915  12.489  65.320  1.00  0.00    -0.588 OA 
HETATM   17  H   UNL     1     -13.396  13.309  65.303  1.00  0.00     0.000 HD 
BRANCH  15  18
HETATM   18  C   UNL     1     -11.060  13.662  66.388  1.00  0.00    -0.303 C  
BRANCH  18  19
HETATM   19  O   UNL     1      -9.735  14.137  66.172  1.00  0.00    -0.294 OA 
BRANCH  19  20
HETATM   20  C   UNL     1      -9.480  15.416  66.607  1.00  0.00    -0.259 A  
HETATM   21  C   UNL     1     -10.135  16.566  66.129  1.00  0.00    -0.365 A  
HETATM   22  C   UNL     1      -9.846  17.829  66.636  1.00  0.00    -0.322 A  
HETATM   23  C   UNL     1      -8.895  18.001  67.641  1.00  0.00    -0.254 A  
HETATM   24  C   UNL     1      -8.240  16.855  68.107  1.00  0.00    -0.207 A  
HETATM   25  C   UNL     1      -8.500  15.574  67.617  1.00  0.00    -0.177 A  
HETATM   26  C   UNL     1      -7.630  14.669  68.313  1.00  0.00    -0.118 A  
HETATM   27  C   UNL     1      -7.409  13.276  68.251  1.00  0.00    -0.113 A  
HETATM   28  C   UNL     1      -6.465  12.686  69.097  1.00  0.00    -0.106 A  
HETATM   29  C   UNL     1      -5.742  13.463  69.999  1.00  0.00    -0.124 A  
HETATM   30  C   UNL     1      -5.937  14.846  70.079  1.00  0.00    -0.143 A  
HETATM   31  C   UNL     1      -6.885  15.417  69.219  1.00  0.00    -0.157 A  
HETATM   32  N   UNL     1      -7.269  16.726  69.075  1.00  0.00    -0.219 NA 
HETATM   33  H   UNL     1      -6.886  17.503  69.614  1.00  0.00     0.000 HD 
ENDBRANCH  19  20
ENDBRANCH  18  19
ENDBRANCH  15  18
ENDBRANCH  14  15
ENDBRANCH  12  14
ENDBRANCH  11  12
ENDBRANCH  10  11
ENDBRANCH   9  10
ENDBRANCH   8   9
ENDBRANCH   2   3
TORSDOF 10
ENDMDL
MODEL      324
REMARK 921   NORMALIZED FREE ENERGY PREDICTED BY IDOCK:   -3.68 KCAL/MOL
REMARK 922        TOTAL FREE ENERGY PREDICTED BY IDOCK:   -7.68 KCAL/MOL
REMARK 923 INTER-LIGAND FREE ENERGY PREDICTED BY IDOCK:   -6.13 KCAL/MOL
REMARK 924 INTRA-LIGAND FREE ENERGY PREDICTED BY IDOCK:   -1.55 KCAL/MOL
REMARK 927      BINDING AFFINITY PREDICTED BY RF-SCORE:    0.00 PKD
ROOT
HETATM    1  C   UNL     1     -10.779   4.819  65.906  1.00  0.00    -0.173 C  
HETATM    2  O   UNL     1      -9.554   4.702  66.626  1.00  0.00    -0.151 OA 
ENDROOT
BRANCH   2   3
HETATM    3  C   UNL     1      -8.409   4.977  65.921  1.00  0.00    -0.116 A  
HETATM    4  C   UNL     1      -8.440   5.191  64.533  1.00  0.00    -0.141 A  
HETATM    5  C   UNL     1      -7.281   5.521  63.832  1.00  0.00    -0.051 A  
HETATM    6  C   UNL     1      -6.068   5.614  64.502  1.00  0.00    -0.025 A  
HETATM    7  C   UNL     1      -6.015   5.354  65.870  1.00  0.00    -0.025 A  
HETATM    8  C   UNL     1      -7.171   5.024  66.593  1.00  0.00    -0.081 A  
BRANCH   8   9
HETATM    9  O   UNL     1      -6.902   4.810  67.924  1.00  0.00    -0.053 OA 
BRANCH   9  10
HETATM   10  C   UNL     1      -6.039   5.737  68.570  1.00  0.00    -0.025 C  
BRANCH  10  11
HETATM   11  C   UNL     1      -6.798   6.486  69.678  1.00  0.00    -0.065 C  
BRANCH  11  12
HETATM   12  N   UNL     1      -7.088   7.895  69.353  1.00  0.00    -0.062 NA 
HETATM   13  H   UNL     1      -6.370   8.288  68.744  1.00  0.00     0.000 HD 
BRANCH  12  14
HETATM   14  C   UNL     1      -8.436   8.071  68.771  1.00  0.00    -0.127 C  
BRANCH  14  15
HETATM   15  C   UNL     1      -8.888   9.547  68.770  1.00  0.00    -0.132 C  
HETATM   16  O   UNL     1      -9.042   9.997  70.120  1.00  0.00    -0.361 OA 
HETATM   17  H   UNL     1      -9.320  10.906  70.120  1.00  0.00     0.000 HD 
BRANCH  15  18
HETATM   18  C   UNL     1      -7.870  10.415  68.020  1.00  0.00    -0.104 C  
BRANCH  18  19
HETATM   19  O   UNL     1      -8.509  11.189  67.009  1.00  0.00    -0.136 OA 
BRANCH  19  20
HETATM   20  C   UNL     1      -8.588  10.603  65.768  1.00  0.00    -0.181 A  
HETATM   21  C   UNL     1      -7.806   9.511  65.350  1.00  0.00    -0.109 A  
HETATM   22  C   UNL     1      -7.960   8.948  64.087  1.00  0.00    -0.148 A  
HETATM   23  C   UNL     1      -8.900   9.448  63.187  1.00  0.00    -0.207 A  
HETATM   24  C   UNL     1      -9.671  10.541  63.604  1.00  0.00    -0.318 A  
HETATM   25  C   UNL     1      -9.538  11.133  64.861  1.00  0.00    -0.279 A  
HETATM   26  C   UNL     1     -10.469  12.223  64.915  1.00  0.00    -0.321 A  
HETATM   27  C   UNL     1     -10.788  13.194  65.890  1.00  0.00    -0.288 A  
HETATM   28  C   UNL     1     -11.780  14.144  65.623  1.00  0.00    -0.357 A  
HETATM   29  C   UNL     1     -12.454  14.136  64.404  1.00  0.00    -0.325 A  
HETATM   30  C   UNL     1     -12.156  13.189  63.419  1.00  0.00    -0.558 A  
HETATM   31  C   UNL     1     -11.155  12.250  63.705  1.00  0.00    -0.442 A  
HETATM   32  N   UNL     1     -10.657  11.231  62.936  1.00  0.00    -0.769 NA 
HETATM   33  H   UNL     1     -10.975  11.012  61.991  1.00  0.00     0.000 HD 
ENDBRANCH  19  20
ENDBRANCH  18  19
ENDBRANCH  15  18
ENDBRANCH  14  15
ENDBRANCH  12  14
ENDBRANCH  11  12
ENDBRANCH  10  11
ENDBRANCH   9  10
ENDBRANCH   8   9
ENDBRANCH   2   3
TORSDOF 10
ENDMDL
MODEL      325
REMARK 921   NORMALIZED FREE ENERGY PREDICTED BY IDOCK:   -3.66 KCAL/MOL
REMARK 922        TOTAL FREE ENERGY PREDICTED BY IDOCK:   -7.65 KCAL/MOL
REMARK 923 INTER-LIGAND FREE ENERGY PREDICTED BY IDOCK:   -7.61 KCAL/MOL
REMARK 924 INTRA-LIGAND FREE ENERGY PREDICTED BY IDOCK:   -0.03 KCAL/MOL
REMARK 927      BINDING AFFINITY PREDICTED BY RF-SCORE:    0.00 PKD
ROOT
HETATM    1  C   UNL     1     -13.073  12.090  72.110  1.00  0.00    -0.246 C  
HETATM    2  O   UNL     1     -13.481  10.725  72.164  1.00  0.00    -0.379 OA 
ENDROOT
BRANCH   2   3
HETATM    3  C   UNL     1     -12.560   9.799  71.744  1.00  0.00    -0.416 A  
HETATM    4  C   UNL     1     -12.184   8.721  72.562  1.00  0.00    -0.347 A  
HETATM    5  C   UNL     1     -11.285   7.756  72.109  1.00  0.00    -0.348 A  
HETATM    6  C   UNL     1     -10.726   7.869  70.844  1.00  0.00    -0.234 A  
HETATM    7  C   UNL     1     -11.051   8.962  70.042  1.00  0.00    -0.180 A  
HETATM    8  C   UNL     1     -11.956   9.941  70.479  1.00  0.00    -0.239 A  
BRANCH   8   9
HETATM    9  O   UNL     1     -12.139  10.928  69.540  1.00  0.00    -0.322 OA 
BRANCH   9  10
HETATM   10  C   UNL     1     -11.417  10.807  68.321  1.00  0.00    -0.280 C  
BRANCH  10  11
HETATM   11  C   UNL     1     -10.424  11.973  68.174  1.00  0.00    -0.202 C  
BRANCH  11  12
HETATM   12  N   UNL     1      -9.364  11.985  69.198  1.00  0.00    -0.242 NA 
HETATM   13  H   UNL     1      -8.873  11.092  69.231  1.00  0.00     0.000 HD 
BRANCH  12  14
HETATM   14  C   UNL     1      -8.418  13.107  69.013  1.00  0.00     0.433 C  
BRANCH  14  15
HETATM   15  C   UNL     1      -9.136  14.469  68.898  1.00  0.00    -0.111 C  
HETATM   16  O   UNL     1      -9.729  14.801  70.158  1.00  0.00    -0.339 OA 
HETATM   17  H   UNL     1     -10.172  15.639  70.087  1.00  0.00     0.000 HD 
BRANCH  15  18
HETATM   18  C   UNL     1      -8.148  15.557  68.459  1.00  0.00    -0.146 C  
BRANCH  18  19
HETATM   19  O   UNL     1      -7.828  15.425  67.078  1.00  0.00    -0.207 OA 
BRANCH  19  20
HETATM   20  C   UNL     1      -8.898  15.387  66.216  1.00  0.00    -0.267 A  
HETATM   21  C   UNL     1      -9.374  14.223  65.585  1.00  0.00     0.145 A  
HETATM   22  C   UNL     1     -10.484  14.254  64.747  1.00  0.00    -0.421 A  
HETATM   23  C   UNL     1     -11.167  15.444  64.501  1.00  0.00    -0.310 A  
HETATM   24  C   UNL     1     -10.685  16.602  65.124  1.00  0.00    -0.189 A  
HETATM   25  C   UNL     1      -9.572  16.608  65.966  1.00  0.00    -0.298 A  
HETATM   26  C   UNL     1      -9.372  17.963  66.393  1.00  0.00    -0.268 A  
HETATM   27  C   UNL     1      -8.420  18.603  67.217  1.00  0.00    -0.275 A  
HETATM   28  C   UNL     1      -8.513  19.980  67.443  1.00  0.00    -0.391 A  
HETATM   29  C   UNL     1      -9.538  20.723  66.861  1.00  0.00    -0.330 A  
HETATM   30  C   UNL     1     -10.491  20.116  66.037  1.00  0.00    -0.446 A  
HETATM   31  C   UNL     1     -10.377  18.737  65.820  1.00  0.00    -0.213 A  
HETATM   32  N   UNL     1     -11.151  17.895  65.063  1.00  0.00    -0.550 NA 
HETATM   33  H   UNL     1     -11.966  18.190  64.524  1.00  0.00     0.000 HD 
ENDBRANCH  19  20
ENDBRANCH  18  19
ENDBRANCH  15  18
ENDBRANCH  14  15
ENDBRANCH  12  14
ENDBRANCH  11  12
ENDBRANCH  10  11
ENDBRANCH   9  10
ENDBRANCH   8   9
ENDBRANCH   2   3
TORSDOF 10
ENDMDL
MODEL      326
REMARK 921   NORMALIZED FREE ENERGY PREDICTED BY IDOCK:   -3.65 KCAL/MOL
REMARK 922        TOTAL FREE ENERGY PREDICTED BY IDOCK:   -7.63 KCAL/MOL
REMARK 923 INTER-LIGAND FREE ENERGY PREDICTED BY IDOCK:   -6.07 KCAL/MOL
REMARK 924 INTRA-LIGAND FREE ENERGY PREDICTED BY IDOCK:   -1.56 KCAL/MOL
REMARK 927      BINDING AFFINITY PREDICTED BY RF-SCORE:    0.00 PKD
ROOT
HETATM    1  C   UNL     1      -9.882   5.091  70.373  1.00  0.00    -0.230 C  
HETATM    2  O   UNL     1     -11.041   5.795  69.933  1.00  0.00    -0.360 OA 
ENDROOT
BRANCH   2   3
HETATM    3  C   UNL     1     -11.104   7.125  70.263  1.00  0.00    -0.274 A  
HETATM    4  C   UNL     1     -12.013   7.596  71.225  1.00  0.00    -0.330 A  
HETATM    5  C   UNL     1     -12.036   8.941  71.593  1.00  0.00    -0.415 A  
HETATM    6  C   UNL     1     -11.171   9.841  70.985  1.00  0.00    -0.451 A  
HETATM    7  C   UNL     1     -10.300   9.395  69.992  1.00  0.00    -0.265 A  
HETATM    8  C   UNL     1     -10.260   8.046  69.611  1.00  0.00    -0.208 A  
BRANCH   8   9
HETATM    9  O   UNL     1      -9.334   7.818  68.622  1.00  0.00    -0.148 OA 
BRANCH   9  10
HETATM   10  C   UNL     1      -9.811   7.770  67.283  1.00  0.00    -0.189 C  
BRANCH  10  11
HETATM   11  C   UNL     1      -8.670   7.385  66.326  1.00  0.00    -0.149 C  
BRANCH  11  12
HETATM   12  N   UNL     1      -8.819   7.940  64.968  1.00  0.00    -0.381 NA 
HETATM   13  H   UNL     1      -9.661   7.584  64.514  1.00  0.00     0.000 HD 
BRANCH  12  14
HETATM   14  C   UNL     1      -8.793   9.418  64.960  1.00  0.00    -0.196 C  
BRANCH  14  15
HETATM   15  C   UNL     1      -7.412   9.980  64.557  1.00  0.00    -0.142 C  
HETATM   16  O   UNL     1      -7.569  10.887  63.462  1.00  0.00    -0.342 OA 
HETATM   17  H   UNL     1      -6.719  11.233  63.215  1.00  0.00     0.000 HD 
BRANCH  15  18
HETATM   18  C   UNL     1      -6.753  10.678  65.754  1.00  0.00    -0.097 C  
BRANCH  18  19
HETATM   19  O   UNL     1      -7.664  10.792  66.841  1.00  0.00    -0.118 OA 
BRANCH  19  20
HETATM   20  C   UNL     1      -7.097  10.886  68.090  1.00  0.00    -0.077 A  
HETATM   21  C   UNL     1      -6.553   9.802  68.803  1.00  0.00    -0.046 A  
HETATM   22  C   UNL     1      -5.966   9.976  70.052  1.00  0.00    -0.053 A  
HETATM   23  C   UNL     1      -5.896  11.236  70.645  1.00  0.00    -0.097 A  
HETATM   24  C   UNL     1      -6.447  12.311  69.936  1.00  0.00     0.009 A  
HETATM   25  C   UNL     1      -7.047  12.171  68.684  1.00  0.00    -0.103 A  
HETATM   26  C   UNL     1      -7.507  13.472  68.288  1.00  0.00    -0.122 A  
HETATM   27  C   UNL     1      -8.195  13.968  67.159  1.00  0.00    -0.146 A  
HETATM   28  C   UNL     1      -8.496  15.332  67.076  1.00  0.00    -0.258 A  
HETATM   29  C   UNL     1      -8.121  16.201  68.097  1.00  0.00    -0.149 A  
HETATM   30  C   UNL     1      -7.442  15.736  69.228  1.00  0.00    -0.220 A  
HETATM   31  C   UNL     1      -7.155  14.366  69.294  1.00  0.00    -0.124 A  
HETATM   32  N   UNL     1      -6.520  13.643  70.272  1.00  0.00    -0.386 NA 
HETATM   33  H   UNL     1      -6.151  14.042  71.136  1.00  0.00     0.000 HD 
ENDBRANCH  19  20
ENDBRANCH  18  19
ENDBRANCH  15  18
ENDBRANCH  14  15
ENDBRANCH  12  14
ENDBRANCH  11  12
ENDBRANCH  10  11
ENDBRANCH   9  10
ENDBRANCH   8   9
ENDBRANCH   2   3
TORSDOF 10
ENDMDL
MODEL      327
REMARK 921   NORMALIZED FREE ENERGY PREDICTED BY IDOCK:   -3.64 KCAL/MOL
REMARK 922        TOTAL FREE ENERGY PREDICTED BY IDOCK:   -7.61 KCAL/MOL
REMARK 923 INTER-LIGAND FREE ENERGY PREDICTED BY IDOCK:   -6.87 KCAL/MOL
REMARK 924 INTRA-LIGAND FREE ENERGY PREDICTED BY IDOCK:   -0.74 KCAL/MOL
REMARK 927      BINDING AFFINITY PREDICTED BY RF-SCORE:    0.00 PKD
ROOT
HETATM    1  C   UNL     1      -8.225  12.238  68.076  1.00  0.00    -0.163 C  
HETATM    2  O   UNL     1      -9.256  12.734  67.224  1.00  0.00    -0.189 OA 
ENDROOT
BRANCH   2   3
HETATM    3  C   UNL     1     -10.071  13.700  67.759  1.00  0.00    -0.242 A  
HETATM    4  C   UNL     1      -9.583  14.983  68.059  1.00  0.00    -0.208 A  
HETATM    5  C   UNL     1     -10.429  15.974  68.555  1.00  0.00    -0.258 A  
HETATM    6  C   UNL     1     -11.768  15.691  68.785  1.00  0.00    -0.382 A  
HETATM    7  C   UNL     1     -12.253  14.408  68.541  1.00  0.00    -0.178 A  
HETATM    8  C   UNL     1     -11.418  13.398  68.039  1.00  0.00    -0.304 A  
BRANCH   8   9
HETATM    9  O   UNL     1     -12.092  12.212  67.867  1.00  0.00    -0.502 OA 
BRANCH   9  10
HETATM   10  C   UNL     1     -11.648  11.096  68.629  1.00  0.00    -0.315 C  
BRANCH  10  11
HETATM   11  C   UNL     1     -12.211  11.171  70.058  1.00  0.00    -0.326 C  
BRANCH  11  12
HETATM   12  N   UNL     1     -12.784   9.900  70.539  1.00  0.00    -0.532 NA 
HETATM   13  H   UNL     1     -12.758   9.185  69.812  1.00  0.00     0.000 HD 
BRANCH  12  14
HETATM   14  C   UNL     1     -12.132   9.424  71.779  1.00  0.00    -0.382 C  
BRANCH  14  15
HETATM   15  C   UNL     1     -11.884   7.900  71.765  1.00  0.00    -0.293 C  
HETATM   16  O   UNL     1     -12.359   7.353  70.531  1.00  0.00    -0.546 OA 
HETATM   17  H   UNL     1     -12.206   6.415  70.522  1.00  0.00     0.000 HD 
BRANCH  15  18
HETATM   18  C   UNL     1     -10.391   7.603  71.954  1.00  0.00    -0.199 C  
BRANCH  18  19
HETATM   19  O   UNL     1      -9.971   6.544  71.100  1.00  0.00    -0.182 OA 
BRANCH  19  20
HETATM   20  C   UNL     1      -9.285   6.922  69.971  1.00  0.00    -0.155 A  
HETATM   21  C   UNL     1      -9.050   8.256  69.590  1.00  0.00    -0.154 A  
HETATM   22  C   UNL     1      -8.320   8.567  68.447  1.00  0.00    -0.124 A  
HETATM   23  C   UNL     1      -7.793   7.564  67.635  1.00  0.00    -0.113 A  
HETATM   24  C   UNL     1      -8.038   6.237  68.012  1.00  0.00    -0.115 A  
HETATM   25  C   UNL     1      -8.770   5.890  69.149  1.00  0.00    -0.118 A  
HETATM   26  C   UNL     1      -8.825   4.457  69.194  1.00  0.00    -0.132 A  
HETATM   27  C   UNL     1      -9.425   3.525  70.070  1.00  0.00    -0.253 A  
HETATM   28  C   UNL     1      -9.280   2.155  69.828  1.00  0.00    -0.181 A  
HETATM   29  C   UNL     1      -8.549   1.705  68.731  1.00  0.00    -0.089 A  
HETATM   30  C   UNL     1      -7.949   2.606  67.845  1.00  0.00    -0.062 A  
HETATM   31  C   UNL     1      -8.110   3.974  68.103  1.00  0.00    -0.084 A  
HETATM   32  N   UNL     1      -7.648   5.063  67.409  1.00  0.00    -0.090 NA 
HETATM   33  H   UNL     1      -7.089   5.010  66.557  1.00  0.00     0.000 HD 
ENDBRANCH  19  20
ENDBRANCH  18  19
ENDBRANCH  15  18
ENDBRANCH  14  15
ENDBRANCH  12  14
ENDBRANCH  11  12
ENDBRANCH  10  11
ENDBRANCH   9  10
ENDBRANCH   8   9
ENDBRANCH   2   3
TORSDOF 10
ENDMDL
MODEL      328
REMARK 921   NORMALIZED FREE ENERGY PREDICTED BY IDOCK:   -3.64 KCAL/MOL
REMARK 922        TOTAL FREE ENERGY PREDICTED BY IDOCK:   -7.61 KCAL/MOL
REMARK 923 INTER-LIGAND FREE ENERGY PREDICTED BY IDOCK:   -7.04 KCAL/MOL
REMARK 924 INTRA-LIGAND FREE ENERGY PREDICTED BY IDOCK:   -0.57 KCAL/MOL
REMARK 927      BINDING AFFINITY PREDICTED BY RF-SCORE:    0.00 PKD
ROOT
HETATM    1  C   UNL     1      -8.090   8.856  70.292  1.00  0.00    -0.123 C  
HETATM    2  O   UNL     1      -8.478   7.550  69.872  1.00  0.00    -0.135 OA 
ENDROOT
BRANCH   2   3
HETATM    3  C   UNL     1      -9.409   6.914  70.654  1.00  0.00    -0.162 A  
HETATM    4  C   UNL     1      -9.501   5.512  70.684  1.00  0.00    -0.209 A  
HETATM    5  C   UNL     1     -10.415   4.871  71.519  1.00  0.00    -0.179 A  
HETATM    6  C   UNL     1     -11.270   5.621  72.317  1.00  0.00    -0.317 A  
HETATM    7  C   UNL     1     -11.223   7.013  72.258  1.00  0.00    -0.299 A  
HETATM    8  C   UNL     1     -10.308   7.675  71.426  1.00  0.00    -0.196 A  
BRANCH   8   9
HETATM    9  O   UNL     1     -10.425   9.042  71.518  1.00  0.00    -0.287 OA 
BRANCH   9  10
HETATM   10  C   UNL     1     -11.738   9.587  71.468  1.00  0.00    -0.402 C  
BRANCH  10  11
HETATM   11  C   UNL     1     -12.039  10.119  70.057  1.00  0.00    -0.095 C  
BRANCH  11  12
HETATM   12  N   UNL     1     -10.839  10.548  69.314  1.00  0.00    -0.226 NA 
HETATM   13  H   UNL     1     -10.048   9.934  69.506  1.00  0.00     0.000 HD 
BRANCH  12  14
HETATM   14  C   UNL     1     -11.089  10.660  67.861  1.00  0.00    -0.308 C  
BRANCH  14  15
HETATM   15  C   UNL     1      -9.887  11.263  67.102  1.00  0.00    -0.190 C  
HETATM   16  O   UNL     1     -10.297  11.637  65.783  1.00  0.00    -0.232 OA 
HETATM   17  H   UNL     1      -9.557  12.009  65.316  1.00  0.00     0.000 HD 
BRANCH  15  18
HETATM   18  C   UNL     1      -9.331  12.473  67.864  1.00  0.00    -0.200 C  
BRANCH  18  19
HETATM   19  O   UNL     1     -10.384  13.233  68.448  1.00  0.00    -0.242 OA 
BRANCH  19  20
HETATM   20  C   UNL     1     -10.235  14.599  68.400  1.00  0.00    -0.235 A  
HETATM   21  C   UNL     1      -9.608  15.296  67.350  1.00  0.00    -0.207 A  
HETATM   22  C   UNL     1      -9.518  16.684  67.352  1.00  0.00    -0.232 A  
HETATM   23  C   UNL     1     -10.049  17.438  68.398  1.00  0.00    -0.347 A  
HETATM   24  C   UNL     1     -10.664  16.740  69.445  1.00  0.00    -0.300 A  
HETATM   25  C   UNL     1     -10.766  15.348  69.478  1.00  0.00    -0.269 A  
HETATM   26  C   UNL     1     -11.432  15.002  70.701  1.00  0.00    -0.338 A  
HETATM   27  C   UNL     1     -11.802  13.781  71.305  1.00  0.00     0.164 A  
HETATM   28  C   UNL     1     -12.466  13.790  72.537  1.00  0.00     0.029 A  
HETATM   29  C   UNL     1     -12.762  14.995  73.169  1.00  0.00    -0.595 A  
HETATM   30  C   UNL     1     -12.402  16.219  72.596  1.00  0.00    -0.516 A  
HETATM   31  C   UNL     1     -11.735  16.187  71.364  1.00  0.00    -0.444 A  
HETATM   32  N   UNL     1     -11.262  17.215  70.589  1.00  0.00     0.052 NA 
HETATM   33  H   UNL     1     -11.344  18.203  70.830  1.00  0.00     0.000 HD 
ENDBRANCH  19  20
ENDBRANCH  18  19
ENDBRANCH  15  18
ENDBRANCH  14  15
ENDBRANCH  12  14
ENDBRANCH  11  12
ENDBRANCH  10  11
ENDBRANCH   9  10
ENDBRANCH   8   9
ENDBRANCH   2   3
TORSDOF 10
ENDMDL
MODEL      329
REMARK 921   NORMALIZED FREE ENERGY PREDICTED BY IDOCK:   -3.63 KCAL/MOL
REMARK 922        TOTAL FREE ENERGY PREDICTED BY IDOCK:   -7.59 KCAL/MOL
REMARK 923 INTER-LIGAND FREE ENERGY PREDICTED BY IDOCK:   -6.36 KCAL/MOL
REMARK 924 INTRA-LIGAND FREE ENERGY PREDICTED BY IDOCK:   -1.24 KCAL/MOL
REMARK 927      BINDING AFFINITY PREDICTED BY RF-SCORE:    0.00 PKD
ROOT
HETATM    1  C   UNL     1     -11.522  12.594  68.614  1.00  0.00    -0.308 C  
HETATM    2  O   UNL     1     -10.230  11.994  68.686  1.00  0.00    -0.214 OA 
ENDROOT
BRANCH   2   3
HETATM    3  C   UNL     1      -9.943  11.057  67.726  1.00  0.00    -0.173 A  
HETATM    4  C   UNL     1     -10.484  11.147  66.433  1.00  0.00    -0.311 A  
HETATM    5  C   UNL     1     -10.148  10.219  65.448  1.00  0.00    -0.354 A  
HETATM    6  C   UNL     1      -9.288   9.171  65.748  1.00  0.00    -0.309 A  
HETATM    7  C   UNL     1      -8.785   9.041  67.041  1.00  0.00    -0.124 A  
HETATM    8  C   UNL     1      -9.110   9.966  68.045  1.00  0.00    -0.121 A  
BRANCH   8   9
HETATM    9  O   UNL     1      -8.509   9.658  69.242  1.00  0.00    -0.130 OA 
BRANCH   9  10
HETATM   10  C   UNL     1      -7.966   8.351  69.380  1.00  0.00    -0.112 C  
BRANCH  10  11
HETATM   11  C   UNL     1      -6.900   8.332  70.488  1.00  0.00    -0.037 C  
BRANCH  11  12
HETATM   12  N   UNL     1      -6.913   7.106  71.306  1.00  0.00    -0.060 NA 
HETATM   13  H   UNL     1      -7.859   6.737  71.403  1.00  0.00     0.000 HD 
BRANCH  12  14
HETATM   14  C   UNL     1      -5.988   6.075  70.787  1.00  0.00    -0.030 C  
BRANCH  14  15
HETATM   15  C   UNL     1      -6.667   4.695  70.641  1.00  0.00    -0.036 C  
HETATM   16  O   UNL     1      -5.719   3.665  70.936  1.00  0.00    -0.012 OA 
HETATM   17  H   UNL     1      -6.137   2.817  70.846  1.00  0.00     0.000 HD 
BRANCH  15  18
HETATM   18  C   UNL     1      -7.882   4.600  71.573  1.00  0.00    -0.099 C  
BRANCH  18  19
HETATM   19  O   UNL     1      -8.918   3.824  70.980  1.00  0.00    -0.087 OA 
BRANCH  19  20
HETATM   20  C   UNL     1      -9.417   4.301  69.792  1.00  0.00    -0.190 A  
HETATM   21  C   UNL     1      -9.200   3.701  68.538  1.00  0.00    -0.220 A  
HETATM   22  C   UNL     1      -9.762   4.223  67.377  1.00  0.00    -0.210 A  
HETATM   23  C   UNL     1     -10.564   5.362  67.414  1.00  0.00    -0.228 A  
HETATM   24  C   UNL     1     -10.771   5.961  68.663  1.00  0.00    -0.269 A  
HETATM   25  C   UNL     1     -10.218   5.468  69.847  1.00  0.00    -0.338 A  
HETATM   26  C   UNL     1     -10.629   6.347  70.904  1.00  0.00    -0.285 A  
HETATM   27  C   UNL     1     -10.384   6.393  72.294  1.00  0.00    -0.215 A  
HETATM   28  C   UNL     1     -10.957   7.409  73.065  1.00  0.00    -0.422 A  
HETATM   29  C   UNL     1     -11.767   8.374  72.471  1.00  0.00    -0.429 A  
HETATM   30  C   UNL     1     -12.022   8.356  71.097  1.00  0.00    -0.301 A  
HETATM   31  C   UNL     1     -11.435   7.332  70.342  1.00  0.00    -0.248 A  
HETATM   32  N   UNL     1     -11.503   7.077  68.996  1.00  0.00    -0.490 NA 
HETATM   33  H   UNL     1     -12.029   7.642  68.328  1.00  0.00     0.000 HD 
ENDBRANCH  19  20
ENDBRANCH  18  19
ENDBRANCH  15  18
ENDBRANCH  14  15
ENDBRANCH  12  14
ENDBRANCH  11  12
ENDBRANCH  10  11
ENDBRANCH   9  10
ENDBRANCH   8   9
ENDBRANCH   2   3
TORSDOF 10
ENDMDL
MODEL      330
REMARK 921   NORMALIZED FREE ENERGY PREDICTED BY IDOCK:   -3.62 KCAL/MOL
REMARK 922        TOTAL FREE ENERGY PREDICTED BY IDOCK:   -7.59 KCAL/MOL
REMARK 923 INTER-LIGAND FREE ENERGY PREDICTED BY IDOCK:   -7.54 KCAL/MOL
REMARK 924 INTRA-LIGAND FREE ENERGY PREDICTED BY IDOCK:   -0.04 KCAL/MOL
REMARK 927      BINDING AFFINITY PREDICTED BY RF-SCORE:    0.00 PKD
ROOT
HETATM    1  C   UNL     1      -6.065  11.242  66.107  1.00  0.00    -0.034 C  
HETATM    2  O   UNL     1      -7.326  10.577  66.138  1.00  0.00    -0.124 OA 
ENDROOT
BRANCH   2   3
HETATM    3  C   UNL     1      -7.292   9.209  66.038  1.00  0.00    -0.094 A  
HETATM    4  C   UNL     1      -6.900   8.573  64.848  1.00  0.00    -0.072 A  
HETATM    5  C   UNL     1      -6.818   7.184  64.769  1.00  0.00    -0.050 A  
HETATM    6  C   UNL     1      -7.154   6.406  65.870  1.00  0.00    -0.066 A  
HETATM    7  C   UNL     1      -7.594   7.023  67.040  1.00  0.00    -0.102 A  
HETATM    8  C   UNL     1      -7.679   8.419  67.139  1.00  0.00    -0.097 A  
BRANCH   8   9
HETATM    9  O   UNL     1      -8.131   8.821  68.374  1.00  0.00    -0.114 OA 
BRANCH   9  10
HETATM   10  C   UNL     1      -9.290   8.174  68.884  1.00  0.00    -0.147 C  
BRANCH  10  11
HETATM   11  C   UNL     1     -10.369   8.080  67.792  1.00  0.00    -0.231 C  
BRANCH  11  12
HETATM   12  N   UNL     1     -11.268   9.247  67.741  1.00  0.00    -0.412 NA 
HETATM   13  H   UNL     1     -11.214   9.793  68.601  1.00  0.00     0.000 HD 
BRANCH  12  14
HETATM   14  C   UNL     1     -11.019  10.096  66.555  1.00  0.00     0.133 C  
BRANCH  14  15
HETATM   15  C   UNL     1     -10.953  11.597  66.910  1.00  0.00    -0.292 C  
HETATM   16  O   UNL     1     -12.096  12.265  66.367  1.00  0.00    -0.623 OA 
HETATM   17  H   UNL     1     -12.055  13.189  66.585  1.00  0.00     0.000 HD 
BRANCH  15  18
HETATM   18  C   UNL     1     -10.886  11.781  68.431  1.00  0.00    -0.223 C  
BRANCH  18  19
HETATM   19  O   UNL     1      -9.860  12.702  68.788  1.00  0.00    -0.116 OA 
BRANCH  19  20
HETATM   20  C   UNL     1     -10.161  14.031  68.609  1.00  0.00    -0.217 A  
HETATM   21  C   UNL     1      -9.476  14.893  67.732  1.00  0.00    -0.203 A  
HETATM   22  C   UNL     1      -9.854  16.223  67.579  1.00  0.00    -0.238 A  
HETATM   23  C   UNL     1     -10.929  16.752  68.291  1.00  0.00    -0.327 A  
HETATM   24  C   UNL     1     -11.602  15.894  69.169  1.00  0.00    -0.379 A  
HETATM   25  C   UNL     1     -11.246  14.556  69.352  1.00  0.00    -0.312 A  
HETATM   26  C   UNL     1     -12.140  14.011  70.333  1.00  0.00    -0.426 A  
HETATM   27  C   UNL     1     -12.274  12.745  70.943  1.00  0.00    -0.284 A  
HETATM   28  C   UNL     1     -13.285  12.533  71.886  1.00  0.00    -0.495 A  
HETATM   29  C   UNL     1     -14.160  13.563  72.226  1.00  0.00    -0.564 A  
HETATM   30  C   UNL     1     -14.048  14.828  71.640  1.00  0.00    -0.590 A  
HETATM   31  C   UNL     1     -13.025  15.019  70.702  1.00  0.00    -0.345 A  
HETATM   32  N   UNL     1     -12.680  16.139  69.989  1.00  0.00    -0.496 NA 
HETATM   33  H   UNL     1     -13.159  17.038  70.058  1.00  0.00     0.000 HD 
ENDBRANCH  19  20
ENDBRANCH  18  19
ENDBRANCH  15  18
ENDBRANCH  14  15
ENDBRANCH  12  14
ENDBRANCH  11  12
ENDBRANCH  10  11
ENDBRANCH   9  10
ENDBRANCH   8   9
ENDBRANCH   2   3
TORSDOF 10
ENDMDL
MODEL      331
REMARK 921   NORMALIZED FREE ENERGY PREDICTED BY IDOCK:   -3.62 KCAL/MOL
REMARK 922        TOTAL FREE ENERGY PREDICTED BY IDOCK:   -7.59 KCAL/MOL
REMARK 923 INTER-LIGAND FREE ENERGY PREDICTED BY IDOCK:   -6.67 KCAL/MOL
REMARK 924 INTRA-LIGAND FREE ENERGY PREDICTED BY IDOCK:   -0.91 KCAL/MOL
REMARK 927      BINDING AFFINITY PREDICTED BY RF-SCORE:    0.00 PKD
ROOT
HETATM    1  C   UNL     1     -12.616  12.076  63.470  1.00  0.00    -0.507 C  
HETATM    2  O   UNL     1     -11.458  12.899  63.347  1.00  0.00    -0.475 OA 
ENDROOT
BRANCH   2   3
HETATM    3  C   UNL     1     -10.968  13.434  64.511  1.00  0.00    -0.390 A  
HETATM    4  C   UNL     1     -11.170  14.786  64.834  1.00  0.00    -0.411 A  
HETATM    5  C   UNL     1     -10.714  15.311  66.043  1.00  0.00    -0.324 A  
HETATM    6  C   UNL     1     -10.025  14.500  66.935  1.00  0.00    -0.259 A  
HETATM    7  C   UNL     1      -9.773  13.170  66.603  1.00  0.00    -0.261 A  
HETATM    8  C   UNL     1     -10.227  12.623  65.393  1.00  0.00    -0.284 A  
BRANCH   8   9
HETATM    9  O   UNL     1      -9.877  11.300  65.263  1.00  0.00    -0.224 OA 
BRANCH   9  10
HETATM   10  C   UNL     1      -8.889  10.799  66.155  1.00  0.00    -0.177 C  
BRANCH  10  11
HETATM   11  C   UNL     1      -9.178   9.327  66.494  1.00  0.00    -0.161 C  
BRANCH  11  12
HETATM   12  N   UNL     1     -10.519   9.099  67.064  1.00  0.00    -0.258 NA 
HETATM   13  H   UNL     1     -11.201   8.898  66.333  1.00  0.00     0.000 HD 
BRANCH  12  14
HETATM   14  C   UNL     1     -10.517   8.042  68.099  1.00  0.00    -0.167 C  
BRANCH  14  15
HETATM   15  C   UNL     1      -9.844   8.503  69.410  1.00  0.00    -0.185 C  
HETATM   16  O   UNL     1     -10.847   8.948  70.328  1.00  0.00    -0.230 OA 
HETATM   17  H   UNL     1     -10.432   9.232  71.135  1.00  0.00     0.000 HD 
BRANCH  15  18
HETATM   18  C   UNL     1      -9.021   7.359  70.015  1.00  0.00    -0.144 C  
BRANCH  18  19
HETATM   19  O   UNL     1      -8.677   6.399  69.021  1.00  0.00    -0.123 OA 
BRANCH  19  20
HETATM   20  C   UNL     1      -8.931   5.087  69.344  1.00  0.00    -0.092 A  
HETATM   21  C   UNL     1      -9.133   4.612  70.654  1.00  0.00    -0.181 A  
HETATM   22  C   UNL     1      -9.415   3.273  70.905  1.00  0.00    -0.234 A  
HETATM   23  C   UNL     1      -9.509   2.350  69.865  1.00  0.00    -0.127 A  
HETATM   24  C   UNL     1      -9.299   2.825  68.564  1.00  0.00    -0.186 A  
HETATM   25  C   UNL     1      -9.008   4.159  68.277  1.00  0.00    -0.154 A  
HETATM   26  C   UNL     1      -8.839   4.258  66.855  1.00  0.00    -0.118 A  
HETATM   27  C   UNL     1      -8.520   5.316  65.976  1.00  0.00    -0.120 A  
HETATM   28  C   UNL     1      -8.437   5.073  64.601  1.00  0.00    -0.145 A  
HETATM   29  C   UNL     1      -8.666   3.795  64.095  1.00  0.00    -0.107 A  
HETATM   30  C   UNL     1      -8.979   2.728  64.943  1.00  0.00    -0.128 A  
HETATM   31  C   UNL     1      -9.053   2.993  66.317  1.00  0.00    -0.143 A  
HETATM   32  N   UNL     1      -9.326   2.151  67.365  1.00  0.00    -0.355 NA 
HETATM   33  H   UNL     1      -9.524   1.154  67.267  1.00  0.00     0.000 HD 
ENDBRANCH  19  20
ENDBRANCH  18  19
ENDBRANCH  15  18
ENDBRANCH  14  15
ENDBRANCH  12  14
ENDBRANCH  11  12
ENDBRANCH  10  11
ENDBRANCH   9  10
ENDBRANCH   8   9
ENDBRANCH   2   3
TORSDOF 10
ENDMDL
MODEL      332
REMARK 921   NORMALIZED FREE ENERGY PREDICTED BY IDOCK:   -3.61 KCAL/MOL
REMARK 922        TOTAL FREE ENERGY PREDICTED BY IDOCK:   -7.57 KCAL/MOL
REMARK 923 INTER-LIGAND FREE ENERGY PREDICTED BY IDOCK:   -6.80 KCAL/MOL
REMARK 924 INTRA-LIGAND FREE ENERGY PREDICTED BY IDOCK:   -0.77 KCAL/MOL
REMARK 927      BINDING AFFINITY PREDICTED BY RF-SCORE:    0.00 PKD
ROOT
HETATM    1  C   UNL     1      -8.423  13.300  68.015  1.00  0.00    -0.170 C  
HETATM    2  O   UNL     1      -9.836  13.401  67.852  1.00  0.00    -0.222 OA 
ENDROOT
BRANCH   2   3
HETATM    3  C   UNL     1     -10.523  13.997  68.879  1.00  0.00    -0.200 A  
HETATM    4  C   UNL     1     -10.087  15.207  69.444  1.00  0.00    -0.245 A  
HETATM    5  C   UNL     1     -10.818  15.832  70.453  1.00  0.00    -0.345 A  
HETATM    6  C   UNL     1     -11.981  15.245  70.932  1.00  0.00    -0.391 A  
HETATM    7  C   UNL     1     -12.397  14.019  70.416  1.00  0.00    -0.429 A  
HETATM    8  C   UNL     1     -11.676  13.376  69.398  1.00  0.00    -0.325 A  
BRANCH   8   9
HETATM    9  O   UNL     1     -12.256  12.184  69.032  1.00  0.00    -0.200 OA 
BRANCH   9  10
HETATM   10  C   UNL     1     -11.952  11.043  69.824  1.00  0.00    -0.356 C  
BRANCH  10  11
HETATM   11  C   UNL     1     -13.086  10.777  70.829  1.00  0.00    -0.163 C  
BRANCH  11  12
HETATM   12  N   UNL     1     -13.535   9.374  70.863  1.00  0.00    -0.587 NA 
HETATM   13  H   UNL     1     -13.364   8.910  69.970  1.00  0.00     0.000 HD 
BRANCH  12  14
HETATM   14  C   UNL     1     -12.932   8.617  71.981  1.00  0.00    -0.378 C  
BRANCH  14  15
HETATM   15  C   UNL     1     -12.145   7.379  71.498  1.00  0.00    -0.327 C  
HETATM   16  O   UNL     1     -12.736   6.882  70.294  1.00  0.00    -0.539 OA 
HETATM   17  H   UNL     1     -12.252   6.120  69.996  1.00  0.00     0.000 HD 
BRANCH  15  18
HETATM   18  C   UNL     1     -10.672   7.741  71.272  1.00  0.00    -0.228 C  
BRANCH  18  19
HETATM   19  O   UNL     1      -9.831   6.615  71.502  1.00  0.00    -0.172 OA 
BRANCH  19  20
HETATM   20  C   UNL     1      -9.406   5.947  70.378  1.00  0.00    -0.159 A  
HETATM   21  C   UNL     1      -9.961   4.742  69.909  1.00  0.00    -0.306 A  
HETATM   22  C   UNL     1      -9.500   4.135  68.745  1.00  0.00    -0.231 A  
HETATM   23  C   UNL     1      -8.469   4.701  67.998  1.00  0.00    -0.103 A  
HETATM   24  C   UNL     1      -7.913   5.896  68.473  1.00  0.00    -0.102 A  
HETATM   25  C   UNL     1      -8.347   6.528  69.639  1.00  0.00    -0.131 A  
HETATM   26  C   UNL     1      -7.537   7.700  69.811  1.00  0.00    -0.093 A  
HETATM   27  C   UNL     1      -7.476   8.717  70.789  1.00  0.00    -0.087 A  
HETATM   28  C   UNL     1      -6.546   9.754  70.654  1.00  0.00    -0.113 A  
HETATM   29  C   UNL     1      -5.681   9.788  69.563  1.00  0.00    -0.033 A  
HETATM   30  C   UNL     1      -5.716   8.792  68.582  1.00  0.00    -0.041 A  
HETATM   31  C   UNL     1      -6.652   7.760  68.739  1.00  0.00    -0.049 A  
HETATM   32  N   UNL     1      -6.899   6.665  67.951  1.00  0.00    -0.074 NA 
HETATM   33  H   UNL     1      -6.395   6.449  67.090  1.00  0.00     0.000 HD 
ENDBRANCH  19  20
ENDBRANCH  18  19
ENDBRANCH  15  18
ENDBRANCH  14  15
ENDBRANCH  12  14
ENDBRANCH  11  12
ENDBRANCH  10  11
ENDBRANCH   9  10
ENDBRANCH   8   9
ENDBRANCH   2   3
TORSDOF 10
ENDMDL
MODEL      333
REMARK 921   NORMALIZED FREE ENERGY PREDICTED BY IDOCK:   -3.61 KCAL/MOL
REMARK 922        TOTAL FREE ENERGY PREDICTED BY IDOCK:   -7.57 KCAL/MOL
REMARK 923 INTER-LIGAND FREE ENERGY PREDICTED BY IDOCK:   -6.77 KCAL/MOL
REMARK 924 INTRA-LIGAND FREE ENERGY PREDICTED BY IDOCK:   -0.80 KCAL/MOL
REMARK 927      BINDING AFFINITY PREDICTED BY RF-SCORE:    0.00 PKD
ROOT
HETATM    1  C   UNL     1     -11.232  15.615  70.659  1.00  0.00    -0.359 C  
HETATM    2  O   UNL     1     -11.918  14.968  69.589  1.00  0.00    -0.298 OA 
ENDROOT
BRANCH   2   3
HETATM    3  C   UNL     1     -11.442  15.216  68.326  1.00  0.00    -0.336 A  
HETATM    4  C   UNL     1     -10.958  16.484  67.964  1.00  0.00    -0.320 A  
HETATM    5  C   UNL     1     -10.428  16.714  66.695  1.00  0.00    -0.258 A  
HETATM    6  C   UNL     1     -10.400  15.689  65.759  1.00  0.00    -0.386 A  
HETATM    7  C   UNL     1     -10.924  14.440  66.089  1.00  0.00    -0.320 A  
HETATM    8  C   UNL     1     -11.458  14.189  67.362  1.00  0.00    -0.345 A  
BRANCH   8   9
HETATM    9  O   UNL     1     -11.917  12.899  67.481  1.00  0.00    -0.359 OA 
BRANCH   9  10
HETATM   10  C   UNL     1     -11.168  11.879  66.831  1.00  0.00    -0.325 C  
BRANCH  10  11
HETATM   11  C   UNL     1     -10.572  10.914  67.869  1.00  0.00    -0.207 C  
BRANCH  11  12
HETATM   12  N   UNL     1     -10.655  11.406  69.257  1.00  0.00    -0.386 NA 
HETATM   13  H   UNL     1     -10.770  12.420  69.282  1.00  0.00     0.000 HD 
BRANCH  12  14
HETATM   14  C   UNL     1     -11.719  10.729  70.030  1.00  0.00    -0.336 C  
BRANCH  14  15
HETATM   15  C   UNL     1     -11.168   9.591  70.916  1.00  0.00    -0.341 C  
HETATM   16  O   UNL     1     -12.062   9.365  72.010  1.00  0.00    -0.362 OA 
HETATM   17  H   UNL     1     -11.723   8.664  72.555  1.00  0.00     0.000 HD 
BRANCH  15  18
HETATM   18  C   UNL     1     -10.987   8.313  70.087  1.00  0.00    -0.222 C  
BRANCH  18  19
HETATM   19  O   UNL     1      -9.753   7.675  70.398  1.00  0.00    -0.179 OA 
BRANCH  19  20
HETATM   20  C   UNL     1      -8.617   8.363  70.043  1.00  0.00    -0.131 A  
HETATM   21  C   UNL     1      -7.959   9.294  70.868  1.00  0.00    -0.161 A  
HETATM   22  C   UNL     1      -6.794   9.934  70.455  1.00  0.00    -0.141 A  
HETATM   23  C   UNL     1      -6.236   9.674  69.204  1.00  0.00    -0.041 A  
HETATM   24  C   UNL     1      -6.899   8.754  68.383  1.00  0.00    -0.065 A  
HETATM   25  C   UNL     1      -8.072   8.099  68.763  1.00  0.00    -0.120 A  
HETATM   26  C   UNL     1      -8.463   7.260  67.666  1.00  0.00    -0.116 A  
HETATM   27  C   UNL     1      -9.547   6.386  67.437  1.00  0.00    -0.133 A  
HETATM   28  C   UNL     1      -9.634   5.692  66.225  1.00  0.00    -0.166 A  
HETATM   29  C   UNL     1      -8.658   5.858  65.246  1.00  0.00    -0.119 A  
HETATM   30  C   UNL     1      -7.575   6.721  65.444  1.00  0.00    -0.090 A  
HETATM   31  C   UNL     1      -7.510   7.410  66.663  1.00  0.00    -0.088 A  
HETATM   32  N   UNL     1      -6.583   8.312  67.118  1.00  0.00    -0.057 NA 
HETATM   33  H   UNL     1      -5.766   8.617  66.589  1.00  0.00     0.000 HD 
ENDBRANCH  19  20
ENDBRANCH  18  19
ENDBRANCH  15  18
ENDBRANCH  14  15
ENDBRANCH  12  14
ENDBRANCH  11  12
ENDBRANCH  10  11
ENDBRANCH   9  10
ENDBRANCH   8   9
ENDBRANCH   2   3
TORSDOF 10
ENDMDL
MODEL      334
REMARK 921   NORMALIZED FREE ENERGY PREDICTED BY IDOCK:   -3.61 KCAL/MOL
REMARK 922        TOTAL FREE ENERGY PREDICTED BY IDOCK:   -7.57 KCAL/MOL
REMARK 923 INTER-LIGAND FREE ENERGY PREDICTED BY IDOCK:   -6.80 KCAL/MOL
REMARK 924 INTRA-LIGAND FREE ENERGY PREDICTED BY IDOCK:   -0.77 KCAL/MOL
REMARK 927      BINDING AFFINITY PREDICTED BY RF-SCORE:    0.00 PKD
ROOT
HETATM    1  C   UNL     1     -11.029  16.348  69.155  1.00  0.00    -0.324 C  
HETATM    2  O   UNL     1     -11.048  16.580  67.748  1.00  0.00    -0.289 OA 
ENDROOT
BRANCH   2   3
HETATM    3  C   UNL     1     -10.276  17.620  67.296  1.00  0.00    -0.343 A  
HETATM    4  C   UNL     1     -10.723  18.949  67.375  1.00  0.00    -0.519 A  
HETATM    5  C   UNL     1      -9.913  20.005  66.960  1.00  0.00    -0.582 A  
HETATM    6  C   UNL     1      -8.654  19.747  66.434  1.00  0.00    -0.398 A  
HETATM    7  C   UNL     1      -8.219  18.430  66.302  1.00  0.00    -0.245 A  
HETATM    8  C   UNL     1      -9.019  17.354  66.717  1.00  0.00    -0.254 A  
BRANCH   8   9
HETATM    9  O   UNL     1      -8.405  16.144  66.502  1.00  0.00    -0.261 OA 
BRANCH   9  10
HETATM   10  C   UNL     1      -7.260  15.847  67.291  1.00  0.00    -0.216 C  
BRANCH  10  11
HETATM   11  C   UNL     1      -7.652  15.727  68.773  1.00  0.00    -0.173 C  
BRANCH  11  12
HETATM   12  N   UNL     1      -7.694  14.338  69.268  1.00  0.00    -0.333 NA 
HETATM   13  H   UNL     1      -8.630  14.088  69.586  1.00  0.00     0.000 HD 
BRANCH  12  14
HETATM   14  C   UNL     1      -7.193  13.371  68.267  1.00  0.00    -0.111 C  
BRANCH  14  15
HETATM   15  C   UNL     1      -7.663  11.929  68.557  1.00  0.00    -0.135 C  
HETATM   16  O   UNL     1      -8.109  11.321  67.341  1.00  0.00    -0.126 OA 
HETATM   17  H   UNL     1      -8.398  10.433  67.520  1.00  0.00     0.000 HD 
BRANCH  15  18
HETATM   18  C   UNL     1      -6.526  11.116  69.188  1.00  0.00    -0.074 C  
BRANCH  18  19
HETATM   19  O   UNL     1      -6.768   9.718  69.060  1.00  0.00    -0.049 OA 
BRANCH  19  20
HETATM   20  C   UNL     1      -7.065   9.053  70.226  1.00  0.00    -0.055 A  
HETATM   21  C   UNL     1      -6.367   9.216  71.436  1.00  0.00    -0.077 A  
HETATM   22  C   UNL     1      -6.742   8.531  72.588  1.00  0.00    -0.077 A  
HETATM   23  C   UNL     1      -7.827   7.656  72.584  1.00  0.00    -0.123 A  
HETATM   24  C   UNL     1      -8.514   7.491  71.374  1.00  0.00    -0.112 A  
HETATM   25  C   UNL     1      -8.161   8.157  70.199  1.00  0.00    -0.119 A  
HETATM   26  C   UNL     1      -9.070   7.722  69.177  1.00  0.00    -0.145 A  
HETATM   27  C   UNL     1      -9.213   8.012  67.803  1.00  0.00    -0.142 A  
HETATM   28  C   UNL     1     -10.239   7.405  67.070  1.00  0.00    -0.357 A  
HETATM   29  C   UNL     1     -11.118   6.519  67.688  1.00  0.00    -0.380 A  
HETATM   30  C   UNL     1     -10.997   6.210  69.046  1.00  0.00    -0.436 A  
HETATM   31  C   UNL     1      -9.960   6.826  69.761  1.00  0.00    -0.177 A  
HETATM   32  N   UNL     1      -9.603   6.704  71.079  1.00  0.00    -0.171 NA 
HETATM   33  H   UNL     1     -10.083   6.107  71.754  1.00  0.00     0.000 HD 
ENDBRANCH  19  20
ENDBRANCH  18  19
ENDBRANCH  15  18
ENDBRANCH  14  15
ENDBRANCH  12  14
ENDBRANCH  11  12
ENDBRANCH  10  11
ENDBRANCH   9  10
ENDBRANCH   8   9
ENDBRANCH   2   3
TORSDOF 10
ENDMDL
MODEL      335
REMARK 921   NORMALIZED FREE ENERGY PREDICTED BY IDOCK:   -3.59 KCAL/MOL
REMARK 922        TOTAL FREE ENERGY PREDICTED BY IDOCK:   -7.53 KCAL/MOL
REMARK 923 INTER-LIGAND FREE ENERGY PREDICTED BY IDOCK:   -7.20 KCAL/MOL
REMARK 924 INTRA-LIGAND FREE ENERGY PREDICTED BY IDOCK:   -0.33 KCAL/MOL
REMARK 927      BINDING AFFINITY PREDICTED BY RF-SCORE:    0.00 PKD
ROOT
HETATM    1  C   UNL     1      -8.340  13.626  67.997  1.00  0.00    -0.170 C  
HETATM    2  O   UNL     1      -9.757  13.680  67.847  1.00  0.00    -0.219 OA 
ENDROOT
BRANCH   2   3
HETATM    3  C   UNL     1     -10.447  14.325  68.843  1.00  0.00    -0.238 A  
HETATM    4  C   UNL     1     -10.078  15.611  69.272  1.00  0.00    -0.258 A  
HETATM    5  C   UNL     1     -10.815  16.280  70.248  1.00  0.00    -0.257 A  
HETATM    6  C   UNL     1     -11.915  15.665  70.830  1.00  0.00    -0.440 A  
HETATM    7  C   UNL     1     -12.261  14.370  70.450  1.00  0.00    -0.404 A  
HETATM    8  C   UNL     1     -11.534  13.681  69.467  1.00  0.00    -0.263 A  
BRANCH   8   9
HETATM    9  O   UNL     1     -12.040  12.423  69.240  1.00  0.00    -0.259 OA 
BRANCH   9  10
HETATM   10  C   UNL     1     -11.690  11.404  70.167  1.00  0.00    -0.328 C  
BRANCH  10  11
HETATM   11  C   UNL     1     -12.853  11.150  71.141  1.00  0.00    -0.374 C  
BRANCH  11  12
HETATM   12  N   UNL     1     -13.336   9.757  71.141  1.00  0.00    -0.494 NA 
HETATM   13  H   UNL     1     -13.083   9.279  70.276  1.00  0.00     0.000 HD 
BRANCH  12  14
HETATM   14  C   UNL     1     -12.871   9.001  72.324  1.00  0.00    -0.406 C  
BRANCH  14  15
HETATM   15  C   UNL     1     -12.105   7.717  71.938  1.00  0.00    -0.304 C  
HETATM   16  O   UNL     1     -12.615   7.214  70.700  1.00  0.00    -0.602 OA 
HETATM   17  H   UNL     1     -12.143   6.424  70.462  1.00  0.00     0.000 HD 
BRANCH  15  18
HETATM   18  C   UNL     1     -10.603   8.008  71.830  1.00  0.00    -0.245 C  
BRANCH  18  19
HETATM   19  O   UNL     1      -9.866   7.231  72.770  1.00  0.00    -0.159 OA 
BRANCH  19  20
HETATM   20  C   UNL     1     -10.050   5.871  72.696  1.00  0.00    -0.179 A  
HETATM   21  C   UNL     1     -10.958   5.145  73.489  1.00  0.00    -0.370 A  
HETATM   22  C   UNL     1     -11.113   3.770  73.340  1.00  0.00    -0.308 A  
HETATM   23  C   UNL     1     -10.373   3.061  72.397  1.00  0.00    -0.149 A  
HETATM   24  C   UNL     1      -9.463   3.785  71.616  1.00  0.00    -0.143 A  
HETATM   25  C   UNL     1      -9.278   5.163  71.743  1.00  0.00    -0.168 A  
HETATM   26  C   UNL     1      -8.263   5.542  70.802  1.00  0.00    -0.117 A  
HETATM   27  C   UNL     1      -7.635   6.763  70.473  1.00  0.00    -0.091 A  
HETATM   28  C   UNL     1      -6.657   6.792  69.473  1.00  0.00    -0.048 A  
HETATM   29  C   UNL     1      -6.302   5.626  68.800  1.00  0.00    -0.038 A  
HETATM   30  C   UNL     1      -6.904   4.402  69.108  1.00  0.00    -0.046 A  
HETATM   31  C   UNL     1      -7.877   4.394  70.116  1.00  0.00    -0.056 A  
HETATM   32  N   UNL     1      -8.612   3.354  70.625  1.00  0.00    -0.068 NA 
HETATM   33  H   UNL     1      -8.537   2.386  70.309  1.00  0.00     0.000 HD 
ENDBRANCH  19  20
ENDBRANCH  18  19
ENDBRANCH  15  18
ENDBRANCH  14  15
ENDBRANCH  12  14
ENDBRANCH  11  12
ENDBRANCH  10  11
ENDBRANCH   9  10
ENDBRANCH   8   9
ENDBRANCH   2   3
TORSDOF 10
ENDMDL
MODEL      336
REMARK 921   NORMALIZED FREE ENERGY PREDICTED BY IDOCK:   -3.59 KCAL/MOL
REMARK 922        TOTAL FREE ENERGY PREDICTED BY IDOCK:   -7.53 KCAL/MOL
REMARK 923 INTER-LIGAND FREE ENERGY PREDICTED BY IDOCK:   -6.69 KCAL/MOL
REMARK 924 INTRA-LIGAND FREE ENERGY PREDICTED BY IDOCK:   -0.84 KCAL/MOL
REMARK 927      BINDING AFFINITY PREDICTED BY RF-SCORE:    0.00 PKD
ROOT
HETATM    1  C   UNL     1      -9.802   3.813  71.203  1.00  0.00    -0.143 C  
HETATM    2  O   UNL     1      -9.424   5.176  71.380  1.00  0.00    -0.144 OA 
ENDROOT
BRANCH   2   3
HETATM    3  C   UNL     1      -8.212   5.542  70.851  1.00  0.00    -0.118 A  
HETATM    4  C   UNL     1      -7.049   5.565  71.638  1.00  0.00    -0.076 A  
HETATM    5  C   UNL     1      -5.812   5.889  71.081  1.00  0.00    -0.025 A  
HETATM    6  C   UNL     1      -5.723   6.222  69.736  1.00  0.00    -0.014 A  
HETATM    7  C   UNL     1      -6.878   6.253  68.956  1.00  0.00    -0.066 A  
HETATM    8  C   UNL     1      -8.131   5.927  69.498  1.00  0.00    -0.106 A  
BRANCH   8   9
HETATM    9  O   UNL     1      -9.134   6.017  68.563  1.00  0.00    -0.114 OA 
BRANCH   9  10
HETATM   10  C   UNL     1      -9.853   7.243  68.497  1.00  0.00    -0.156 C  
BRANCH  10  11
HETATM   11  C   UNL     1     -10.515   7.397  67.117  1.00  0.00    -0.333 C  
BRANCH  11  12
HETATM   12  N   UNL     1     -10.663   8.797  66.681  1.00  0.00    -0.092 NA 
HETATM   13  H   UNL     1     -10.724   9.428  67.480  1.00  0.00     0.000 HD 
BRANCH  12  14
HETATM   14  C   UNL     1      -9.588   9.212  65.753  1.00  0.00    -0.253 C  
BRANCH  14  15
HETATM   15  C   UNL     1      -8.417   9.905  66.484  1.00  0.00    -0.125 C  
HETATM   16  O   UNL     1      -7.177   9.377  66.002  1.00  0.00    -0.089 OA 
HETATM   17  H   UNL     1      -6.456   9.804  66.451  1.00  0.00     0.000 HD 
BRANCH  15  18
HETATM   18  C   UNL     1      -8.481  11.423  66.272  1.00  0.00    -0.138 C  
BRANCH  18  19
HETATM   19  O   UNL     1      -9.633  11.975  66.901  1.00  0.00    -0.195 OA 
BRANCH  19  20
HETATM   20  C   UNL     1     -10.470  12.700  66.086  1.00  0.00    -0.258 A  
HETATM   21  C   UNL     1     -11.583  12.166  65.410  1.00  0.00    -0.383 A  
HETATM   22  C   UNL     1     -12.406  12.966  64.623  1.00  0.00    -0.501 A  
HETATM   23  C   UNL     1     -12.157  14.330  64.476  1.00  0.00    -0.499 A  
HETATM   24  C   UNL     1     -11.043  14.855  65.143  1.00  0.00    -0.393 A  
HETATM   25  C   UNL     1     -10.194  14.080  65.936  1.00  0.00    -0.332 A  
HETATM   26  C   UNL     1      -9.167  14.952  66.431  1.00  0.00    -0.317 A  
HETATM   27  C   UNL     1      -8.031  14.765  67.248  1.00  0.00    -0.232 A  
HETATM   28  C   UNL     1      -7.212  15.857  67.557  1.00  0.00    -0.204 A  
HETATM   29  C   UNL     1      -7.511  17.125  67.064  1.00  0.00    -0.223 A  
HETATM   30  C   UNL     1      -8.627  17.337  66.248  1.00  0.00    -0.264 A  
HETATM   31  C   UNL     1      -9.431  16.230  65.947  1.00  0.00    -0.283 A  
HETATM   32  N   UNL     1     -10.562  16.144  65.177  1.00  0.00    -0.609 NA 
HETATM   33  H   UNL     1     -10.991  16.932  64.692  1.00  0.00     0.000 HD 
ENDBRANCH  19  20
ENDBRANCH  18  19
ENDBRANCH  15  18
ENDBRANCH  14  15
ENDBRANCH  12  14
ENDBRANCH  11  12
ENDBRANCH  10  11
ENDBRANCH   9  10
ENDBRANCH   8   9
ENDBRANCH   2   3
TORSDOF 10
ENDMDL
MODEL      337
REMARK 921   NORMALIZED FREE ENERGY PREDICTED BY IDOCK:   -3.59 KCAL/MOL
REMARK 922        TOTAL FREE ENERGY PREDICTED BY IDOCK:   -7.53 KCAL/MOL
REMARK 923 INTER-LIGAND FREE ENERGY PREDICTED BY IDOCK:   -6.88 KCAL/MOL
REMARK 924 INTRA-LIGAND FREE ENERGY PREDICTED BY IDOCK:   -0.65 KCAL/MOL
REMARK 927      BINDING AFFINITY PREDICTED BY RF-SCORE:    0.00 PKD
ROOT
HETATM    1  C   UNL     1     -11.216   6.439  69.195  1.00  0.00    -0.354 C  
HETATM    2  O   UNL     1     -10.981   5.778  70.436  1.00  0.00    -0.298 OA 
ENDROOT
BRANCH   2   3
HETATM    3  C   UNL     1     -10.238   4.626  70.379  1.00  0.00    -0.138 A  
HETATM    4  C   UNL     1     -10.092   3.795  71.501  1.00  0.00    -0.126 A  
HETATM    5  C   UNL     1      -9.378   2.600  71.422  1.00  0.00    -0.203 A  
HETATM    6  C   UNL     1      -8.775   2.231  70.227  1.00  0.00    -0.119 A  
HETATM    7  C   UNL     1      -8.869   3.072  69.119  1.00  0.00    -0.155 A  
HETATM    8  C   UNL     1      -9.585   4.277  69.180  1.00  0.00    -0.179 A  
BRANCH   8   9
HETATM    9  O   UNL     1      -9.556   4.953  67.983  1.00  0.00    -0.133 OA 
BRANCH   9  10
HETATM   10  C   UNL     1      -8.555   4.574  67.047  1.00  0.00    -0.104 C  
BRANCH  10  11
HETATM   11  C   UNL     1      -7.774   5.812  66.573  1.00  0.00    -0.100 C  
BRANCH  11  12
HETATM   12  N   UNL     1      -8.114   7.046  67.305  1.00  0.00    -0.114 NA 
HETATM   13  H   UNL     1      -9.081   7.029  67.629  1.00  0.00     0.000 HD 
BRANCH  12  14
HETATM   14  C   UNL     1      -7.182   7.310  68.423  1.00  0.00    -0.091 C  
BRANCH  14  15
HETATM   15  C   UNL     1      -7.066   8.816  68.749  1.00  0.00    -0.063 C  
HETATM   16  O   UNL     1      -6.894   9.552  67.535  1.00  0.00    -0.080 OA 
HETATM   17  H   UNL     1      -6.823  10.479  67.735  1.00  0.00     0.000 HD 
BRANCH  15  18
HETATM   18  C   UNL     1      -8.313   9.293  69.504  1.00  0.00    -0.131 C  
BRANCH  18  19
HETATM   19  O   UNL     1      -8.014   9.541  70.874  1.00  0.00    -0.297 OA 
BRANCH  19  20
HETATM   20  C   UNL     1      -8.390   8.557  71.756  1.00  0.00    -0.163 A  
HETATM   21  C   UNL     1      -7.502   7.661  72.378  1.00  0.00    -0.089 A  
HETATM   22  C   UNL     1      -7.950   6.706  73.286  1.00  0.00    -0.103 A  
HETATM   23  C   UNL     1      -9.301   6.603  73.614  1.00  0.00    -0.173 A  
HETATM   24  C   UNL     1     -10.183   7.491  72.986  1.00  0.00    -0.306 A  
HETATM   25  C   UNL     1      -9.769   8.457  72.067  1.00  0.00    -0.353 A  
HETATM   26  C   UNL     1     -10.943   9.154  71.628  1.00  0.00    -0.445 A  
HETATM   27  C   UNL     1     -11.178  10.201  70.709  1.00  0.00    -0.414 A  
HETATM   28  C   UNL     1     -12.481  10.670  70.510  1.00  0.00    -0.445 A  
HETATM   29  C   UNL     1     -13.546  10.111  71.213  1.00  0.00    -0.192 A  
HETATM   30  C   UNL     1     -13.344   9.070  72.124  1.00  0.00    -0.510 A  
HETATM   31  C   UNL     1     -12.031   8.613  72.305  1.00  0.00    -0.368 A  
HETATM   32  N   UNL     1     -11.548   7.616  73.113  1.00  0.00    -0.636 NA 
HETATM   33  H   UNL     1     -12.124   7.041  73.729  1.00  0.00     0.000 HD 
ENDBRANCH  19  20
ENDBRANCH  18  19
ENDBRANCH  15  18
ENDBRANCH  14  15
ENDBRANCH  12  14
ENDBRANCH  11  12
ENDBRANCH  10  11
ENDBRANCH   9  10
ENDBRANCH   8   9
ENDBRANCH   2   3
TORSDOF 10
ENDMDL
MODEL      338
REMARK 921   NORMALIZED FREE ENERGY PREDICTED BY IDOCK:   -3.59 KCAL/MOL
REMARK 922        TOTAL FREE ENERGY PREDICTED BY IDOCK:   -7.53 KCAL/MOL
REMARK 923 INTER-LIGAND FREE ENERGY PREDICTED BY IDOCK:   -5.92 KCAL/MOL
REMARK 924 INTRA-LIGAND FREE ENERGY PREDICTED BY IDOCK:   -1.61 KCAL/MOL
REMARK 927      BINDING AFFINITY PREDICTED BY RF-SCORE:    0.00 PKD
ROOT
HETATM    1  C   UNL     1      -7.405   6.241  70.283  1.00  0.00    -0.089 C  
HETATM    2  O   UNL     1      -7.627   6.915  71.520  1.00  0.00    -0.085 OA 
ENDROOT
BRANCH   2   3
HETATM    3  C   UNL     1      -8.912   7.332  71.760  1.00  0.00    -0.127 A  
HETATM    4  C   UNL     1      -9.836   6.504  72.420  1.00  0.00    -0.169 A  
HETATM    5  C   UNL     1     -11.125   6.953  72.706  1.00  0.00    -0.304 A  
HETATM    6  C   UNL     1     -11.519   8.225  72.313  1.00  0.00    -0.452 A  
HETATM    7  C   UNL     1     -10.629   9.036  71.612  1.00  0.00    -0.434 A  
HETATM    8  C   UNL     1      -9.327   8.603  71.318  1.00  0.00    -0.224 A  
BRANCH   8   9
HETATM    9  O   UNL     1      -8.614   9.553  70.625  1.00  0.00    -0.211 OA 
BRANCH   9  10
HETATM   10  C   UNL     1      -9.351  10.448  69.803  1.00  0.00     0.019 C  
BRANCH  10  11
HETATM   11  C   UNL     1      -8.439  11.578  69.296  1.00  0.00     0.377 C  
BRANCH  11  12
HETATM   12  N   UNL     1      -7.013  11.382  69.619  1.00  0.00    -0.311 NA 
HETATM   13  H   UNL     1      -6.894  10.687  70.356  1.00  0.00     0.000 HD 
BRANCH  12  14
HETATM   14  C   UNL     1      -6.210  11.038  68.426  1.00  0.00    -0.049 C  
BRANCH  14  15
HETATM   15  C   UNL     1      -5.806   9.548  68.399  1.00  0.00    -0.040 C  
HETATM   16  O   UNL     1      -6.067   8.962  69.678  1.00  0.00    -0.038 OA 
HETATM   17  H   UNL     1      -5.819   8.044  69.661  1.00  0.00     0.000 HD 
BRANCH  15  18
HETATM   18  C   UNL     1      -6.572   8.809  67.294  1.00  0.00    -0.058 C  
BRANCH  18  19
HETATM   19  O   UNL     1      -7.503   9.676  66.655  1.00  0.00    -0.093 OA 
BRANCH  19  20
HETATM   20  C   UNL     1      -7.551   9.595  65.283  1.00  0.00    -0.113 A  
HETATM   21  C   UNL     1      -6.569   8.977  64.486  1.00  0.00    -0.074 A  
HETATM   22  C   UNL     1      -6.697   8.907  63.102  1.00  0.00    -0.090 A  
HETATM   23  C   UNL     1      -7.806   9.447  62.453  1.00  0.00    -0.122 A  
HETATM   24  C   UNL     1      -8.776  10.069  63.249  1.00  0.00    -0.221 A  
HETATM   25  C   UNL     1      -8.677  10.163  64.639  1.00  0.00    -0.205 A  
HETATM   26  C   UNL     1      -9.834  10.877  65.098  1.00  0.00    -0.329 A  
HETATM   27  C   UNL     1     -10.289  11.298  66.366  1.00  0.00    -0.291 A  
HETATM   28  C   UNL     1     -11.500  11.990  66.474  1.00  0.00    -0.413 A  
HETATM   29  C   UNL     1     -12.258  12.265  65.339  1.00  0.00    -0.279 A  
HETATM   30  C   UNL     1     -11.830  11.864  64.069  1.00  0.00    -0.458 A  
HETATM   31  C   UNL     1     -10.612  11.176  63.984  1.00  0.00    -0.368 A  
HETATM   32  N   UNL     1      -9.954  10.681  62.887  1.00  0.00    -0.670 NA 
HETATM   33  H   UNL     1     -10.293  10.756  61.928  1.00  0.00     0.000 HD 
ENDBRANCH  19  20
ENDBRANCH  18  19
ENDBRANCH  15  18
ENDBRANCH  14  15
ENDBRANCH  12  14
ENDBRANCH  11  12
ENDBRANCH  10  11
ENDBRANCH   9  10
ENDBRANCH   8   9
ENDBRANCH   2   3
TORSDOF 10
ENDMDL
MODEL      339
REMARK 921   NORMALIZED FREE ENERGY PREDICTED BY IDOCK:   -3.58 KCAL/MOL
REMARK 922        TOTAL FREE ENERGY PREDICTED BY IDOCK:   -7.53 KCAL/MOL
REMARK 923 INTER-LIGAND FREE ENERGY PREDICTED BY IDOCK:   -6.87 KCAL/MOL
REMARK 924 INTRA-LIGAND FREE ENERGY PREDICTED BY IDOCK:   -0.66 KCAL/MOL
REMARK 927      BINDING AFFINITY PREDICTED BY RF-SCORE:    0.00 PKD
ROOT
HETATM    1  C   UNL     1     -11.235  15.614  70.657  1.00  0.00    -0.359 C  
HETATM    2  O   UNL     1     -11.944  14.985  69.592  1.00  0.00    -0.298 OA 
ENDROOT
BRANCH   2   3
HETATM    3  C   UNL     1     -11.487  15.244  68.324  1.00  0.00    -0.347 A  
HETATM    4  C   UNL     1     -10.984  16.508  67.974  1.00  0.00    -0.320 A  
HETATM    5  C   UNL     1     -10.474  16.750  66.698  1.00  0.00    -0.258 A  
HETATM    6  C   UNL     1     -10.484  15.740  65.746  1.00  0.00    -0.384 A  
HETATM    7  C   UNL     1     -11.027  14.497  66.065  1.00  0.00    -0.324 A  
HETATM    8  C   UNL     1     -11.542  14.234  67.343  1.00  0.00    -0.369 A  
BRANCH   8   9
HETATM    9  O   UNL     1     -12.025  12.952  67.450  1.00  0.00    -0.363 OA 
BRANCH   9  10
HETATM   10  C   UNL     1     -11.306  11.928  66.774  1.00  0.00    -0.330 C  
BRANCH  10  11
HETATM   11  C   UNL     1     -10.714  10.936  67.789  1.00  0.00    -0.235 C  
BRANCH  11  12
HETATM   12  N   UNL     1     -10.802  11.392  69.189  1.00  0.00    -0.263 NA 
HETATM   13  H   UNL     1     -10.958  12.399  69.239  1.00  0.00     0.000 HD 
BRANCH  12  14
HETATM   14  C   UNL     1     -11.827  10.653  69.957  1.00  0.00    -0.322 C  
BRANCH  14  15
HETATM   15  C   UNL     1     -11.216   9.532  70.826  1.00  0.00    -0.317 C  
HETATM   16  O   UNL     1     -12.087   9.257  71.928  1.00  0.00    -0.359 OA 
HETATM   17  H   UNL     1     -11.711   8.567  72.462  1.00  0.00     0.000 HD 
BRANCH  15  18
HETATM   18  C   UNL     1     -10.990   8.270  69.983  1.00  0.00    -0.197 C  
BRANCH  18  19
HETATM   19  O   UNL     1      -9.698   7.723  70.223  1.00  0.00    -0.179 OA 
BRANCH  19  20
HETATM   20  C   UNL     1      -9.316   6.702  69.385  1.00  0.00    -0.147 A  
HETATM   21  C   UNL     1      -8.718   6.886  68.125  1.00  0.00    -0.126 A  
HETATM   22  C   UNL     1      -8.329   5.805  67.341  1.00  0.00    -0.104 A  
HETATM   23  C   UNL     1      -8.516   4.495  67.778  1.00  0.00    -0.103 A  
HETATM   24  C   UNL     1      -9.120   4.316  69.030  1.00  0.00    -0.131 A  
HETATM   25  C   UNL     1      -9.528   5.378  69.839  1.00  0.00    -0.210 A  
HETATM   26  C   UNL     1     -10.114   4.809  71.019  1.00  0.00    -0.269 A  
HETATM   27  C   UNL     1     -10.715   5.352  72.175  1.00  0.00    -0.286 A  
HETATM   28  C   UNL     1     -11.195   4.497  73.173  1.00  0.00    -0.339 A  
HETATM   29  C   UNL     1     -11.083   3.116  73.032  1.00  0.00    -0.081 A  
HETATM   30  C   UNL     1     -10.497   2.551  71.895  1.00  0.00     0.216 A  
HETATM   31  C   UNL     1     -10.027   3.425  70.906  1.00  0.00     0.092 A  
HETATM   32  N   UNL     1      -9.426   3.155  69.703  1.00  0.00    -0.151 NA 
HETATM   33  H   UNL     1      -9.233   2.217  69.352  1.00  0.00     0.000 HD 
ENDBRANCH  19  20
ENDBRANCH  18  19
ENDBRANCH  15  18
ENDBRANCH  14  15
ENDBRANCH  12  14
ENDBRANCH  11  12
ENDBRANCH  10  11
ENDBRANCH   9  10
ENDBRANCH   8   9
ENDBRANCH   2   3
TORSDOF 10
ENDMDL
MODEL      340
REMARK 921   NORMALIZED FREE ENERGY PREDICTED BY IDOCK:   -3.58 KCAL/MOL
REMARK 922        TOTAL FREE ENERGY PREDICTED BY IDOCK:   -7.53 KCAL/MOL
REMARK 923 INTER-LIGAND FREE ENERGY PREDICTED BY IDOCK:   -5.35 KCAL/MOL
REMARK 924 INTRA-LIGAND FREE ENERGY PREDICTED BY IDOCK:   -2.17 KCAL/MOL
REMARK 927      BINDING AFFINITY PREDICTED BY RF-SCORE:    0.00 PKD
ROOT
HETATM    1  C   UNL     1      -9.540  11.648  67.486  1.00  0.00    -0.171 C  
HETATM    2  O   UNL     1      -8.275  11.976  68.055  1.00  0.00    -0.138 OA 
ENDROOT
BRANCH   2   3
HETATM    3  C   UNL     1      -7.327  10.984  68.038  1.00  0.00    -0.088 A  
HETATM    4  C   UNL     1      -6.544  10.744  66.897  1.00  0.00    -0.091 A  
HETATM    5  C   UNL     1      -5.548   9.768  66.903  1.00  0.00    -0.046 A  
HETATM    6  C   UNL     1      -5.338   8.998  68.039  1.00  0.00    -0.035 A  
HETATM    7  C   UNL     1      -6.143   9.192  69.160  1.00  0.00    -0.042 A  
HETATM    8  C   UNL     1      -7.148  10.171  69.174  1.00  0.00    -0.073 A  
BRANCH   8   9
HETATM    9  O   UNL     1      -7.822  10.199  70.372  1.00  0.00    -0.202 OA 
BRANCH   9  10
HETATM   10  C   UNL     1      -8.998   9.406  70.475  1.00  0.00    -0.253 C  
BRANCH  10  11
HETATM   11  C   UNL     1      -9.026   8.672  71.827  1.00  0.00    -0.237 C  
BRANCH  11  12
HETATM   12  N   UNL     1     -10.386   8.401  72.329  1.00  0.00    -0.314 NA 
HETATM   13  H   UNL     1     -11.091   8.634  71.629  1.00  0.00     0.000 HD 
BRANCH  12  14
HETATM   14  C   UNL     1     -10.543   7.009  72.802  1.00  0.00    -0.254 C  
BRANCH  14  15
HETATM   15  C   UNL     1     -11.505   6.191  71.914  1.00  0.00    -0.300 C  
HETATM   16  O   UNL     1     -12.723   5.953  72.626  1.00  0.00    -0.514 OA 
HETATM   17  H   UNL     1     -13.315   5.450  72.079  1.00  0.00     0.000 HD 
BRANCH  15  18
HETATM   18  C   UNL     1     -11.778   6.935  70.601  1.00  0.00    -0.367 C  
BRANCH  18  19
HETATM   19  O   UNL     1     -11.533   6.093  69.479  1.00  0.00    -0.429 OA 
BRANCH  19  20
HETATM   20  C   UNL     1     -10.585   6.541  68.590  1.00  0.00    -0.245 A  
HETATM   21  C   UNL     1     -10.785   7.590  67.674  1.00  0.00    -0.266 A  
HETATM   22  C   UNL     1      -9.769   8.013  66.821  1.00  0.00    -0.305 A  
HETATM   23  C   UNL     1      -8.513   7.410  66.846  1.00  0.00    -0.123 A  
HETATM   24  C   UNL     1      -8.321   6.361  67.753  1.00  0.00    -0.118 A  
HETATM   25  C   UNL     1      -9.319   5.908  68.618  1.00  0.00    -0.126 A  
HETATM   26  C   UNL     1      -8.764   4.820  69.371  1.00  0.00    -0.107 A  
HETATM   27  C   UNL     1      -9.271   3.956  70.366  1.00  0.00    -0.209 A  
HETATM   28  C   UNL     1      -8.442   2.973  70.919  1.00  0.00    -0.100 A  
HETATM   29  C   UNL     1      -7.122   2.843  70.493  1.00  0.00    -0.033 A  
HETATM   30  C   UNL     1      -6.596   3.682  69.506  1.00  0.00    -0.034 A  
HETATM   31  C   UNL     1      -7.444   4.656  68.963  1.00  0.00    -0.056 A  
HETATM   32  N   UNL     1      -7.204   5.593  67.991  1.00  0.00    -0.071 NA 
HETATM   33  H   UNL     1      -6.313   5.706  67.506  1.00  0.00     0.000 HD 
ENDBRANCH  19  20
ENDBRANCH  18  19
ENDBRANCH  15  18
ENDBRANCH  14  15
ENDBRANCH  12  14
ENDBRANCH  11  12
ENDBRANCH  10  11
ENDBRANCH   9  10
ENDBRANCH   8   9
ENDBRANCH   2   3
TORSDOF 10
ENDMDL
MODEL      341
REMARK 921   NORMALIZED FREE ENERGY PREDICTED BY IDOCK:   -3.58 KCAL/MOL
REMARK 922        TOTAL FREE ENERGY PREDICTED BY IDOCK:   -7.52 KCAL/MOL
REMARK 923 INTER-LIGAND FREE ENERGY PREDICTED BY IDOCK:   -6.91 KCAL/MOL
REMARK 924 INTRA-LIGAND FREE ENERGY PREDICTED BY IDOCK:   -0.61 KCAL/MOL
REMARK 927      BINDING AFFINITY PREDICTED BY RF-SCORE:    0.00 PKD
ROOT
HETATM    1  C   UNL     1     -11.016  16.534  68.677  1.00  0.00    -0.344 C  
HETATM    2  O   UNL     1     -10.876  17.000  67.336  1.00  0.00    -0.281 OA 
ENDROOT
BRANCH   2   3
HETATM    3  C   UNL     1     -10.047  18.077  67.153  1.00  0.00    -0.346 A  
HETATM    4  C   UNL     1     -10.503  19.391  67.352  1.00  0.00    -0.581 A  
HETATM    5  C   UNL     1      -9.641  20.479  67.214  1.00  0.00    -0.580 A  
HETATM    6  C   UNL     1      -8.318  20.272  66.848  1.00  0.00    -0.348 A  
HETATM    7  C   UNL     1      -7.866  18.978  66.597  1.00  0.00    -0.274 A  
HETATM    8  C   UNL     1      -8.718  17.871  66.734  1.00  0.00    -0.254 A  
BRANCH   8   9
HETATM    9  O   UNL     1      -8.077  16.690  66.444  1.00  0.00    -0.271 OA 
BRANCH   9  10
HETATM   10  C   UNL     1      -7.042  16.278  67.327  1.00  0.00    -0.190 C  
BRANCH  10  11
HETATM   11  C   UNL     1      -7.621  15.974  68.719  1.00  0.00    -0.184 C  
BRANCH  11  12
HETATM   12  N   UNL     1      -7.757  14.535  69.007  1.00  0.00    -0.177 NA 
HETATM   13  H   UNL     1      -8.334  14.377  69.833  1.00  0.00     0.000 HD 
BRANCH  12  14
HETATM   14  C   UNL     1      -8.270  13.776  67.845  1.00  0.00    -0.166 C  
BRANCH  14  15
HETATM   15  C   UNL     1      -9.145  12.576  68.266  1.00  0.00    -0.183 C  
HETATM   16  O   UNL     1     -10.294  12.504  67.417  1.00  0.00    -0.214 OA 
HETATM   17  H   UNL     1     -10.833  11.765  67.676  1.00  0.00     0.000 HD 
BRANCH  15  18
HETATM   18  C   UNL     1      -8.333  11.276  68.196  1.00  0.00    -0.143 C  
BRANCH  18  19
HETATM   19  O   UNL     1      -9.119  10.214  67.666  1.00  0.00    -0.137 OA 
BRANCH  19  20
HETATM   20  C   UNL     1      -8.757   9.766  66.418  1.00  0.00    -0.131 A  
HETATM   21  C   UNL     1      -8.223  10.581  65.403  1.00  0.00    -0.152 A  
HETATM   22  C   UNL     1      -7.850  10.055  64.170  1.00  0.00    -0.144 A  
HETATM   23  C   UNL     1      -7.992   8.696  63.896  1.00  0.00    -0.159 A  
HETATM   24  C   UNL     1      -8.532   7.889  64.906  1.00  0.00    -0.028 A  
HETATM   25  C   UNL     1      -8.922   8.385  66.151  1.00  0.00    -0.218 A  
HETATM   26  C   UNL     1      -9.441   7.279  66.903  1.00  0.00    -0.208 A  
HETATM   27  C   UNL     1      -9.997   7.144  68.194  1.00  0.00    -0.172 A  
HETATM   28  C   UNL     1     -10.413   5.885  68.641  1.00  0.00    -0.302 A  
HETATM   29  C   UNL     1     -10.280   4.766  67.822  1.00  0.00    -0.077 A  
HETATM   30  C   UNL     1      -9.737   4.872  66.538  1.00  0.00    -0.199 A  
HETATM   31  C   UNL     1      -9.332   6.142  66.108  1.00  0.00    -0.102 A  
HETATM   32  N   UNL     1      -8.784   6.536  64.914  1.00  0.00    -0.348 NA 
HETATM   33  H   UNL     1      -8.589   5.909  64.133  1.00  0.00     0.000 HD 
ENDBRANCH  19  20
ENDBRANCH  18  19
ENDBRANCH  15  18
ENDBRANCH  14  15
ENDBRANCH  12  14
ENDBRANCH  11  12
ENDBRANCH  10  11
ENDBRANCH   9  10
ENDBRANCH   8   9
ENDBRANCH   2   3
TORSDOF 10
ENDMDL
MODEL      342
REMARK 921   NORMALIZED FREE ENERGY PREDICTED BY IDOCK:   -3.58 KCAL/MOL
REMARK 922        TOTAL FREE ENERGY PREDICTED BY IDOCK:   -7.52 KCAL/MOL
REMARK 923 INTER-LIGAND FREE ENERGY PREDICTED BY IDOCK:   -6.61 KCAL/MOL
REMARK 924 INTRA-LIGAND FREE ENERGY PREDICTED BY IDOCK:   -0.91 KCAL/MOL
REMARK 927      BINDING AFFINITY PREDICTED BY RF-SCORE:    0.00 PKD
ROOT
HETATM    1  C   UNL     1     -10.972  15.465  70.465  1.00  0.00    -0.323 C  
HETATM    2  O   UNL     1     -11.771  15.102  69.341  1.00  0.00    -0.295 OA 
ENDROOT
BRANCH   2   3
HETATM    3  C   UNL     1     -11.294  15.479  68.111  1.00  0.00    -0.345 A  
HETATM    4  C   UNL     1     -10.570  16.672  67.944  1.00  0.00    -0.342 A  
HETATM    5  C   UNL     1     -10.045  17.024  66.701  1.00  0.00    -0.308 A  
HETATM    6  C   UNL     1     -10.259  16.205  65.601  1.00  0.00    -0.390 A  
HETATM    7  C   UNL     1     -11.019  15.045  65.743  1.00  0.00    -0.351 A  
HETATM    8  C   UNL     1     -11.553  14.673  66.985  1.00  0.00    -0.371 A  
BRANCH   8   9
HETATM    9  O   UNL     1     -12.265  13.499  66.908  1.00  0.00    -0.386 OA 
BRANCH   9  10
HETATM   10  C   UNL     1     -11.642  12.403  66.251  1.00  0.00    -0.393 C  
BRANCH  10  11
HETATM   11  C   UNL     1     -10.904  11.521  67.273  1.00  0.00    -0.256 C  
BRANCH  11  12
HETATM   12  N   UNL     1     -11.179  11.878  68.676  1.00  0.00    -0.235 NA 
HETATM   13  H   UNL     1     -11.846  12.648  68.737  1.00  0.00     0.000 HD 
BRANCH  12  14
HETATM   14  C   UNL     1     -11.629  10.717  69.474  1.00  0.00    -0.288 C  
BRANCH  14  15
HETATM   15  C   UNL     1     -10.448   9.885  70.020  1.00  0.00    -0.284 C  
HETATM   16  O   UNL     1     -10.872   9.163  71.180  1.00  0.00    -0.257 OA 
HETATM   17  H   UNL     1     -10.146   8.650  71.515  1.00  0.00     0.000 HD 
BRANCH  15  18
HETATM   18  C   UNL     1      -9.930   8.926  68.940  1.00  0.00    -0.190 C  
BRANCH  18  19
HETATM   19  O   UNL     1      -8.507   8.876  68.945  1.00  0.00    -0.127 OA 
BRANCH  19  20
HETATM   20  C   UNL     1      -7.866  10.050  68.626  1.00  0.00    -0.091 A  
HETATM   21  C   UNL     1      -7.596  11.085  69.541  1.00  0.00    -0.001 A  
HETATM   22  C   UNL     1      -6.916  12.235  69.154  1.00  0.00    -0.041 A  
HETATM   23  C   UNL     1      -6.474  12.404  67.843  1.00  0.00    -0.095 A  
HETATM   24  C   UNL     1      -6.753  11.376  66.934  1.00  0.00    -0.145 A  
HETATM   25  C   UNL     1      -7.438  10.212  67.286  1.00  0.00    -0.091 A  
HETATM   26  C   UNL     1      -7.551   9.412  66.099  1.00  0.00    -0.096 A  
HETATM   27  C   UNL     1      -8.141   8.163  65.810  1.00  0.00    -0.115 A  
HETATM   28  C   UNL     1      -8.067   7.645  64.512  1.00  0.00    -0.098 A  
HETATM   29  C   UNL     1      -7.414   8.354  63.507  1.00  0.00    -0.117 A  
HETATM   30  C   UNL     1      -6.824   9.596  63.764  1.00  0.00    -0.112 A  
HETATM   31  C   UNL     1      -6.915  10.098  65.069  1.00  0.00    -0.135 A  
HETATM   32  N   UNL     1      -6.445  11.274  65.597  1.00  0.00    -0.335 NA 
HETATM   33  H   UNL     1      -5.935  11.980  65.067  1.00  0.00     0.000 HD 
ENDBRANCH  19  20
ENDBRANCH  18  19
ENDBRANCH  15  18
ENDBRANCH  14  15
ENDBRANCH  12  14
ENDBRANCH  11  12
ENDBRANCH  10  11
ENDBRANCH   9  10
ENDBRANCH   8   9
ENDBRANCH   2   3
TORSDOF 10
ENDMDL
MODEL      343
REMARK 921   NORMALIZED FREE ENERGY PREDICTED BY IDOCK:   -3.57 KCAL/MOL
REMARK 922        TOTAL FREE ENERGY PREDICTED BY IDOCK:   -7.50 KCAL/MOL
REMARK 923 INTER-LIGAND FREE ENERGY PREDICTED BY IDOCK:   -5.59 KCAL/MOL
REMARK 924 INTRA-LIGAND FREE ENERGY PREDICTED BY IDOCK:   -1.91 KCAL/MOL
REMARK 927      BINDING AFFINITY PREDICTED BY RF-SCORE:    0.00 PKD
ROOT
HETATM    1  C   UNL     1      -7.846  13.518  67.761  1.00  0.00    -0.167 C  
HETATM    2  O   UNL     1      -8.930  12.718  67.294  1.00  0.00    -0.183 OA 
ENDROOT
BRANCH   2   3
HETATM    3  C   UNL     1      -9.924  12.455  68.203  1.00  0.00    -0.215 A  
HETATM    4  C   UNL     1     -10.886  13.424  68.532  1.00  0.00    -0.285 A  
HETATM    5  C   UNL     1     -11.924  13.134  69.417  1.00  0.00    -0.347 A  
HETATM    6  C   UNL     1     -11.999  11.880  70.009  1.00  0.00    -0.409 A  
HETATM    7  C   UNL     1     -11.021  10.927  69.731  1.00  0.00    -0.290 A  
HETATM    8  C   UNL     1      -9.972  11.200  68.840  1.00  0.00    -0.175 A  
BRANCH   8   9
HETATM    9  O   UNL     1      -9.121  10.129  68.705  1.00  0.00    -0.132 OA 
BRANCH   9  10
HETATM   10  C   UNL     1      -7.928  10.145  69.478  1.00  0.00    -0.165 C  
BRANCH  10  11
HETATM   11  C   UNL     1      -6.699  10.004  68.563  1.00  0.00    -0.054 C  
BRANCH  11  12
HETATM   12  N   UNL     1      -6.919   9.123  67.402  1.00  0.00    -0.078 NA 
HETATM   13  H   UNL     1      -7.792   8.602  67.494  1.00  0.00     0.000 HD 
BRANCH  12  14
HETATM   14  C   UNL     1      -6.869   9.859  66.120  1.00  0.00    -0.097 C  
BRANCH  14  15
HETATM   15  C   UNL     1      -8.242   9.905  65.415  1.00  0.00    -0.139 C  
HETATM   16  O   UNL     1      -8.196  10.855  64.346  1.00  0.00    -0.369 OA 
HETATM   17  H   UNL     1      -9.040  10.883  63.912  1.00  0.00     0.000 HD 
BRANCH  15  18
HETATM   18  C   UNL     1      -8.617   8.513  64.891  1.00  0.00    -0.108 C  
BRANCH  18  19
HETATM   19  O   UNL     1      -9.201   7.722  65.921  1.00  0.00    -0.129 OA 
BRANCH  19  20
HETATM   20  C   UNL     1      -8.733   6.434  66.024  1.00  0.00    -0.151 A  
HETATM   21  C   UNL     1      -7.983   5.776  65.032  1.00  0.00    -0.121 A  
HETATM   22  C   UNL     1      -7.515   4.479  65.217  1.00  0.00    -0.077 A  
HETATM   23  C   UNL     1      -7.773   3.782  66.396  1.00  0.00    -0.089 A  
HETATM   24  C   UNL     1      -8.528   4.437  67.377  1.00  0.00    -0.103 A  
HETATM   25  C   UNL     1      -9.017   5.735  67.223  1.00  0.00    -0.112 A  
HETATM   26  C   UNL     1      -9.752   6.054  68.413  1.00  0.00    -0.142 A  
HETATM   27  C   UNL     1     -10.483   7.183  68.843  1.00  0.00    -0.218 A  
HETATM   28  C   UNL     1     -11.094   7.175  70.102  1.00  0.00    -0.301 A  
HETATM   29  C   UNL     1     -10.984   6.062  70.932  1.00  0.00    -0.355 A  
HETATM   30  C   UNL     1     -10.270   4.929  70.530  1.00  0.00    -0.288 A  
HETATM   31  C   UNL     1      -9.670   4.956  69.264  1.00  0.00    -0.188 A  
HETATM   32  N   UNL     1      -8.931   3.999  68.618  1.00  0.00    -0.108 NA 
HETATM   33  H   UNL     1      -8.709   3.081  69.006  1.00  0.00     0.000 HD 
ENDBRANCH  19  20
ENDBRANCH  18  19
ENDBRANCH  15  18
ENDBRANCH  14  15
ENDBRANCH  12  14
ENDBRANCH  11  12
ENDBRANCH  10  11
ENDBRANCH   9  10
ENDBRANCH   8   9
ENDBRANCH   2   3
TORSDOF 10
ENDMDL
MODEL      344
REMARK 921   NORMALIZED FREE ENERGY PREDICTED BY IDOCK:   -3.56 KCAL/MOL
REMARK 922        TOTAL FREE ENERGY PREDICTED BY IDOCK:   -7.49 KCAL/MOL
REMARK 923 INTER-LIGAND FREE ENERGY PREDICTED BY IDOCK:   -6.93 KCAL/MOL
REMARK 924 INTRA-LIGAND FREE ENERGY PREDICTED BY IDOCK:   -0.55 KCAL/MOL
REMARK 927      BINDING AFFINITY PREDICTED BY RF-SCORE:    0.00 PKD
ROOT
HETATM    1  C   UNL     1      -7.897   4.941  68.891  1.00  0.00    -0.077 C  
HETATM    2  O   UNL     1      -8.584   3.841  68.298  1.00  0.00    -0.090 OA 
ENDROOT
BRANCH   2   3
HETATM    3  C   UNL     1      -8.383   3.655  66.954  1.00  0.00    -0.103 A  
HETATM    4  C   UNL     1      -7.180   3.122  66.463  1.00  0.00    -0.062 A  
HETATM    5  C   UNL     1      -7.001   2.888  65.100  1.00  0.00    -0.053 A  
HETATM    6  C   UNL     1      -8.012   3.209  64.204  1.00  0.00    -0.082 A  
HETATM    7  C   UNL     1      -9.191   3.786  64.672  1.00  0.00    -0.145 A  
HETATM    8  C   UNL     1      -9.390   4.026  66.040  1.00  0.00    -0.168 A  
BRANCH   8   9
HETATM    9  O   UNL     1     -10.615   4.596  66.289  1.00  0.00    -0.278 OA 
BRANCH   9  10
HETATM   10  C   UNL     1     -10.622   5.901  66.856  1.00  0.00    -0.315 C  
BRANCH  10  11
HETATM   11  C   UNL     1      -9.611   6.802  66.127  1.00  0.00     0.047 C  
BRANCH  11  12
HETATM   12  N   UNL     1      -9.277   8.036  66.861  1.00  0.00    -0.145 NA 
HETATM   13  H   UNL     1      -8.268   8.186  66.890  1.00  0.00     0.000 HD 
BRANCH  12  14
HETATM   14  C   UNL     1      -9.977   9.220  66.318  1.00  0.00    -0.286 C  
BRANCH  14  15
HETATM   15  C   UNL     1      -9.120   9.991  65.290  1.00  0.00    -0.200 C  
HETATM   16  O   UNL     1      -9.400   9.501  63.975  1.00  0.00    -0.421 OA 
HETATM   17  H   UNL     1      -8.873   9.976  63.343  1.00  0.00     0.000 HD 
BRANCH  15  18
HETATM   18  C   UNL     1      -9.403  11.495  65.384  1.00  0.00    -0.159 C  
BRANCH  18  19
HETATM   19  O   UNL     1      -9.284  11.952  66.727  1.00  0.00    -0.183 OA 
BRANCH  19  20
HETATM   20  C   UNL     1      -9.918  13.138  67.013  1.00  0.00    -0.244 A  
HETATM   21  C   UNL     1      -9.748  14.330  66.284  1.00  0.00    -0.321 A  
HETATM   22  C   UNL     1     -10.445  15.488  66.612  1.00  0.00    -0.299 A  
HETATM   23  C   UNL     1     -11.341  15.510  67.679  1.00  0.00    -0.260 A  
HETATM   24  C   UNL     1     -11.501  14.325  68.408  1.00  0.00    -0.301 A  
HETATM   25  C   UNL     1     -10.813  13.147  68.110  1.00  0.00    -0.271 A  
HETATM   26  C   UNL     1     -11.217  12.165  69.076  1.00  0.00    -0.314 A  
HETATM   27  C   UNL     1     -10.867  10.818  69.311  1.00  0.00    -0.287 A  
HETATM   28  C   UNL     1     -11.467  10.120  70.366  1.00  0.00    -0.400 A  
HETATM   29  C   UNL     1     -12.405  10.746  71.183  1.00  0.00    -0.498 A  
HETATM   30  C   UNL     1     -12.766  12.081  70.976  1.00  0.00    -0.337 A  
HETATM   31  C   UNL     1     -12.151  12.763  69.917  1.00  0.00    -0.259 A  
HETATM   32  N   UNL     1     -12.303  14.059  69.495  1.00  0.00    -0.426 NA 
HETATM   33  H   UNL     1     -12.928  14.738  69.930  1.00  0.00     0.000 HD 
ENDBRANCH  19  20
ENDBRANCH  18  19
ENDBRANCH  15  18
ENDBRANCH  14  15
ENDBRANCH  12  14
ENDBRANCH  11  12
ENDBRANCH  10  11
ENDBRANCH   9  10
ENDBRANCH   8   9
ENDBRANCH   2   3
TORSDOF 10
ENDMDL
MODEL      345
REMARK 921   NORMALIZED FREE ENERGY PREDICTED BY IDOCK:   -3.56 KCAL/MOL
REMARK 922        TOTAL FREE ENERGY PREDICTED BY IDOCK:   -7.48 KCAL/MOL
REMARK 923 INTER-LIGAND FREE ENERGY PREDICTED BY IDOCK:   -6.98 KCAL/MOL
REMARK 924 INTRA-LIGAND FREE ENERGY PREDICTED BY IDOCK:   -0.50 KCAL/MOL
REMARK 927      BINDING AFFINITY PREDICTED BY RF-SCORE:    0.00 PKD
ROOT
HETATM    1  C   UNL     1      -7.494  12.813  67.565  1.00  0.00    -0.154 C  
HETATM    2  O   UNL     1      -8.624  12.982  66.713  1.00  0.00    -0.162 OA 
ENDROOT
BRANCH   2   3
HETATM    3  C   UNL     1      -9.583  13.863  67.145  1.00  0.00    -0.247 A  
HETATM    4  C   UNL     1      -9.283  15.217  67.368  1.00  0.00    -0.201 A  
HETATM    5  C   UNL     1     -10.274  16.117  67.759  1.00  0.00    -0.267 A  
HETATM    6  C   UNL     1     -11.574  15.673  67.959  1.00  0.00    -0.245 A  
HETATM    7  C   UNL     1     -11.874  14.322  67.791  1.00  0.00    -0.414 A  
HETATM    8  C   UNL     1     -10.891  13.402  67.395  1.00  0.00    -0.268 A  
BRANCH   8   9
HETATM    9  O   UNL     1     -11.394  12.128  67.285  1.00  0.00    -0.291 OA 
BRANCH   9  10
HETATM   10  C   UNL     1     -11.153  11.238  68.368  1.00  0.00    -0.240 C  
BRANCH  10  11
HETATM   11  C   UNL     1     -12.198  11.453  69.475  1.00  0.00    -0.235 C  
BRANCH  11  12
HETATM   12  N   UNL     1     -12.809  10.204  69.968  1.00  0.00    -0.522 NA 
HETATM   13  H   UNL     1     -12.435   9.392  69.477  1.00  0.00     0.000 HD 
BRANCH  12  14
HETATM   14  C   UNL     1     -12.672  10.052  71.433  1.00  0.00    -0.415 C  
BRANCH  14  15
HETATM   15  C   UNL     1     -12.428   8.586  71.851  1.00  0.00    -0.352 C  
HETATM   16  O   UNL     1     -12.532   7.740  70.702  1.00  0.00    -0.512 OA 
HETATM   17  H   UNL     1     -12.381   6.838  70.959  1.00  0.00     0.000 HD 
BRANCH  15  18
HETATM   18  C   UNL     1     -11.050   8.444  72.509  1.00  0.00    -0.326 C  
BRANCH  18  19
HETATM   19  O   UNL     1     -10.676   7.074  72.616  1.00  0.00    -0.229 OA 
BRANCH  19  20
HETATM   20  C   UNL     1      -9.696   6.652  71.749  1.00  0.00    -0.161 A  
HETATM   21  C   UNL     1      -9.027   7.487  70.835  1.00  0.00    -0.149 A  
HETATM   22  C   UNL     1      -8.022   6.997  70.006  1.00  0.00    -0.115 A  
HETATM   23  C   UNL     1      -7.641   5.657  70.052  1.00  0.00    -0.082 A  
HETATM   24  C   UNL     1      -8.316   4.828  70.957  1.00  0.00    -0.100 A  
HETATM   25  C   UNL     1      -9.332   5.284  71.799  1.00  0.00    -0.175 A  
HETATM   26  C   UNL     1      -9.792   4.156  72.557  1.00  0.00    -0.213 A  
HETATM   27  C   UNL     1     -10.792   3.974  73.536  1.00  0.00    -0.336 A  
HETATM   28  C   UNL     1     -10.988   2.708  74.099  1.00  0.00    -0.184 A  
HETATM   29  C   UNL     1     -10.203   1.629  73.700  1.00  0.00    -0.146 A  
HETATM   30  C   UNL     1      -9.209   1.780  72.728  1.00  0.00    -0.097 A  
HETATM   31  C   UNL     1      -9.032   3.055  72.174  1.00  0.00    -0.087 A  
HETATM   32  N   UNL     1      -8.154   3.485  71.212  1.00  0.00    -0.059 NA 
HETATM   33  H   UNL     1      -7.471   2.888  70.747  1.00  0.00     0.000 HD 
ENDBRANCH  19  20
ENDBRANCH  18  19
ENDBRANCH  15  18
ENDBRANCH  14  15
ENDBRANCH  12  14
ENDBRANCH  11  12
ENDBRANCH  10  11
ENDBRANCH   9  10
ENDBRANCH   8   9
ENDBRANCH   2   3
TORSDOF 10
ENDMDL
MODEL      346
REMARK 921   NORMALIZED FREE ENERGY PREDICTED BY IDOCK:   -3.55 KCAL/MOL
REMARK 922        TOTAL FREE ENERGY PREDICTED BY IDOCK:   -7.48 KCAL/MOL
REMARK 923 INTER-LIGAND FREE ENERGY PREDICTED BY IDOCK:   -6.96 KCAL/MOL
REMARK 924 INTRA-LIGAND FREE ENERGY PREDICTED BY IDOCK:   -0.52 KCAL/MOL
REMARK 927      BINDING AFFINITY PREDICTED BY RF-SCORE:    0.00 PKD
ROOT
HETATM    1  C   UNL     1      -8.124  12.148  68.182  1.00  0.00    -0.161 C  
HETATM    2  O   UNL     1      -8.545  12.836  67.006  1.00  0.00    -0.199 OA 
ENDROOT
BRANCH   2   3
HETATM    3  C   UNL     1      -9.285  13.975  67.203  1.00  0.00    -0.235 A  
HETATM    4  C   UNL     1      -8.752  15.082  67.885  1.00  0.00    -0.155 A  
HETATM    5  C   UNL     1      -9.491  16.255  68.037  1.00  0.00    -0.223 A  
HETATM    6  C   UNL     1     -10.784  16.330  67.534  1.00  0.00    -0.300 A  
HETATM    7  C   UNL     1     -11.342  15.221  66.901  1.00  0.00    -0.209 A  
HETATM    8  C   UNL     1     -10.613  14.034  66.736  1.00  0.00    -0.277 A  
BRANCH   8   9
HETATM    9  O   UNL     1     -11.344  13.067  66.086  1.00  0.00    -0.295 OA 
BRANCH   9  10
HETATM   10  C   UNL     1     -11.494  11.815  66.742  1.00  0.00    -0.281 C  
BRANCH  10  11
HETATM   11  C   UNL     1     -11.905  12.029  68.209  1.00  0.00    -0.287 C  
BRANCH  11  12
HETATM   12  N   UNL     1     -12.130  10.776  68.953  1.00  0.00    -0.749 NA 
HETATM   13  H   UNL     1     -12.243   9.985  68.319  1.00  0.00     0.000 HD 
BRANCH  12  14
HETATM   14  C   UNL     1     -11.066  10.515  69.947  1.00  0.00    -0.307 C  
BRANCH  14  15
HETATM   15  C   UNL     1     -10.334   9.179  69.688  1.00  0.00    -0.219 C  
HETATM   16  O   UNL     1      -9.024   9.237  70.259  1.00  0.00    -0.189 OA 
HETATM   17  H   UNL     1      -8.574   8.415  70.100  1.00  0.00     0.000 HD 
BRANCH  15  18
HETATM   18  C   UNL     1     -11.135   8.012  70.279  1.00  0.00    -0.224 C  
BRANCH  18  19
HETATM   19  O   UNL     1     -10.571   6.762  69.894  1.00  0.00    -0.202 OA 
BRANCH  19  20
HETATM   20  C   UNL     1     -10.394   5.849  70.906  1.00  0.00    -0.229 A  
HETATM   21  C   UNL     1     -10.574   6.129  72.273  1.00  0.00    -0.251 A  
HETATM   22  C   UNL     1     -10.406   5.146  73.244  1.00  0.00    -0.241 A  
HETATM   23  C   UNL     1     -10.054   3.843  72.895  1.00  0.00    -0.218 A  
HETATM   24  C   UNL     1      -9.868   3.571  71.533  1.00  0.00    -0.149 A  
HETATM   25  C   UNL     1     -10.022   4.534  70.535  1.00  0.00    -0.278 A  
HETATM   26  C   UNL     1      -9.731   3.895  69.283  1.00  0.00    -0.157 A  
HETATM   27  C   UNL     1      -9.695   4.335  67.942  1.00  0.00    -0.172 A  
HETATM   28  C   UNL     1      -9.371   3.431  66.924  1.00  0.00    -0.201 A  
HETATM   29  C   UNL     1      -9.086   2.101  67.227  1.00  0.00    -0.159 A  
HETATM   30  C   UNL     1      -9.111   1.640  68.547  1.00  0.00    -0.187 A  
HETATM   31  C   UNL     1      -9.433   2.563  69.550  1.00  0.00    -0.057 A  
HETATM   32  N   UNL     1      -9.521   2.395  70.909  1.00  0.00    -0.144 NA 
HETATM   33  H   UNL     1      -9.351   1.513  71.393  1.00  0.00     0.000 HD 
ENDBRANCH  19  20
ENDBRANCH  18  19
ENDBRANCH  15  18
ENDBRANCH  14  15
ENDBRANCH  12  14
ENDBRANCH  11  12
ENDBRANCH  10  11
ENDBRANCH   9  10
ENDBRANCH   8   9
ENDBRANCH   2   3
TORSDOF 10
ENDMDL
MODEL      347
REMARK 921   NORMALIZED FREE ENERGY PREDICTED BY IDOCK:   -3.55 KCAL/MOL
REMARK 922        TOTAL FREE ENERGY PREDICTED BY IDOCK:   -7.48 KCAL/MOL
REMARK 923 INTER-LIGAND FREE ENERGY PREDICTED BY IDOCK:   -6.60 KCAL/MOL
REMARK 924 INTRA-LIGAND FREE ENERGY PREDICTED BY IDOCK:   -0.88 KCAL/MOL
REMARK 927      BINDING AFFINITY PREDICTED BY RF-SCORE:    0.00 PKD
ROOT
HETATM    1  C   UNL     1     -11.682  15.200  69.128  1.00  0.00    -0.325 C  
HETATM    2  O   UNL     1     -11.879  13.851  68.708  1.00  0.00    -0.323 OA 
ENDROOT
BRANCH   2   3
HETATM    3  C   UNL     1     -12.258  12.963  69.683  1.00  0.00    -0.141 A  
HETATM    4  C   UNL     1     -12.678  13.404  70.949  1.00  0.00    -0.349 A  
HETATM    5  C   UNL     1     -13.110  12.499  71.918  1.00  0.00    -0.473 A  
HETATM    6  C   UNL     1     -13.101  11.137  71.647  1.00  0.00    -0.529 A  
HETATM    7  C   UNL     1     -12.637  10.683  70.413  1.00  0.00    -0.395 A  
HETATM    8  C   UNL     1     -12.202  11.579  69.425  1.00  0.00    -0.207 A  
BRANCH   8   9
HETATM    9  O   UNL     1     -11.789  10.928  68.287  1.00  0.00    -0.530 OA 
BRANCH   9  10
HETATM   10  C   UNL     1     -10.681  10.046  68.409  1.00  0.00    -0.234 C  
BRANCH  10  11
HETATM   11  C   UNL     1      -9.981   9.880  67.049  1.00  0.00    -0.200 C  
BRANCH  11  12
HETATM   12  N   UNL     1      -8.516  10.035  67.110  1.00  0.00    -0.125 NA 
HETATM   13  H   UNL     1      -8.090   9.292  67.663  1.00  0.00     0.000 HD 
BRANCH  12  14
HETATM   14  C   UNL     1      -7.904  10.118  65.766  1.00  0.00    -0.139 C  
BRANCH  14  15
HETATM   15  C   UNL     1      -8.750   9.403  64.689  1.00  0.00    -0.200 C  
HETATM   16  O   UNL     1      -9.076  10.329  63.648  1.00  0.00    -0.211 OA 
HETATM   17  H   UNL     1      -9.596   9.889  62.986  1.00  0.00     0.000 HD 
BRANCH  15  18
HETATM   18  C   UNL     1      -7.986   8.198  64.127  1.00  0.00    -0.142 C  
BRANCH  18  19
HETATM   19  O   UNL     1      -8.014   7.106  65.040  1.00  0.00    -0.119 OA 
BRANCH  19  20
HETATM   20  C   UNL     1      -8.328   5.882  64.499  1.00  0.00    -0.069 A  
HETATM   21  C   UNL     1      -8.280   5.581  63.125  1.00  0.00    -0.097 A  
HETATM   22  C   UNL     1      -8.584   4.309  62.650  1.00  0.00    -0.094 A  
HETATM   23  C   UNL     1      -8.946   3.283  63.520  1.00  0.00    -0.092 A  
HETATM   24  C   UNL     1      -9.002   3.589  64.886  1.00  0.00    -0.131 A  
HETATM   25  C   UNL     1      -8.710   4.855  65.397  1.00  0.00    -0.143 A  
HETATM   26  C   UNL     1      -8.894   4.790  66.818  1.00  0.00    -0.110 A  
HETATM   27  C   UNL     1      -8.776   5.728  67.867  1.00  0.00    -0.103 A  
HETATM   28  C   UNL     1      -9.027   5.330  69.185  1.00  0.00    -0.124 A  
HETATM   29  C   UNL     1      -9.391   4.015  69.467  1.00  0.00    -0.243 A  
HETATM   30  C   UNL     1      -9.519   3.067  68.447  1.00  0.00    -0.211 A  
HETATM   31  C   UNL     1      -9.268   3.488  67.135  1.00  0.00    -0.192 A  
HETATM   32  N   UNL     1      -9.326   2.788  65.957  1.00  0.00    -0.346 NA 
HETATM   33  H   UNL     1      -9.578   1.801  65.884  1.00  0.00     0.000 HD 
ENDBRANCH  19  20
ENDBRANCH  18  19
ENDBRANCH  15  18
ENDBRANCH  14  15
ENDBRANCH  12  14
ENDBRANCH  11  12
ENDBRANCH  10  11
ENDBRANCH   9  10
ENDBRANCH   8   9
ENDBRANCH   2   3
TORSDOF 10
ENDMDL
MODEL      348
REMARK 921   NORMALIZED FREE ENERGY PREDICTED BY IDOCK:   -3.55 KCAL/MOL
REMARK 922        TOTAL FREE ENERGY PREDICTED BY IDOCK:   -7.48 KCAL/MOL
REMARK 923 INTER-LIGAND FREE ENERGY PREDICTED BY IDOCK:   -6.40 KCAL/MOL
REMARK 924 INTRA-LIGAND FREE ENERGY PREDICTED BY IDOCK:   -1.07 KCAL/MOL
REMARK 927      BINDING AFFINITY PREDICTED BY RF-SCORE:    0.00 PKD
ROOT
HETATM    1  C   UNL     1      -7.365   7.844  65.189  1.00  0.00    -0.071 C  
HETATM    2  O   UNL     1      -8.678   7.656  65.711  1.00  0.00    -0.156 OA 
ENDROOT
BRANCH   2   3
HETATM    3  C   UNL     1      -8.856   6.567  66.526  1.00  0.00    -0.138 A  
HETATM    4  C   UNL     1      -8.292   5.320  66.211  1.00  0.00    -0.114 A  
HETATM    5  C   UNL     1      -8.434   4.230  67.069  1.00  0.00    -0.104 A  
HETATM    6  C   UNL     1      -9.166   4.362  68.241  1.00  0.00    -0.182 A  
HETATM    7  C   UNL     1      -9.774   5.580  68.540  1.00  0.00    -0.175 A  
HETATM    8  C   UNL     1      -9.640   6.688  67.691  1.00  0.00    -0.124 A  
BRANCH   8   9
HETATM    9  O   UNL     1     -10.313   7.787  68.169  1.00  0.00    -0.197 OA 
BRANCH   9  10
HETATM   10  C   UNL     1      -9.758   8.449  69.298  1.00  0.00    -0.177 C  
BRANCH  10  11
HETATM   11  C   UNL     1      -8.920   9.657  68.846  1.00  0.00    -0.144 C  
BRANCH  11  12
HETATM   12  N   UNL     1      -9.460  10.956  69.288  1.00  0.00    -0.410 NA 
HETATM   13  H   UNL     1      -8.899  11.729  68.933  1.00  0.00     0.000 HD 
BRANCH  12  14
HETATM   14  C   UNL     1     -10.886  11.122  68.929  1.00  0.00    -0.216 C  
BRANCH  14  15
HETATM   15  C   UNL     1     -11.767  11.443  70.156  1.00  0.00    -0.328 C  
HETATM   16  O   UNL     1     -11.171  10.881  71.329  1.00  0.00     0.126 OA 
HETATM   17  H   UNL     1     -11.714  11.079  72.084  1.00  0.00     0.000 HD 
BRANCH  15  18
HETATM   18  C   UNL     1     -11.937  12.960  70.305  1.00  0.00    -0.283 C  
BRANCH  18  19
HETATM   19  O   UNL     1     -12.212  13.567  69.047  1.00  0.00    -0.320 OA 
BRANCH  19  20
HETATM   20  C   UNL     1     -11.376  14.596  68.684  1.00  0.00    -0.283 A  
HETATM   21  C   UNL     1     -10.925  15.603  69.556  1.00  0.00    -0.281 A  
HETATM   22  C   UNL     1     -10.054  16.599  69.127  1.00  0.00    -0.285 A  
HETATM   23  C   UNL     1      -9.594  16.635  67.812  1.00  0.00    -0.236 A  
HETATM   24  C   UNL     1     -10.052  15.635  66.944  1.00  0.00    -0.263 A  
HETATM   25  C   UNL     1     -10.930  14.625  67.340  1.00  0.00    -0.309 A  
HETATM   26  C   UNL     1     -11.186  13.811  66.186  1.00  0.00    -0.301 A  
HETATM   27  C   UNL     1     -11.988  12.674  65.945  1.00  0.00    -0.497 A  
HETATM   28  C   UNL     1     -12.010  12.099  64.669  1.00  0.00    -0.398 A  
HETATM   29  C   UNL     1     -11.246  12.641  63.638  1.00  0.00    -0.525 A  
HETATM   30  C   UNL     1     -10.446  13.769  63.848  1.00  0.00     0.745 A  
HETATM   31  C   UNL     1     -10.442  14.331  65.131  1.00  0.00    -0.411 A  
HETATM   32  N   UNL     1      -9.771  15.426  65.613  1.00  0.00    -0.346 NA 
HETATM   33  H   UNL     1      -9.146  16.010  65.057  1.00  0.00     0.000 HD 
ENDBRANCH  19  20
ENDBRANCH  18  19
ENDBRANCH  15  18
ENDBRANCH  14  15
ENDBRANCH  12  14
ENDBRANCH  11  12
ENDBRANCH  10  11
ENDBRANCH   9  10
ENDBRANCH   8   9
ENDBRANCH   2   3
TORSDOF 10
ENDMDL
MODEL      349
REMARK 921   NORMALIZED FREE ENERGY PREDICTED BY IDOCK:   -3.54 KCAL/MOL
REMARK 922        TOTAL FREE ENERGY PREDICTED BY IDOCK:   -7.46 KCAL/MOL
REMARK 923 INTER-LIGAND FREE ENERGY PREDICTED BY IDOCK:   -6.37 KCAL/MOL
REMARK 924 INTRA-LIGAND FREE ENERGY PREDICTED BY IDOCK:   -1.09 KCAL/MOL
REMARK 927      BINDING AFFINITY PREDICTED BY RF-SCORE:    0.00 PKD
ROOT
HETATM    1  C   UNL     1      -6.178   5.007  69.251  1.00  0.00    -0.030 C  
HETATM    2  O   UNL     1      -7.384   4.354  69.643  1.00  0.00    -0.050 OA 
ENDROOT
BRANCH   2   3
HETATM    3  C   UNL     1      -7.793   4.564  70.936  1.00  0.00    -0.068 A  
HETATM    4  C   UNL     1      -8.010   3.490  71.815  1.00  0.00    -0.062 A  
HETATM    5  C   UNL     1      -8.377   3.712  73.142  1.00  0.00    -0.087 A  
HETATM    6  C   UNL     1      -8.560   5.009  73.603  1.00  0.00    -0.104 A  
HETATM    7  C   UNL     1      -8.398   6.080  72.727  1.00  0.00    -0.118 A  
HETATM    8  C   UNL     1      -8.027   5.877  71.389  1.00  0.00    -0.113 A  
BRANCH   8   9
HETATM    9  O   UNL     1      -7.919   7.061  70.699  1.00  0.00    -0.105 OA 
BRANCH   9  10
HETATM   10  C   UNL     1      -7.253   8.135  71.351  1.00  0.00    -0.074 C  
BRANCH  10  11
HETATM   11  C   UNL     1      -6.453   8.962  70.330  1.00  0.00    -0.041 C  
BRANCH  11  12
HETATM   12  N   UNL     1      -7.163  10.162  69.849  1.00  0.00    -0.139 NA 
HETATM   13  H   UNL     1      -6.629  11.009  70.043  1.00  0.00     0.000 HD 
BRANCH  12  14
HETATM   14  C   UNL     1      -7.514  10.069  68.415  1.00  0.00    -0.082 C  
BRANCH  14  15
HETATM   15  C   UNL     1      -8.985   9.652  68.195  1.00  0.00    -0.123 C  
HETATM   16  O   UNL     1      -9.079   8.225  68.201  1.00  0.00    -0.135 OA 
HETATM   17  H   UNL     1      -9.984   7.968  68.066  1.00  0.00     0.000 HD 
BRANCH  15  18
HETATM   18  C   UNL     1      -9.878  10.262  69.283  1.00  0.00    -0.228 C  
BRANCH  18  19
HETATM   19  O   UNL     1     -11.162  10.589  68.762  1.00  0.00    -0.243 OA 
BRANCH  19  20
HETATM   20  C   UNL     1     -11.536  11.907  68.878  1.00  0.00    -0.311 A  
HETATM   21  C   UNL     1     -11.849  12.543  70.093  1.00  0.00    -0.336 A  
HETATM   22  C   UNL     1     -12.192  13.891  70.140  1.00  0.00    -0.425 A  
HETATM   23  C   UNL     1     -12.238  14.662  68.980  1.00  0.00    -0.199 A  
HETATM   24  C   UNL     1     -11.935  14.022  67.771  1.00  0.00    -0.357 A  
HETATM   25  C   UNL     1     -11.592  12.672  67.687  1.00  0.00    -0.414 A  
HETATM   26  C   UNL     1     -11.374  12.376  66.300  1.00  0.00    -0.388 A  
HETATM   27  C   UNL     1     -11.031  11.206  65.588  1.00  0.00    -0.149 A  
HETATM   28  C   UNL     1     -10.885  11.258  64.198  1.00  0.00    -0.407 A  
HETATM   29  C   UNL     1     -11.076  12.456  63.514  1.00  0.00    -0.521 A  
HETATM   30  C   UNL     1     -11.421  13.629  64.193  1.00  0.00    -0.359 A  
HETATM   31  C   UNL     1     -11.566  13.553  65.584  1.00  0.00    -0.325 A  
HETATM   32  N   UNL     1     -11.902  14.526  66.491  1.00  0.00    -0.377 NA 
HETATM   33  H   UNL     1     -12.103  15.497  66.247  1.00  0.00     0.000 HD 
ENDBRANCH  19  20
ENDBRANCH  18  19
ENDBRANCH  15  18
ENDBRANCH  14  15
ENDBRANCH  12  14
ENDBRANCH  11  12
ENDBRANCH  10  11
ENDBRANCH   9  10
ENDBRANCH   8   9
ENDBRANCH   2   3
TORSDOF 10
ENDMDL
MODEL      350
REMARK 921   NORMALIZED FREE ENERGY PREDICTED BY IDOCK:   -3.53 KCAL/MOL
REMARK 922        TOTAL FREE ENERGY PREDICTED BY IDOCK:   -7.43 KCAL/MOL
REMARK 923 INTER-LIGAND FREE ENERGY PREDICTED BY IDOCK:   -5.91 KCAL/MOL
REMARK 924 INTRA-LIGAND FREE ENERGY PREDICTED BY IDOCK:   -1.52 KCAL/MOL
REMARK 927      BINDING AFFINITY PREDICTED BY RF-SCORE:    0.00 PKD
ROOT
HETATM    1  C   UNL     1     -13.694  10.054  72.269  1.00  0.00    -0.101 C  
HETATM    2  O   UNL     1     -12.920   9.261  71.372  1.00  0.00    -0.327 OA 
ENDROOT
BRANCH   2   3
HETATM    3  C   UNL     1     -11.654   8.935  71.789  1.00  0.00    -0.352 A  
HETATM    4  C   UNL     1     -11.442   7.997  72.813  1.00  0.00    -0.420 A  
HETATM    5  C   UNL     1     -10.152   7.633  73.197  1.00  0.00    -0.382 A  
HETATM    6  C   UNL     1      -9.054   8.221  72.582  1.00  0.00    -0.327 A  
HETATM    7  C   UNL     1      -9.251   9.191  71.601  1.00  0.00    -0.088 A  
HETATM    8  C   UNL     1     -10.542   9.568  71.200  1.00  0.00    -0.318 A  
BRANCH   8   9
HETATM    9  O   UNL     1     -10.515  10.533  70.222  1.00  0.00    -0.160 OA 
BRANCH   9  10
HETATM   10  C   UNL     1     -11.454  10.411  69.161  1.00  0.00    -0.196 C  
BRANCH  10  11
HETATM   11  C   UNL     1     -10.832   9.635  67.988  1.00  0.00    -0.196 C  
BRANCH  11  12
HETATM   12  N   UNL     1     -10.834   8.173  68.173  1.00  0.00    -0.450 NA 
HETATM   13  H   UNL     1     -11.778   7.824  68.341  1.00  0.00     0.000 HD 
BRANCH  12  14
HETATM   14  C   UNL     1     -10.197   7.463  67.042  1.00  0.00    -0.287 C  
BRANCH  14  15
HETATM   15  C   UNL     1     -10.442   5.939  67.092  1.00  0.00    -0.272 C  
HETATM   16  O   UNL     1     -11.411   5.581  66.102  1.00  0.00    -0.751 OA 
HETATM   17  H   UNL     1     -11.561   4.643  66.133  1.00  0.00     0.000 HD 
BRANCH  15  18
HETATM   18  C   UNL     1      -9.127   5.182  66.866  1.00  0.00    -0.116 C  
BRANCH  18  19
HETATM   19  O   UNL     1      -8.256   5.332  67.982  1.00  0.00    -0.098 OA 
BRANCH  19  20
HETATM   20  C   UNL     1      -8.499   4.498  69.048  1.00  0.00    -0.079 A  
HETATM   21  C   UNL     1      -9.323   3.359  68.997  1.00  0.00    -0.239 A  
HETATM   22  C   UNL     1      -9.502   2.542  70.109  1.00  0.00    -0.150 A  
HETATM   23  C   UNL     1      -8.867   2.822  71.317  1.00  0.00    -0.131 A  
HETATM   24  C   UNL     1      -8.054   3.962  71.366  1.00  0.00    -0.069 A  
HETATM   25  C   UNL     1      -7.858   4.807  70.272  1.00  0.00    -0.058 A  
HETATM   26  C   UNL     1      -6.991   5.865  70.705  1.00  0.00    -0.063 A  
HETATM   27  C   UNL     1      -6.453   7.011  70.081  1.00  0.00    -0.039 A  
HETATM   28  C   UNL     1      -5.611   7.864  70.803  1.00  0.00    -0.030 A  
HETATM   29  C   UNL     1      -5.300   7.587  72.132  1.00  0.00    -0.036 A  
HETATM   30  C   UNL     1      -5.822   6.462  72.777  1.00  0.00    -0.038 A  
HETATM   31  C   UNL     1      -6.667   5.624  72.037  1.00  0.00    -0.063 A  
HETATM   32  N   UNL     1      -7.319   4.477  72.410  1.00  0.00    -0.078 NA 
HETATM   33  H   UNL     1      -7.265   4.059  73.339  1.00  0.00     0.000 HD 
ENDBRANCH  19  20
ENDBRANCH  18  19
ENDBRANCH  15  18
ENDBRANCH  14  15
ENDBRANCH  12  14
ENDBRANCH  11  12
ENDBRANCH  10  11
ENDBRANCH   9  10
ENDBRANCH   8   9
ENDBRANCH   2   3
TORSDOF 10
ENDMDL
MODEL      351
REMARK 921   NORMALIZED FREE ENERGY PREDICTED BY IDOCK:   -3.50 KCAL/MOL
REMARK 922        TOTAL FREE ENERGY PREDICTED BY IDOCK:   -7.39 KCAL/MOL
REMARK 923 INTER-LIGAND FREE ENERGY PREDICTED BY IDOCK:   -8.21 KCAL/MOL
REMARK 924 INTRA-LIGAND FREE ENERGY PREDICTED BY IDOCK:    0.82 KCAL/MOL
REMARK 927      BINDING AFFINITY PREDICTED BY RF-SCORE:    0.00 PKD
ROOT
HETATM    1  C   UNL     1      -6.700  16.635  66.806  1.00  0.00    -0.206 C  
HETATM    2  O   UNL     1      -7.769  16.984  65.929  1.00  0.00    -0.404 OA 
ENDROOT
BRANCH   2   3
HETATM    3  C   UNL     1      -8.670  17.901  66.407  1.00  0.00    -0.224 A  
HETATM    4  C   UNL     1      -8.490  19.278  66.198  1.00  0.00    -0.278 A  
HETATM    5  C   UNL     1      -9.436  20.202  66.642  1.00  0.00    -0.517 A  
HETATM    6  C   UNL     1     -10.562  19.765  67.327  1.00  0.00    -0.565 A  
HETATM    7  C   UNL     1     -10.727  18.405  67.586  1.00  0.00    -0.390 A  
HETATM    8  C   UNL     1      -9.788  17.462  67.144  1.00  0.00    -0.278 A  
BRANCH   8   9
HETATM    9  O   UNL     1     -10.139  16.181  67.500  1.00  0.00    -0.246 OA 
BRANCH   9  10
HETATM   10  C   UNL     1     -10.102  15.858  68.885  1.00  0.00    -0.225 C  
BRANCH  10  11
HETATM   11  C   UNL     1     -11.411  16.291  69.566  1.00  0.00    -0.231 C  
BRANCH  11  12
HETATM   12  N   UNL     1     -11.777  15.465  70.732  1.00  0.00    -0.313 NA 
HETATM   13  H   UNL     1     -12.192  16.033  71.470  1.00  0.00     0.000 HD 
BRANCH  12  14
HETATM   14  C   UNL     1     -12.660  14.336  70.366  1.00  0.00    -0.343 C  
BRANCH  14  15
HETATM   15  C   UNL     1     -12.190  12.999  70.978  1.00  0.00    -0.139 C  
HETATM   16  O   UNL     1     -13.293  12.361  71.628  1.00  0.00    -0.351 OA 
HETATM   17  H   UNL     1     -13.003  11.537  72.005  1.00  0.00     0.000 HD 
BRANCH  15  18
HETATM   18  C   UNL     1     -11.601  12.094  69.889  1.00  0.00    -0.221 C  
BRANCH  18  19
HETATM   19  O   UNL     1     -12.410  12.114  68.718  1.00  0.00    -0.143 OA 
BRANCH  19  20
HETATM   20  C   UNL     1     -11.805  12.594  67.581  1.00  0.00    -0.329 A  
HETATM   21  C   UNL     1     -12.387  13.522  66.698  1.00  0.00    -0.351 A  
HETATM   22  C   UNL     1     -11.704  13.988  65.579  1.00  0.00    -0.353 A  
HETATM   23  C   UNL     1     -10.412  13.550  65.292  1.00  0.00    -0.345 A  
HETATM   24  C   UNL     1      -9.839  12.620  66.168  1.00  0.00    -0.259 A  
HETATM   25  C   UNL     1     -10.498  12.127  67.296  1.00  0.00    -0.238 A  
HETATM   26  C   UNL     1      -9.614  11.190  67.927  1.00  0.00    -0.181 A  
HETATM   27  C   UNL     1      -9.711  10.364  69.068  1.00  0.00    -0.216 A  
HETATM   28  C   UNL     1      -8.633   9.546  69.425  1.00  0.00    -0.159 A  
HETATM   29  C   UNL     1      -7.468   9.542  68.662  1.00  0.00    -0.079 A  
HETATM   30  C   UNL     1      -7.346  10.347  67.525  1.00  0.00    -0.092 A  
HETATM   31  C   UNL     1      -8.439  11.155  67.183  1.00  0.00    -0.137 A  
HETATM   32  N   UNL     1      -8.600  12.021  66.132  1.00  0.00    -0.396 NA 
HETATM   33  H   UNL     1      -7.894  12.199  65.417  1.00  0.00     0.000 HD 
ENDBRANCH  19  20
ENDBRANCH  18  19
ENDBRANCH  15  18
ENDBRANCH  14  15
ENDBRANCH  12  14
ENDBRANCH  11  12
ENDBRANCH  10  11
ENDBRANCH   9  10
ENDBRANCH   8   9
ENDBRANCH   2   3
TORSDOF 10
ENDMDL
MODEL      352
REMARK 921   NORMALIZED FREE ENERGY PREDICTED BY IDOCK:   -3.49 KCAL/MOL
REMARK 922        TOTAL FREE ENERGY PREDICTED BY IDOCK:   -7.38 KCAL/MOL
REMARK 923 INTER-LIGAND FREE ENERGY PREDICTED BY IDOCK:   -6.36 KCAL/MOL
REMARK 924 INTRA-LIGAND FREE ENERGY PREDICTED BY IDOCK:   -1.02 KCAL/MOL
REMARK 927      BINDING AFFINITY PREDICTED BY RF-SCORE:    0.00 PKD
ROOT
HETATM    1  C   UNL     1     -10.614  16.261  68.215  1.00  0.00    -0.300 C  
HETATM    2  O   UNL     1     -11.369  15.054  68.136  1.00  0.00    -0.303 OA 
ENDROOT
BRANCH   2   3
HETATM    3  C   UNL     1     -11.279  14.358  66.958  1.00  0.00    -0.328 A  
HETATM    4  C   UNL     1     -10.748  14.950  65.800  1.00  0.00    -0.338 A  
HETATM    5  C   UNL     1     -10.612  14.221  64.619  1.00  0.00    -0.364 A  
HETATM    6  C   UNL     1     -11.030  12.898  64.569  1.00  0.00    -0.377 A  
HETATM    7  C   UNL     1     -11.605  12.314  65.696  1.00  0.00    -0.433 A  
HETATM    8  C   UNL     1     -11.747  13.031  66.894  1.00  0.00    -0.383 A  
BRANCH   8   9
HETATM    9  O   UNL     1     -12.334  12.273  67.879  1.00  0.00    -0.283 OA 
BRANCH   9  10
HETATM   10  C   UNL     1     -11.588  12.067  69.072  1.00  0.00    -0.313 C  
BRANCH  10  11
HETATM   11  C   UNL     1     -11.002  10.645  69.093  1.00  0.00    -0.247 C  
BRANCH  11  12
HETATM   12  N   UNL     1     -11.810   9.679  69.859  1.00  0.00    -0.450 NA 
HETATM   13  H   UNL     1     -11.815   8.764  69.410  1.00  0.00     0.000 HD 
BRANCH  12  14
HETATM   14  C   UNL     1     -11.377   9.579  71.270  1.00  0.00    -0.376 C  
BRANCH  14  15
HETATM   15  C   UNL     1     -10.610   8.270  71.558  1.00  0.00    -0.235 C  
HETATM   16  O   UNL     1     -11.391   7.155  71.118  1.00  0.00    -0.257 OA 
HETATM   17  H   UNL     1     -10.919   6.350  71.295  1.00  0.00     0.000 HD 
BRANCH  15  18
HETATM   18  C   UNL     1      -9.245   8.290  70.859  1.00  0.00    -0.155 C  
BRANCH  18  19
HETATM   19  O   UNL     1      -9.349   7.800  69.526  1.00  0.00    -0.150 OA 
BRANCH  19  20
HETATM   20  C   UNL     1      -8.497   6.773  69.198  1.00  0.00    -0.128 A  
HETATM   21  C   UNL     1      -8.395   5.563  69.909  1.00  0.00    -0.105 A  
HETATM   22  C   UNL     1      -7.530   4.552  69.502  1.00  0.00    -0.051 A  
HETATM   23  C   UNL     1      -6.731   4.702  68.370  1.00  0.00    -0.050 A  
HETATM   24  C   UNL     1      -6.829   5.911  67.670  1.00  0.00    -0.060 A  
HETATM   25  C   UNL     1      -7.681   6.948  68.054  1.00  0.00    -0.113 A  
HETATM   26  C   UNL     1      -7.492   8.019  67.118  1.00  0.00    -0.092 A  
HETATM   27  C   UNL     1      -8.038   9.315  66.985  1.00  0.00    -0.112 A  
HETATM   28  C   UNL     1      -7.632  10.132  65.924  1.00  0.00    -0.128 A  
HETATM   29  C   UNL     1      -6.696   9.675  65.000  1.00  0.00    -0.096 A  
HETATM   30  C   UNL     1      -6.135   8.399  65.110  1.00  0.00    -0.049 A  
HETATM   31  C   UNL     1      -6.552   7.598  66.182  1.00  0.00    -0.049 A  
HETATM   32  N   UNL     1      -6.169   6.330  66.537  1.00  0.00    -0.036 NA 
HETATM   33  H   UNL     1      -5.485   5.770  66.028  1.00  0.00     0.000 HD 
ENDBRANCH  19  20
ENDBRANCH  18  19
ENDBRANCH  15  18
ENDBRANCH  14  15
ENDBRANCH  12  14
ENDBRANCH  11  12
ENDBRANCH  10  11
ENDBRANCH   9  10
ENDBRANCH   8   9
ENDBRANCH   2   3
TORSDOF 10
ENDMDL
MODEL      353
REMARK 921   NORMALIZED FREE ENERGY PREDICTED BY IDOCK:   -3.49 KCAL/MOL
REMARK 922        TOTAL FREE ENERGY PREDICTED BY IDOCK:   -7.37 KCAL/MOL
REMARK 923 INTER-LIGAND FREE ENERGY PREDICTED BY IDOCK:   -6.84 KCAL/MOL
REMARK 924 INTRA-LIGAND FREE ENERGY PREDICTED BY IDOCK:   -0.53 KCAL/MOL
REMARK 927      BINDING AFFINITY PREDICTED BY RF-SCORE:    0.00 PKD
ROOT
HETATM    1  C   UNL     1      -8.831   8.460  66.183  1.00  0.00    -0.165 C  
HETATM    2  O   UNL     1      -9.616   7.270  66.186  1.00  0.00    -0.090 OA 
ENDROOT
BRANCH   2   3
HETATM    3  C   UNL     1      -9.212   6.280  67.045  1.00  0.00    -0.124 A  
HETATM    4  C   UNL     1      -8.010   5.583  66.841  1.00  0.00    -0.101 A  
HETATM    5  C   UNL     1      -7.580   4.612  67.746  1.00  0.00    -0.078 A  
HETATM    6  C   UNL     1      -8.359   4.304  68.853  1.00  0.00    -0.092 A  
HETATM    7  C   UNL     1      -9.578   4.952  69.040  1.00  0.00    -0.224 A  
HETATM    8  C   UNL     1     -10.026   5.933  68.142  1.00  0.00    -0.145 A  
BRANCH   8   9
HETATM    9  O   UNL     1     -11.247   6.447  68.509  1.00  0.00    -0.328 OA 
BRANCH   9  10
HETATM   10  C   UNL     1     -11.510   6.567  69.901  1.00  0.00    -0.403 C  
BRANCH  10  11
HETATM   11  C   UNL     1     -10.921   7.880  70.442  1.00  0.00    -0.249 C  
BRANCH  11  12
HETATM   12  N   UNL     1     -11.570   9.090  69.905  1.00  0.00    -0.441 NA 
HETATM   13  H   UNL     1     -11.967   9.659  70.653  1.00  0.00     0.000 HD 
BRANCH  12  14
HETATM   14  C   UNL     1     -10.658   9.887  69.056  1.00  0.00    -0.220 C  
BRANCH  14  15
HETATM   15  C   UNL     1      -9.253  10.033  69.678  1.00  0.00    -0.215 C  
HETATM   16  O   UNL     1      -8.577   8.773  69.625  1.00  0.00    -0.125 OA 
HETATM   17  H   UNL     1      -7.711   8.863  70.008  1.00  0.00     0.000 HD 
BRANCH  15  18
HETATM   18  C   UNL     1      -8.453  11.112  68.937  1.00  0.00    -0.092 C  
BRANCH  18  19
HETATM   19  O   UNL     1      -9.212  11.661  67.865  1.00  0.00    -0.160 OA 
BRANCH  19  20
HETATM   20  C   UNL     1      -9.302  13.032  67.836  1.00  0.00    -0.212 A  
HETATM   21  C   UNL     1      -8.711  13.890  68.783  1.00  0.00     0.006 A  
HETATM   22  C   UNL     1      -8.818  15.273  68.675  1.00  0.00    -0.188 A  
HETATM   23  C   UNL     1      -9.516  15.861  67.622  1.00  0.00    -0.219 A  
HETATM   24  C   UNL     1     -10.110  15.004  66.688  1.00  0.00    -0.261 A  
HETATM   25  C   UNL     1     -10.028  13.613  66.768  1.00  0.00    -0.270 A  
HETATM   26  C   UNL     1     -10.768  13.080  65.660  1.00  0.00    -0.293 A  
HETATM   27  C   UNL     1     -11.067  11.774  65.216  1.00  0.00    -0.333 A  
HETATM   28  C   UNL     1     -11.832  11.593  64.059  1.00  0.00    -0.307 A  
HETATM   29  C   UNL     1     -12.300  12.693  63.344  1.00  0.00    -0.553 A  
HETATM   30  C   UNL     1     -12.023  13.998  63.763  1.00  0.00    -0.230 A  
HETATM   31  C   UNL     1     -11.259  14.156  64.927  1.00  0.00    -0.373 A  
HETATM   32  N   UNL     1     -10.851  15.299  65.566  1.00  0.00    -0.352 NA 
HETATM   33  H   UNL     1     -11.068  16.245  65.251  1.00  0.00     0.000 HD 
ENDBRANCH  19  20
ENDBRANCH  18  19
ENDBRANCH  15  18
ENDBRANCH  14  15
ENDBRANCH  12  14
ENDBRANCH  11  12
ENDBRANCH  10  11
ENDBRANCH   9  10
ENDBRANCH   8   9
ENDBRANCH   2   3
TORSDOF 10
ENDMDL
MODEL      354
REMARK 921   NORMALIZED FREE ENERGY PREDICTED BY IDOCK:   -3.47 KCAL/MOL
REMARK 922        TOTAL FREE ENERGY PREDICTED BY IDOCK:   -7.35 KCAL/MOL
REMARK 923 INTER-LIGAND FREE ENERGY PREDICTED BY IDOCK:   -6.18 KCAL/MOL
REMARK 924 INTRA-LIGAND FREE ENERGY PREDICTED BY IDOCK:   -1.17 KCAL/MOL
REMARK 927      BINDING AFFINITY PREDICTED BY RF-SCORE:    0.00 PKD
ROOT
HETATM    1  C   UNL     1     -11.828  11.285  68.464  1.00  0.00    -0.285 C  
HETATM    2  O   UNL     1     -12.333  12.575  68.127  1.00  0.00    -0.165 OA 
ENDROOT
BRANCH   2   3
HETATM    3  C   UNL     1     -11.703  13.223  67.095  1.00  0.00    -0.376 A  
HETATM    4  C   UNL     1     -12.249  13.237  65.801  1.00  0.00    -0.510 A  
HETATM    5  C   UNL     1     -11.629  13.939  64.768  1.00  0.00    -0.383 A  
HETATM    6  C   UNL     1     -10.440  14.615  65.005  1.00  0.00    -0.447 A  
HETATM    7  C   UNL     1      -9.861  14.566  66.272  1.00  0.00    -0.322 A  
HETATM    8  C   UNL     1     -10.471  13.867  67.324  1.00  0.00    -0.271 A  
BRANCH   8   9
HETATM    9  O   UNL     1      -9.741  13.946  68.486  1.00  0.00    -0.221 OA 
BRANCH   9  10
HETATM   10  C   UNL     1      -8.367  13.585  68.416  1.00  0.00    -0.140 C  
BRANCH  10  11
HETATM   11  C   UNL     1      -8.223  12.056  68.339  1.00  0.00    -0.151 C  
BRANCH  11  12
HETATM   12  N   UNL     1      -7.809  11.563  67.012  1.00  0.00    -0.155 NA 
HETATM   13  H   UNL     1      -6.928  11.052  67.067  1.00  0.00     0.000 HD 
BRANCH  12  14
HETATM   14  C   UNL     1      -8.859  10.748  66.363  1.00  0.00    -0.165 C  
BRANCH  14  15
HETATM   15  C   UNL     1      -8.676   9.237  66.624  1.00  0.00    -0.127 C  
HETATM   16  O   UNL     1      -7.330   8.987  67.041  1.00  0.00    -0.085 OA 
HETATM   17  H   UNL     1      -7.218   8.057  67.202  1.00  0.00     0.000 HD 
BRANCH  15  18
HETATM   18  C   UNL     1      -9.674   8.756  67.685  1.00  0.00    -0.169 C  
BRANCH  18  19
HETATM   19  O   UNL     1      -8.999   8.352  68.872  1.00  0.00    -0.145 OA 
BRANCH  19  20
HETATM   20  C   UNL     1      -9.739   7.602  69.754  1.00  0.00    -0.171 A  
HETATM   21  C   UNL     1     -10.719   8.124  70.619  1.00  0.00    -0.238 A  
HETATM   22  C   UNL     1     -11.452   7.300  71.467  1.00  0.00    -0.292 A  
HETATM   23  C   UNL     1     -11.242   5.922  71.490  1.00  0.00    -0.290 A  
HETATM   24  C   UNL     1     -10.260   5.408  70.635  1.00  0.00    -0.253 A  
HETATM   25  C   UNL     1      -9.502   6.205  69.776  1.00  0.00    -0.168 A  
HETATM   26  C   UNL     1      -8.596   5.337  69.081  1.00  0.00    -0.102 A  
HETATM   27  C   UNL     1      -7.584   5.541  68.118  1.00  0.00    -0.081 A  
HETATM   28  C   UNL     1      -6.866   4.446  67.624  1.00  0.00    -0.055 A  
HETATM   29  C   UNL     1      -7.144   3.159  68.077  1.00  0.00    -0.050 A  
HETATM   30  C   UNL     1      -8.137   2.928  69.033  1.00  0.00    -0.069 A  
HETATM   31  C   UNL     1      -8.841   4.038  69.518  1.00  0.00    -0.091 A  
HETATM   32  N   UNL     1      -9.844   4.109  70.450  1.00  0.00    -0.198 NA 
HETATM   33  H   UNL     1     -10.231   3.304  70.943  1.00  0.00     0.000 HD 
ENDBRANCH  19  20
ENDBRANCH  18  19
ENDBRANCH  15  18
ENDBRANCH  14  15
ENDBRANCH  12  14
ENDBRANCH  11  12
ENDBRANCH  10  11
ENDBRANCH   9  10
ENDBRANCH   8   9
ENDBRANCH   2   3
TORSDOF 10
ENDMDL
MODEL      355
REMARK 921   NORMALIZED FREE ENERGY PREDICTED BY IDOCK:   -3.47 KCAL/MOL
REMARK 922        TOTAL FREE ENERGY PREDICTED BY IDOCK:   -7.34 KCAL/MOL
REMARK 923 INTER-LIGAND FREE ENERGY PREDICTED BY IDOCK:   -6.37 KCAL/MOL
REMARK 924 INTRA-LIGAND FREE ENERGY PREDICTED BY IDOCK:   -0.97 KCAL/MOL
REMARK 927      BINDING AFFINITY PREDICTED BY RF-SCORE:    0.00 PKD
ROOT
HETATM    1  C   UNL     1      -8.437  10.719  62.440  1.00  0.00    -0.266 C  
HETATM    2  O   UNL     1      -8.412  10.249  63.787  1.00  0.00    -0.166 OA 
ENDROOT
BRANCH   2   3
HETATM    3  C   UNL     1      -8.416   8.887  63.953  1.00  0.00    -0.136 A  
HETATM    4  C   UNL     1      -8.074   8.022  62.900  1.00  0.00    -0.126 A  
HETATM    5  C   UNL     1      -8.031   6.642  63.091  1.00  0.00    -0.082 A  
HETATM    6  C   UNL     1      -8.355   6.102  64.329  1.00  0.00     0.022 A  
HETATM    7  C   UNL     1      -8.746   6.946  65.367  1.00  0.00     0.010 A  
HETATM    8  C   UNL     1      -8.792   8.338  65.195  1.00  0.00     0.020 A  
BRANCH   8   9
HETATM    9  O   UNL     1      -9.198   8.984  66.338  1.00  0.00    -0.162 OA 
BRANCH   9  10
HETATM   10  C   UNL     1     -10.035   8.261  67.231  1.00  0.00    -0.224 C  
BRANCH  10  11
HETATM   11  C   UNL     1      -9.516   8.395  68.673  1.00  0.00    -0.147 C  
BRANCH  11  12
HETATM   12  N   UNL     1     -10.008   9.595  69.374  1.00  0.00    -0.185 NA 
HETATM   13  H   UNL     1     -10.128   9.417  70.371  1.00  0.00     0.000 HD 
BRANCH  12  14
HETATM   14  C   UNL     1      -9.144  10.774  69.143  1.00  0.00    -0.095 C  
BRANCH  14  15
HETATM   15  C   UNL     1      -9.959  12.047  68.830  1.00  0.00     0.023 C  
HETATM   16  O   UNL     1      -9.710  12.451  67.480  1.00  0.00    -0.186 OA 
HETATM   17  H   UNL     1     -10.212  13.234  67.287  1.00  0.00     0.000 HD 
BRANCH  15  18
HETATM   18  C   UNL     1     -11.454  11.791  69.056  1.00  0.00    -0.297 C  
BRANCH  18  19
HETATM   19  O   UNL     1     -12.197  13.002  68.972  1.00  0.00    -0.227 OA 
BRANCH  19  20
HETATM   20  C   UNL     1     -12.242  13.757  70.120  1.00  0.00    -0.356 A  
HETATM   21  C   UNL     1     -12.767  13.312  71.347  1.00  0.00    -0.401 A  
HETATM   22  C   UNL     1     -12.753  14.121  72.478  1.00  0.00    -0.352 A  
HETATM   23  C   UNL     1     -12.215  15.407  72.437  1.00  0.00    -0.483 A  
HETATM   24  C   UNL     1     -11.701  15.849  71.212  1.00  0.00    -0.448 A  
HETATM   25  C   UNL     1     -11.705  15.066  70.056  1.00  0.00    -0.345 A  
HETATM   26  C   UNL     1     -11.122  15.856  69.009  1.00  0.00    -0.294 A  
HETATM   27  C   UNL     1     -10.871  15.636  67.637  1.00  0.00    -0.307 A  
HETATM   28  C   UNL     1     -10.265  16.639  66.874  1.00  0.00    -0.291 A  
HETATM   29  C   UNL     1      -9.908  17.852  67.459  1.00  0.00    -0.309 A  
HETATM   30  C   UNL     1     -10.149  18.099  68.814  1.00  0.00    -0.392 A  
HETATM   31  C   UNL     1     -10.762  17.082  69.559  1.00  0.00    -0.124 A  
HETATM   32  N   UNL     1     -11.121  17.052  70.882  1.00  0.00    -0.045 NA 
HETATM   33  H   UNL     1     -10.977  17.822  71.536  1.00  0.00     0.000 HD 
ENDBRANCH  19  20
ENDBRANCH  18  19
ENDBRANCH  15  18
ENDBRANCH  14  15
ENDBRANCH  12  14
ENDBRANCH  11  12
ENDBRANCH  10  11
ENDBRANCH   9  10
ENDBRANCH   8   9
ENDBRANCH   2   3
TORSDOF 10
ENDMDL
MODEL      356
REMARK 921   NORMALIZED FREE ENERGY PREDICTED BY IDOCK:   -3.45 KCAL/MOL
REMARK 922        TOTAL FREE ENERGY PREDICTED BY IDOCK:   -7.31 KCAL/MOL
REMARK 923 INTER-LIGAND FREE ENERGY PREDICTED BY IDOCK:   -6.04 KCAL/MOL
REMARK 924 INTRA-LIGAND FREE ENERGY PREDICTED BY IDOCK:   -1.27 KCAL/MOL
REMARK 927      BINDING AFFINITY PREDICTED BY RF-SCORE:    0.00 PKD
ROOT
HETATM    1  C   UNL     1     -11.998  15.921  69.571  1.00  0.00    -0.262 C  
HETATM    2  O   UNL     1     -11.831  14.615  69.021  1.00  0.00    -0.299 OA 
ENDROOT
BRANCH   2   3
HETATM    3  C   UNL     1     -12.134  13.566  69.851  1.00  0.00    -0.341 A  
HETATM    4  C   UNL     1     -12.751  13.774  71.096  1.00  0.00    -0.438 A  
HETATM    5  C   UNL     1     -13.103  12.699  71.911  1.00  0.00    -0.470 A  
HETATM    6  C   UNL     1     -12.819  11.401  71.508  1.00  0.00    -0.508 A  
HETATM    7  C   UNL     1     -12.161  11.184  70.298  1.00  0.00    -0.436 A  
HETATM    8  C   UNL     1     -11.802  12.252  69.463  1.00  0.00    -0.315 A  
BRANCH   8   9
HETATM    9  O   UNL     1     -11.167  11.823  68.322  1.00  0.00    -0.216 OA 
BRANCH   9  10
HETATM   10  C   UNL     1      -9.888  11.221  68.477  1.00  0.00    -0.197 C  
BRANCH  10  11
HETATM   11  C   UNL     1      -8.805  12.104  67.834  1.00  0.00    -0.177 C  
BRANCH  11  12
HETATM   12  N   UNL     1      -7.725  12.490  68.761  1.00  0.00    -0.289 NA 
HETATM   13  H   UNL     1      -7.839  12.041  69.669  1.00  0.00     0.000 HD 
BRANCH  12  14
HETATM   14  C   UNL     1      -6.382  12.226  68.199  1.00  0.00    -0.062 C  
BRANCH  14  15
HETATM   15  C   UNL     1      -6.407  11.139  67.102  1.00  0.00    -0.083 C  
HETATM   16  O   UNL     1      -5.905  11.686  65.880  1.00  0.00    -0.495 OA 
HETATM   17  H   UNL     1      -5.920  11.017  65.205  1.00  0.00     0.000 HD 
BRANCH  15  18
HETATM   18  C   UNL     1      -5.576   9.925  67.538  1.00  0.00    -0.039 C  
BRANCH  18  19
HETATM   19  O   UNL     1      -6.214   9.227  68.601  1.00  0.00    -0.044 OA 
BRANCH  19  20
HETATM   20  C   UNL     1      -6.093   7.858  68.576  1.00  0.00    -0.040 A  
HETATM   21  C   UNL     1      -5.268   7.147  67.685  1.00  0.00    -0.019 A  
HETATM   22  C   UNL     1      -5.172   5.759  67.735  1.00  0.00    -0.004 A  
HETATM   23  C   UNL     1      -5.891   5.022  68.673  1.00  0.00    -0.021 A  
HETATM   24  C   UNL     1      -6.719   5.732  69.552  1.00  0.00    -0.059 A  
HETATM   25  C   UNL     1      -6.844   7.122  69.526  1.00  0.00    -0.050 A  
HETATM   26  C   UNL     1      -7.784   7.482  70.548  1.00  0.00    -0.094 A  
HETATM   27  C   UNL     1      -8.333   8.705  70.992  1.00  0.00    -0.193 A  
HETATM   28  C   UNL     1      -9.249   8.711  72.049  1.00  0.00    -0.338 A  
HETATM   29  C   UNL     1      -9.623   7.519  72.664  1.00  0.00    -0.220 A  
HETATM   30  C   UNL     1      -9.100   6.293  72.242  1.00  0.00    -0.140 A  
HETATM   31  C   UNL     1      -8.187   6.309  71.179  1.00  0.00    -0.123 A  
HETATM   32  N   UNL     1      -7.533   5.273  70.562  1.00  0.00    -0.069 NA 
HETATM   33  H   UNL     1      -7.637   4.291  70.818  1.00  0.00     0.000 HD 
ENDBRANCH  19  20
ENDBRANCH  18  19
ENDBRANCH  15  18
ENDBRANCH  14  15
ENDBRANCH  12  14
ENDBRANCH  11  12
ENDBRANCH  10  11
ENDBRANCH   9  10
ENDBRANCH   8   9
ENDBRANCH   2   3
TORSDOF 10
ENDMDL
MODEL      357
REMARK 921   NORMALIZED FREE ENERGY PREDICTED BY IDOCK:   -3.45 KCAL/MOL
REMARK 922        TOTAL FREE ENERGY PREDICTED BY IDOCK:   -7.31 KCAL/MOL
REMARK 923 INTER-LIGAND FREE ENERGY PREDICTED BY IDOCK:   -5.89 KCAL/MOL
REMARK 924 INTRA-LIGAND FREE ENERGY PREDICTED BY IDOCK:   -1.42 KCAL/MOL
REMARK 927      BINDING AFFINITY PREDICTED BY RF-SCORE:    0.00 PKD
ROOT
HETATM    1  C   UNL     1      -8.188   7.739  74.052  1.00  0.00    -0.220 C  
HETATM    2  O   UNL     1      -7.250   7.164  73.144  1.00  0.00    -0.073 OA 
ENDROOT
BRANCH   2   3
HETATM    3  C   UNL     1      -7.542   5.903  72.691  1.00  0.00    -0.097 A  
HETATM    4  C   UNL     1      -7.559   4.800  73.561  1.00  0.00    -0.087 A  
HETATM    5  C   UNL     1      -7.906   3.529  73.103  1.00  0.00    -0.070 A  
HETATM    6  C   UNL     1      -8.214   3.336  71.763  1.00  0.00    -0.061 A  
HETATM    7  C   UNL     1      -8.151   4.412  70.879  1.00  0.00    -0.068 A  
HETATM    8  C   UNL     1      -7.807   5.698  71.322  1.00  0.00    -0.111 A  
BRANCH   8   9
HETATM    9  O   UNL     1      -7.806   6.612  70.295  1.00  0.00    -0.102 OA 
BRANCH   9  10
HETATM   10  C   UNL     1      -6.546   6.952  69.729  1.00  0.00    -0.045 C  
BRANCH  10  11
HETATM   11  C   UNL     1      -6.548   6.664  68.218  1.00  0.00    -0.059 C  
BRANCH  11  12
HETATM   12  N   UNL     1      -7.417   7.565  67.441  1.00  0.00    -0.101 NA 
HETATM   13  H   UNL     1      -8.290   7.752  67.934  1.00  0.00     0.000 HD 
BRANCH  12  14
HETATM   14  C   UNL     1      -6.734   8.824  67.071  1.00  0.00    -0.066 C  
BRANCH  14  15
HETATM   15  C   UNL     1      -7.725   9.926  66.637  1.00  0.00    -0.106 C  
HETATM   16  O   UNL     1      -8.795   9.336  65.892  1.00  0.00    -0.147 OA 
HETATM   17  H   UNL     1      -9.405  10.014  65.626  1.00  0.00     0.000 HD 
BRANCH  15  18
HETATM   18  C   UNL     1      -8.262  10.671  67.866  1.00  0.00    -0.112 C  
BRANCH  18  19
HETATM   19  O   UNL     1      -9.602  10.282  68.150  1.00  0.00    -0.138 OA 
BRANCH  19  20
HETATM   20  C   UNL     1     -10.394  11.245  68.730  1.00  0.00    -0.205 A  
HETATM   21  C   UNL     1     -10.464  12.584  68.303  1.00  0.00    -0.243 A  
HETATM   22  C   UNL     1     -11.312  13.499  68.919  1.00  0.00    -0.332 A  
HETATM   23  C   UNL     1     -12.125  13.121  69.986  1.00  0.00    -0.375 A  
HETATM   24  C   UNL     1     -12.045  11.790  70.415  1.00  0.00    -0.352 A  
HETATM   25  C   UNL     1     -11.202  10.848  69.823  1.00  0.00    -0.351 A  
HETATM   26  C   UNL     1     -11.378   9.616  70.538  1.00  0.00    -0.360 A  
HETATM   27  C   UNL     1     -10.805   8.330  70.433  1.00  0.00    -0.241 A  
HETATM   28  C   UNL     1     -11.213   7.316  71.307  1.00  0.00    -0.281 A  
HETATM   29  C   UNL     1     -12.180   7.568  72.277  1.00  0.00    -0.233 A  
HETATM   30  C   UNL     1     -12.760   8.833  72.406  1.00  0.00    -0.433 A  
HETATM   31  C   UNL     1     -12.334   9.835  71.524  1.00  0.00    -0.405 A  
HETATM   32  N   UNL     1     -12.718  11.149  71.429  1.00  0.00    -0.421 NA 
HETATM   33  H   UNL     1     -13.411  11.592  72.033  1.00  0.00     0.000 HD 
ENDBRANCH  19  20
ENDBRANCH  18  19
ENDBRANCH  15  18
ENDBRANCH  14  15
ENDBRANCH  12  14
ENDBRANCH  11  12
ENDBRANCH  10  11
ENDBRANCH   9  10
ENDBRANCH   8   9
ENDBRANCH   2   3
TORSDOF 10
ENDMDL
MODEL      358
REMARK 921   NORMALIZED FREE ENERGY PREDICTED BY IDOCK:   -3.44 KCAL/MOL
REMARK 922        TOTAL FREE ENERGY PREDICTED BY IDOCK:   -7.31 KCAL/MOL
REMARK 923 INTER-LIGAND FREE ENERGY PREDICTED BY IDOCK:   -5.65 KCAL/MOL
REMARK 924 INTRA-LIGAND FREE ENERGY PREDICTED BY IDOCK:   -1.66 KCAL/MOL
REMARK 927      BINDING AFFINITY PREDICTED BY RF-SCORE:    0.00 PKD
ROOT
HETATM    1  C   UNL     1      -8.954  11.706  68.341  1.00  0.00    -0.176 C  
HETATM    2  O   UNL     1      -7.829  11.314  69.126  1.00  0.00    -0.108 OA 
ENDROOT
BRANCH   2   3
HETATM    3  C   UNL     1      -7.326  10.062  68.881  1.00  0.00    -0.080 A  
HETATM    4  C   UNL     1      -6.969   9.660  67.583  1.00  0.00    -0.087 A  
HETATM    5  C   UNL     1      -6.411   8.404  67.349  1.00  0.00    -0.057 A  
HETATM    6  C   UNL     1      -6.226   7.520  68.404  1.00  0.00    -0.036 A  
HETATM    7  C   UNL     1      -6.623   7.887  69.688  1.00  0.00    -0.038 A  
HETATM    8  C   UNL     1      -7.184   9.148  69.944  1.00  0.00    -0.062 A  
BRANCH   8   9
HETATM    9  O   UNL     1      -7.502   9.309  71.271  1.00  0.00    -0.284 OA 
BRANCH   9  10
HETATM   10  C   UNL     1      -8.311   8.306  71.873  1.00  0.00    -0.157 C  
BRANCH  10  11
HETATM   11  C   UNL     1      -7.730   7.904  73.239  1.00  0.00    -0.143 C  
BRANCH  11  12
HETATM   12  N   UNL     1      -8.737   7.392  74.187  1.00  0.00    -0.209 NA 
HETATM   13  H   UNL     1      -9.679   7.672  73.912  1.00  0.00     0.000 HD 
BRANCH  12  14
HETATM   14  C   UNL     1      -8.647   5.926  74.363  1.00  0.00    -0.115 C  
BRANCH  14  15
HETATM   15  C   UNL     1      -9.695   5.167  73.521  1.00  0.00    -0.149 C  
HETATM   16  O   UNL     1     -10.195   4.057  74.273  1.00  0.00    -0.153 OA 
HETATM   17  H   UNL     1     -10.840   3.590  73.754  1.00  0.00     0.000 HD 
BRANCH  15  18
HETATM   18  C   UNL     1     -10.835   6.109  73.116  1.00  0.00    -0.254 C  
BRANCH  18  19
HETATM   19  O   UNL     1     -11.474   5.654  71.927  1.00  0.00    -0.212 OA 
BRANCH  19  20
HETATM   20  C   UNL     1     -10.957   6.137  70.748  1.00  0.00    -0.302 A  
HETATM   21  C   UNL     1     -10.143   5.396  69.872  1.00  0.00    -0.322 A  
HETATM   22  C   UNL     1      -9.679   5.940  68.678  1.00  0.00    -0.155 A  
HETATM   23  C   UNL     1     -10.007   7.242  68.306  1.00  0.00    -0.177 A  
HETATM   24  C   UNL     1     -10.810   7.979  69.185  1.00  0.00    -0.021 A  
HETATM   25  C   UNL     1     -11.288   7.467  70.393  1.00  0.00    -0.273 A  
HETATM   26  C   UNL     1     -12.049   8.508  71.022  1.00  0.00    -0.231 A  
HETATM   27  C   UNL     1     -12.751   8.610  72.243  1.00  0.00    -0.450 A  
HETATM   28  C   UNL     1     -13.412   9.800  72.565  1.00  0.00    -0.245 A  
HETATM   29  C   UNL     1     -13.383  10.882  71.688  1.00  0.00    -0.364 A  
HETATM   30  C   UNL     1     -12.692  10.811  70.475  1.00  0.00    -0.388 A  
HETATM   31  C   UNL     1     -12.033   9.611  70.174  1.00  0.00     0.039 A  
HETATM   32  N   UNL     1     -11.282   9.268  69.079  1.00  0.00    -0.442 NA 
HETATM   33  H   UNL     1     -11.097   9.887  68.289  1.00  0.00     0.000 HD 
ENDBRANCH  19  20
ENDBRANCH  18  19
ENDBRANCH  15  18
ENDBRANCH  14  15
ENDBRANCH  12  14
ENDBRANCH  11  12
ENDBRANCH  10  11
ENDBRANCH   9  10
ENDBRANCH   8   9
ENDBRANCH   2   3
TORSDOF 10
ENDMDL
MODEL      359
REMARK 921   NORMALIZED FREE ENERGY PREDICTED BY IDOCK:   -3.44 KCAL/MOL
REMARK 922        TOTAL FREE ENERGY PREDICTED BY IDOCK:   -7.30 KCAL/MOL
REMARK 923 INTER-LIGAND FREE ENERGY PREDICTED BY IDOCK:   -6.19 KCAL/MOL
REMARK 924 INTRA-LIGAND FREE ENERGY PREDICTED BY IDOCK:   -1.11 KCAL/MOL
REMARK 927      BINDING AFFINITY PREDICTED BY RF-SCORE:    0.00 PKD
ROOT
HETATM    1  C   UNL     1      -9.283  10.084  62.406  1.00  0.00    -0.296 C  
HETATM    2  O   UNL     1      -8.671   9.797  63.662  1.00  0.00    -0.187 OA 
ENDROOT
BRANCH   2   3
HETATM    3  C   UNL     1      -7.521   9.051  63.619  1.00  0.00    -0.103 A  
HETATM    4  C   UNL     1      -6.674   9.080  62.499  1.00  0.00    -0.093 A  
HETATM    5  C   UNL     1      -5.480   8.358  62.483  1.00  0.00    -0.071 A  
HETATM    6  C   UNL     1      -5.129   7.576  63.575  1.00  0.00    -0.033 A  
HETATM    7  C   UNL     1      -5.985   7.499  64.672  1.00  0.00    -0.038 A  
HETATM    8  C   UNL     1      -7.188   8.220  64.707  1.00  0.00    -0.082 A  
BRANCH   8   9
HETATM    9  O   UNL     1      -7.881   8.006  65.875  1.00  0.00    -0.091 OA 
BRANCH   9  10
HETATM   10  C   UNL     1      -7.682   6.760  66.531  1.00  0.00    -0.102 C  
BRANCH  10  11
HETATM   11  C   UNL     1      -7.100   6.986  67.936  1.00  0.00    -0.086 C  
BRANCH  11  12
HETATM   12  N   UNL     1      -8.093   7.441  68.927  1.00  0.00    -0.126 NA 
HETATM   13  H   UNL     1      -8.184   6.772  69.691  1.00  0.00     0.000 HD 
BRANCH  12  14
HETATM   14  C   UNL     1      -7.797   8.797  69.437  1.00  0.00    -0.095 C  
BRANCH  14  15
HETATM   15  C   UNL     1      -8.601   9.891  68.701  1.00  0.00    -0.119 C  
HETATM   16  O   UNL     1      -7.953  10.205  67.464  1.00  0.00    -0.106 OA 
HETATM   17  H   UNL     1      -8.448  10.878  67.011  1.00  0.00     0.000 HD 
BRANCH  15  18
HETATM   18  C   UNL     1     -10.040   9.419  68.457  1.00  0.00    -0.187 C  
BRANCH  18  19
HETATM   19  O   UNL     1     -10.975  10.309  69.058  1.00  0.00    -0.212 OA 
BRANCH  19  20
HETATM   20  C   UNL     1     -11.785   9.762  70.025  1.00  0.00    -0.074 A  
HETATM   21  C   UNL     1     -11.959   8.382  70.233  1.00  0.00     0.307 A  
HETATM   22  C   UNL     1     -12.773   7.898  71.252  1.00  0.00    -0.251 A  
HETATM   23  C   UNL     1     -13.447   8.767  72.109  1.00  0.00    -0.469 A  
HETATM   24  C   UNL     1     -13.278  10.140  71.893  1.00  0.00    -0.452 A  
HETATM   25  C   UNL     1     -12.474  10.660  70.877  1.00  0.00    -0.495 A  
HETATM   26  C   UNL     1     -12.565  12.090  70.955  1.00  0.00    -0.370 A  
HETATM   27  C   UNL     1     -12.012  13.151  70.207  1.00  0.00    -0.366 A  
HETATM   28  C   UNL     1     -12.303  14.474  70.559  1.00  0.00    -0.403 A  
HETATM   29  C   UNL     1     -13.134  14.748  71.642  1.00  0.00    -0.418 A  
HETATM   30  C   UNL     1     -13.700  13.717  72.398  1.00  0.00    -0.697 A  
HETATM   31  C   UNL     1     -13.399  12.400  72.025  1.00  0.00    -0.407 A  
HETATM   32  N   UNL     1     -13.814  11.212  72.571  1.00  0.00    -0.073 NA 
HETATM   33  H   UNL     1     -14.438  11.132  73.374  1.00  0.00     0.000 HD 
ENDBRANCH  19  20
ENDBRANCH  18  19
ENDBRANCH  15  18
ENDBRANCH  14  15
ENDBRANCH  12  14
ENDBRANCH  11  12
ENDBRANCH  10  11
ENDBRANCH   9  10
ENDBRANCH   8   9
ENDBRANCH   2   3
TORSDOF 10
ENDMDL
MODEL      360
REMARK 921   NORMALIZED FREE ENERGY PREDICTED BY IDOCK:   -3.44 KCAL/MOL
REMARK 922        TOTAL FREE ENERGY PREDICTED BY IDOCK:   -7.29 KCAL/MOL
REMARK 923 INTER-LIGAND FREE ENERGY PREDICTED BY IDOCK:   -5.85 KCAL/MOL
REMARK 924 INTRA-LIGAND FREE ENERGY PREDICTED BY IDOCK:   -1.44 KCAL/MOL
REMARK 927      BINDING AFFINITY PREDICTED BY RF-SCORE:    0.00 PKD
ROOT
HETATM    1  C   UNL     1      -7.468   5.118  70.080  1.00  0.00    -0.063 C  
HETATM    2  O   UNL     1      -7.748   4.063  69.161  1.00  0.00    -0.054 OA 
ENDROOT
BRANCH   2   3
HETATM    3  C   UNL     1      -7.442   4.308  67.846  1.00  0.00    -0.068 A  
HETATM    4  C   UNL     1      -6.123   4.211  67.374  1.00  0.00    -0.028 A  
HETATM    5  C   UNL     1      -5.827   4.411  66.026  1.00  0.00    -0.023 A  
HETATM    6  C   UNL     1      -6.841   4.738  65.135  1.00  0.00    -0.057 A  
HETATM    7  C   UNL     1      -8.146   4.887  65.601  1.00  0.00    -0.112 A  
HETATM    8  C   UNL     1      -8.463   4.687  66.952  1.00  0.00    -0.105 A  
BRANCH   8   9
HETATM    9  O   UNL     1      -9.801   4.881  67.201  1.00  0.00    -0.162 OA 
BRANCH   9  10
HETATM   10  C   UNL     1     -10.215   6.199  67.540  1.00  0.00    -0.178 C  
BRANCH  10  11
HETATM   11  C   UNL     1     -11.339   6.149  68.589  1.00  0.00    -0.013 C  
BRANCH  11  12
HETATM   12  N   UNL     1     -11.391   7.336  69.462  1.00  0.00    -0.475 NA 
HETATM   13  H   UNL     1     -12.245   7.871  69.307  1.00  0.00     0.000 HD 
BRANCH  12  14
HETATM   14  C   UNL     1     -11.230   6.989  70.891  1.00  0.00    -0.282 C  
BRANCH  14  15
HETATM   15  C   UNL     1     -11.115   8.239  71.790  1.00  0.00    -0.278 C  
HETATM   16  O   UNL     1     -11.068   7.835  73.162  1.00  0.00    -0.431 OA 
HETATM   17  H   UNL     1     -10.997   8.605  73.715  1.00  0.00     0.000 HD 
BRANCH  15  18
HETATM   18  C   UNL     1      -9.867   9.049  71.418  1.00  0.00    -0.311 C  
BRANCH  18  19
HETATM   19  O   UNL     1     -10.131   9.914  70.318  1.00  0.00    -0.263 OA 
BRANCH  19  20
HETATM   20  C   UNL     1      -9.174   9.938  69.332  1.00  0.00    -0.214 A  
HETATM   21  C   UNL     1      -8.115   9.017  69.226  1.00  0.00    -0.105 A  
HETATM   22  C   UNL     1      -7.197   9.083  68.182  1.00  0.00    -0.079 A  
HETATM   23  C   UNL     1      -7.295  10.067  67.200  1.00  0.00    -0.091 A  
HETATM   24  C   UNL     1      -8.345  10.986  67.314  1.00  0.00    -0.125 A  
HETATM   25  C   UNL     1      -9.279  10.953  68.350  1.00  0.00    -0.168 A  
HETATM   26  C   UNL     1     -10.178  12.053  68.145  1.00  0.00    -0.203 A  
HETATM   27  C   UNL     1     -11.297  12.551  68.848  1.00  0.00    -0.346 A  
HETATM   28  C   UNL     1     -11.978  13.672  68.362  1.00  0.00    -0.391 A  
HETATM   29  C   UNL     1     -11.560  14.298  67.190  1.00  0.00    -0.402 A  
HETATM   30  C   UNL     1     -10.453  13.829  66.476  1.00  0.00    -0.282 A  
HETATM   31  C   UNL     1      -9.783  12.707  66.982  1.00  0.00    -0.225 A  
HETATM   32  N   UNL     1      -8.680  12.048  66.504  1.00  0.00    -0.316 NA 
HETATM   33  H   UNL     1      -8.173  12.310  65.658  1.00  0.00     0.000 HD 
ENDBRANCH  19  20
ENDBRANCH  18  19
ENDBRANCH  15  18
ENDBRANCH  14  15
ENDBRANCH  12  14
ENDBRANCH  11  12
ENDBRANCH  10  11
ENDBRANCH   9  10
ENDBRANCH   8   9
ENDBRANCH   2   3
TORSDOF 10
ENDMDL
MODEL      361
REMARK 921   NORMALIZED FREE ENERGY PREDICTED BY IDOCK:   -3.43 KCAL/MOL
REMARK 922        TOTAL FREE ENERGY PREDICTED BY IDOCK:   -7.29 KCAL/MOL
REMARK 923 INTER-LIGAND FREE ENERGY PREDICTED BY IDOCK:   -6.67 KCAL/MOL
REMARK 924 INTRA-LIGAND FREE ENERGY PREDICTED BY IDOCK:   -0.61 KCAL/MOL
REMARK 927      BINDING AFFINITY PREDICTED BY RF-SCORE:    0.00 PKD
ROOT
HETATM    1  C   UNL     1      -8.722   6.087  68.432  1.00  0.00    -0.113 C  
HETATM    2  O   UNL     1      -9.618   6.318  67.347  1.00  0.00    -0.116 OA 
ENDROOT
BRANCH   2   3
HETATM    3  C   UNL     1      -9.165   7.145  66.352  1.00  0.00    -0.157 A  
HETATM    4  C   UNL     1      -8.225   6.702  65.406  1.00  0.00    -0.138 A  
HETATM    5  C   UNL     1      -7.806   7.532  64.367  1.00  0.00    -0.128 A  
HETATM    6  C   UNL     1      -8.299   8.826  64.272  1.00  0.00    -0.158 A  
HETATM    7  C   UNL     1      -9.193   9.295  65.233  1.00  0.00    -0.275 A  
HETATM    8  C   UNL     1      -9.628   8.474  66.284  1.00  0.00    -0.236 A  
BRANCH   8   9
HETATM    9  O   UNL     1     -10.506   9.126  67.117  1.00  0.00    -0.260 OA 
BRANCH   9  10
HETATM   10  C   UNL     1     -10.018   9.528  68.390  1.00  0.00    -0.164 C  
BRANCH  10  11
HETATM   11  C   UNL     1      -9.890  11.060  68.452  1.00  0.00    -0.182 C  
BRANCH  11  12
HETATM   12  N   UNL     1      -8.507  11.535  68.637  1.00  0.00    -0.263 NA 
HETATM   13  H   UNL     1      -7.932  10.828  69.095  1.00  0.00     0.000 HD 
BRANCH  12  14
HETATM   14  C   UNL     1      -7.892  11.982  67.368  1.00  0.00    -0.162 C  
BRANCH  14  15
HETATM   15  C   UNL     1      -6.473  12.556  67.572  1.00  0.00    -0.153 C  
HETATM   16  O   UNL     1      -5.644  12.177  66.469  1.00  0.00    -0.478 OA 
HETATM   17  H   UNL     1      -4.771  12.531  66.595  1.00  0.00     0.000 HD 
BRANCH  15  18
HETATM   18  C   UNL     1      -6.531  14.082  67.711  1.00  0.00    -0.170 C  
BRANCH  18  19
HETATM   19  O   UNL     1      -7.834  14.571  67.410  1.00  0.00    -0.180 OA 
BRANCH  19  20
HETATM   20  C   UNL     1      -8.052  15.901  67.679  1.00  0.00    -0.144 A  
HETATM   21  C   UNL     1      -7.210  16.948  67.259  1.00  0.00    -0.196 A  
HETATM   22  C   UNL     1      -7.508  18.277  67.542  1.00  0.00    -0.216 A  
HETATM   23  C   UNL     1      -8.655  18.621  68.254  1.00  0.00    -0.347 A  
HETATM   24  C   UNL     1      -9.485  17.576  68.679  1.00  0.00    -0.278 A  
HETATM   25  C   UNL     1      -9.214  16.232  68.417  1.00  0.00    -0.203 A  
HETATM   26  C   UNL     1     -10.265  15.463  69.020  1.00  0.00    -0.233 A  
HETATM   27  C   UNL     1     -10.539  14.082  69.118  1.00  0.00    -0.149 A  
HETATM   28  C   UNL     1     -11.688  13.649  69.789  1.00  0.00    -0.364 A  
HETATM   29  C   UNL     1     -12.561  14.571  70.359  1.00  0.00    -0.405 A  
HETATM   30  C   UNL     1     -12.313  15.945  70.281  1.00  0.00    -0.224 A  
HETATM   31  C   UNL     1     -11.155  16.357  69.608  1.00  0.00    -0.306 A  
HETATM   32  N   UNL     1     -10.663  17.619  69.390  1.00  0.00    -0.274 NA 
HETATM   33  H   UNL     1     -11.111  18.476  69.713  1.00  0.00     0.000 HD 
ENDBRANCH  19  20
ENDBRANCH  18  19
ENDBRANCH  15  18
ENDBRANCH  14  15
ENDBRANCH  12  14
ENDBRANCH  11  12
ENDBRANCH  10  11
ENDBRANCH   9  10
ENDBRANCH   8   9
ENDBRANCH   2   3
TORSDOF 10
ENDMDL
MODEL      362
REMARK 921   NORMALIZED FREE ENERGY PREDICTED BY IDOCK:   -3.42 KCAL/MOL
REMARK 922        TOTAL FREE ENERGY PREDICTED BY IDOCK:   -7.27 KCAL/MOL
REMARK 923 INTER-LIGAND FREE ENERGY PREDICTED BY IDOCK:   -6.60 KCAL/MOL
REMARK 924 INTRA-LIGAND FREE ENERGY PREDICTED BY IDOCK:   -0.67 KCAL/MOL
REMARK 927      BINDING AFFINITY PREDICTED BY RF-SCORE:    0.00 PKD
ROOT
HETATM    1  C   UNL     1     -12.406  12.815  64.749  1.00  0.00    -0.478 C  
HETATM    2  O   UNL     1     -12.499  14.174  65.169  1.00  0.00    -0.436 OA 
ENDROOT
BRANCH   2   3
HETATM    3  C   UNL     1     -11.444  14.656  65.901  1.00  0.00    -0.338 A  
HETATM    4  C   UNL     1     -10.433  15.428  65.304  1.00  0.00    -0.440 A  
HETATM    5  C   UNL     1      -9.390  15.957  66.063  1.00  0.00    -0.385 A  
HETATM    6  C   UNL     1      -9.326  15.700  67.426  1.00  0.00    -0.214 A  
HETATM    7  C   UNL     1     -10.294  14.894  68.022  1.00  0.00    -0.244 A  
HETATM    8  C   UNL     1     -11.352  14.355  67.274  1.00  0.00    -0.342 A  
BRANCH   8   9
HETATM    9  O   UNL     1     -12.194  13.594  68.050  1.00  0.00    -0.323 OA 
BRANCH   9  10
HETATM   10  C   UNL     1     -11.657  12.407  68.621  1.00  0.00    -0.319 C  
BRANCH  10  11
HETATM   11  C   UNL     1     -11.468  11.334  67.536  1.00  0.00    -0.246 C  
BRANCH  11  12
HETATM   12  N   UNL     1     -10.295  10.467  67.755  1.00  0.00    -0.192 NA 
HETATM   13  H   UNL     1      -9.541  10.696  67.107  1.00  0.00     0.000 HD 
BRANCH  12  14
HETATM   14  C   UNL     1      -9.823  10.502  69.156  1.00  0.00    -0.218 C  
BRANCH  14  15
HETATM   15  C   UNL     1      -9.936   9.127  69.850  1.00  0.00    -0.197 C  
HETATM   16  O   UNL     1     -11.317   8.795  70.024  1.00  0.00    -0.423 OA 
HETATM   17  H   UNL     1     -11.387   7.949  70.450  1.00  0.00     0.000 HD 
BRANCH  15  18
HETATM   18  C   UNL     1      -9.218   8.054  69.022  1.00  0.00    -0.148 C  
BRANCH  18  19
HETATM   19  O   UNL     1      -9.052   6.857  69.775  1.00  0.00    -0.144 OA 
BRANCH  19  20
HETATM   20  C   UNL     1      -7.841   6.715  70.411  1.00  0.00    -0.106 A  
HETATM   21  C   UNL     1      -6.636   7.293  69.971  1.00  0.00    -0.046 A  
HETATM   22  C   UNL     1      -5.451   7.131  70.683  1.00  0.00    -0.024 A  
HETATM   23  C   UNL     1      -5.416   6.388  71.862  1.00  0.00    -0.031 A  
HETATM   24  C   UNL     1      -6.615   5.807  72.291  1.00  0.00    -0.062 A  
HETATM   25  C   UNL     1      -7.820   5.944  71.600  1.00  0.00    -0.106 A  
HETATM   26  C   UNL     1      -8.811   5.202  72.325  1.00  0.00    -0.134 A  
HETATM   27  C   UNL     1     -10.185   4.944  72.126  1.00  0.00    -0.257 A  
HETATM   28  C   UNL     1     -10.884   4.162  73.051  1.00  0.00    -0.252 A  
HETATM   29  C   UNL     1     -10.234   3.638  74.166  1.00  0.00    -0.227 A  
HETATM   30  C   UNL     1      -8.873   3.873  74.385  1.00  0.00    -0.097 A  
HETATM   31  C   UNL     1      -8.191   4.655  73.444  1.00  0.00    -0.103 A  
HETATM   32  N   UNL     1      -6.873   5.033  73.399  1.00  0.00    -0.072 NA 
HETATM   33  H   UNL     1      -6.175   4.773  74.097  1.00  0.00     0.000 HD 
ENDBRANCH  19  20
ENDBRANCH  18  19
ENDBRANCH  15  18
ENDBRANCH  14  15
ENDBRANCH  12  14
ENDBRANCH  11  12
ENDBRANCH  10  11
ENDBRANCH   9  10
ENDBRANCH   8   9
ENDBRANCH   2   3
TORSDOF 10
ENDMDL
MODEL      363
REMARK 921   NORMALIZED FREE ENERGY PREDICTED BY IDOCK:   -3.41 KCAL/MOL
REMARK 922        TOTAL FREE ENERGY PREDICTED BY IDOCK:   -7.25 KCAL/MOL
REMARK 923 INTER-LIGAND FREE ENERGY PREDICTED BY IDOCK:   -5.95 KCAL/MOL
REMARK 924 INTRA-LIGAND FREE ENERGY PREDICTED BY IDOCK:   -1.30 KCAL/MOL
REMARK 927      BINDING AFFINITY PREDICTED BY RF-SCORE:    0.00 PKD
ROOT
HETATM    1  C   UNL     1     -11.906  11.524  68.848  1.00  0.00    -0.341 C  
HETATM    2  O   UNL     1     -11.893  11.412  67.427  1.00  0.00    -0.609 OA 
ENDROOT
BRANCH   2   3
HETATM    3  C   UNL     1     -11.411  12.496  66.738  1.00  0.00    -0.362 A  
HETATM    4  C   UNL     1     -12.260  13.306  65.965  1.00  0.00    -0.483 A  
HETATM    5  C   UNL     1     -11.772  14.436  65.309  1.00  0.00    -0.364 A  
HETATM    6  C   UNL     1     -10.424  14.758  65.393  1.00  0.00    -0.401 A  
HETATM    7  C   UNL     1      -9.562  13.934  66.115  1.00  0.00    -0.249 A  
HETATM    8  C   UNL     1     -10.035  12.795  66.784  1.00  0.00    -0.237 A  
BRANCH   8   9
HETATM    9  O   UNL     1      -9.026  12.125  67.435  1.00  0.00    -0.167 OA 
BRANCH   9  10
HETATM   10  C   UNL     1      -7.815  11.919  66.719  1.00  0.00    -0.070 C  
BRANCH  10  11
HETATM   11  C   UNL     1      -6.617  11.945  67.683  1.00  0.00    -0.099 C  
BRANCH  11  12
HETATM   12  N   UNL     1      -6.109  10.607  68.037  1.00  0.00    -0.047 NA 
HETATM   13  H   UNL     1      -5.491  10.243  67.312  1.00  0.00     0.000 HD 
BRANCH  12  14
HETATM   14  C   UNL     1      -5.448  10.589  69.360  1.00  0.00    -0.037 C  
BRANCH  14  15
HETATM   15  C   UNL     1      -6.226   9.749  70.396  1.00  0.00    -0.082 C  
HETATM   16  O   UNL     1      -7.435  10.429  70.747  1.00  0.00    -0.362 OA 
HETATM   17  H   UNL     1      -7.914   9.911  71.384  1.00  0.00     0.000 HD 
BRANCH  15  18
HETATM   18  C   UNL     1      -6.529   8.356  69.829  1.00  0.00    -0.036 C  
BRANCH  18  19
HETATM   19  O   UNL     1      -7.808   8.328  69.205  1.00  0.00    -0.102 OA 
BRANCH  19  20
HETATM   20  C   UNL     1      -8.676   7.363  69.660  1.00  0.00    -0.137 A  
HETATM   21  C   UNL     1      -9.145   7.273  70.983  1.00  0.00    -0.153 A  
HETATM   22  C   UNL     1     -10.047   6.286  71.368  1.00  0.00    -0.222 A  
HETATM   23  C   UNL     1     -10.520   5.348  70.453  1.00  0.00    -0.345 A  
HETATM   24  C   UNL     1     -10.043   5.435  69.139  1.00  0.00    -0.223 A  
HETATM   25  C   UNL     1      -9.134   6.409  68.720  1.00  0.00    -0.125 A  
HETATM   26  C   UNL     1      -8.868   6.169  67.331  1.00  0.00    -0.106 A  
HETATM   27  C   UNL     1      -8.038   6.786  66.369  1.00  0.00    -0.110 A  
HETATM   28  C   UNL     1      -8.013   6.297  65.059  1.00  0.00    -0.120 A  
HETATM   29  C   UNL     1      -8.801   5.207  64.698  1.00  0.00    -0.080 A  
HETATM   30  C   UNL     1      -9.629   4.573  65.630  1.00  0.00    -0.191 A  
HETATM   31  C   UNL     1      -9.636   5.077  66.938  1.00  0.00    -0.154 A  
HETATM   32  N   UNL     1     -10.331   4.655  68.042  1.00  0.00     0.064 NA 
HETATM   33  H   UNL     1     -10.977   3.865  68.050  1.00  0.00     0.000 HD 
ENDBRANCH  19  20
ENDBRANCH  18  19
ENDBRANCH  15  18
ENDBRANCH  14  15
ENDBRANCH  12  14
ENDBRANCH  11  12
ENDBRANCH  10  11
ENDBRANCH   9  10
ENDBRANCH   8   9
ENDBRANCH   2   3
TORSDOF 10
ENDMDL
MODEL      364
REMARK 921   NORMALIZED FREE ENERGY PREDICTED BY IDOCK:   -3.41 KCAL/MOL
REMARK 922        TOTAL FREE ENERGY PREDICTED BY IDOCK:   -7.25 KCAL/MOL
REMARK 923 INTER-LIGAND FREE ENERGY PREDICTED BY IDOCK:   -6.28 KCAL/MOL
REMARK 924 INTRA-LIGAND FREE ENERGY PREDICTED BY IDOCK:   -0.97 KCAL/MOL
REMARK 927      BINDING AFFINITY PREDICTED BY RF-SCORE:    0.00 PKD
ROOT
HETATM    1  C   UNL     1      -5.808  10.762  65.934  1.00  0.00    -0.142 C  
HETATM    2  O   UNL     1      -6.795   9.901  66.499  1.00  0.00    -0.081 OA 
ENDROOT
BRANCH   2   3
HETATM    3  C   UNL     1      -6.460   8.574  66.592  1.00  0.00    -0.060 A  
HETATM    4  C   UNL     1      -6.226   7.798  65.444  1.00  0.00    -0.038 A  
HETATM    5  C   UNL     1      -5.836   6.463  65.548  1.00  0.00    -0.025 A  
HETATM    6  C   UNL     1      -5.700   5.876  66.798  1.00  0.00    -0.017 A  
HETATM    7  C   UNL     1      -5.979   6.620  67.943  1.00  0.00    -0.024 A  
HETATM    8  C   UNL     1      -6.369   7.965  67.859  1.00  0.00    -0.051 A  
BRANCH   8   9
HETATM    9  O   UNL     1      -6.592   8.514  69.100  1.00  0.00    -0.046 OA 
BRANCH   9  10
HETATM   10  C   UNL     1      -7.327   7.733  70.034  1.00  0.00    -0.075 C  
BRANCH  10  11
HETATM   11  C   UNL     1      -8.719   7.400  69.470  1.00  0.00    -0.137 C  
BRANCH  11  12
HETATM   12  N   UNL     1      -9.676   8.519  69.546  1.00  0.00    -0.174 NA 
HETATM   13  H   UNL     1      -9.204   9.392  69.784  1.00  0.00     0.000 HD 
BRANCH  12  14
HETATM   14  C   UNL     1     -10.472   8.662  68.308  1.00  0.00    -0.184 C  
BRANCH  14  15
HETATM   15  C   UNL     1     -10.683  10.140  67.913  1.00  0.00    -0.269 C  
HETATM   16  O   UNL     1     -11.997  10.553  68.301  1.00  0.00    -0.790 OA 
HETATM   17  H   UNL     1     -12.127  11.462  68.058  1.00  0.00     0.000 HD 
BRANCH  15  18
HETATM   18  C   UNL     1      -9.617  11.024  68.571  1.00  0.00    -0.187 C  
BRANCH  18  19
HETATM   19  O   UNL     1      -8.950  11.824  67.601  1.00  0.00    -0.160 OA 
BRANCH  19  20
HETATM   20  C   UNL     1      -9.145  13.181  67.708  1.00  0.00    -0.200 A  
HETATM   21  C   UNL     1      -8.570  13.993  68.704  1.00  0.00    -0.100 A  
HETATM   22  C   UNL     1      -8.788  15.367  68.734  1.00  0.00    -0.196 A  
HETATM   23  C   UNL     1      -9.584  15.991  67.776  1.00  0.00    -0.219 A  
HETATM   24  C   UNL     1     -10.161  15.178  66.792  1.00  0.00    -0.264 A  
HETATM   25  C   UNL     1      -9.970  13.796  66.735  1.00  0.00    -0.270 A  
HETATM   26  C   UNL     1     -10.726  13.310  65.617  1.00  0.00    -0.292 A  
HETATM   27  C   UNL     1     -10.948  12.030  65.064  1.00  0.00    -0.355 A  
HETATM   28  C   UNL     1     -11.759  11.895  63.932  1.00  0.00    -0.509 A  
HETATM   29  C   UNL     1     -12.346  13.014  63.348  1.00  0.00    -0.478 A  
HETATM   30  C   UNL     1     -12.147  14.293  63.877  1.00  0.00    -0.247 A  
HETATM   31  C   UNL     1     -11.336  14.405  65.014  1.00  0.00    -0.373 A  
HETATM   32  N   UNL     1     -10.981  15.514  65.739  1.00  0.00    -0.313 NA 
HETATM   33  H   UNL     1     -11.286  16.464  65.526  1.00  0.00     0.000 HD 
ENDBRANCH  19  20
ENDBRANCH  18  19
ENDBRANCH  15  18
ENDBRANCH  14  15
ENDBRANCH  12  14
ENDBRANCH  11  12
ENDBRANCH  10  11
ENDBRANCH   9  10
ENDBRANCH   8   9
ENDBRANCH   2   3
TORSDOF 10
ENDMDL
MODEL      365
REMARK 921   NORMALIZED FREE ENERGY PREDICTED BY IDOCK:   -3.41 KCAL/MOL
REMARK 922        TOTAL FREE ENERGY PREDICTED BY IDOCK:   -7.24 KCAL/MOL
REMARK 923 INTER-LIGAND FREE ENERGY PREDICTED BY IDOCK:   -6.25 KCAL/MOL
REMARK 924 INTRA-LIGAND FREE ENERGY PREDICTED BY IDOCK:   -1.00 KCAL/MOL
REMARK 927      BINDING AFFINITY PREDICTED BY RF-SCORE:    0.00 PKD
ROOT
HETATM    1  C   UNL     1      -9.271  10.226  62.708  1.00  0.00    -0.297 C  
HETATM    2  O   UNL     1      -8.543   9.854  63.876  1.00  0.00    -0.162 OA 
ENDROOT
BRANCH   2   3
HETATM    3  C   UNL     1      -8.350   8.509  64.067  1.00  0.00    -0.093 A  
HETATM    4  C   UNL     1      -8.225   7.628  62.980  1.00  0.00    -0.000 A  
HETATM    5  C   UNL     1      -7.977   6.271  63.181  1.00  0.00    -0.098 A  
HETATM    6  C   UNL     1      -7.879   5.768  64.472  1.00  0.00    -0.113 A  
HETATM    7  C   UNL     1      -8.052   6.622  65.559  1.00  0.00    -0.124 A  
HETATM    8  C   UNL     1      -8.298   7.991  65.377  1.00  0.00    -0.153 A  
BRANCH   8   9
HETATM    9  O   UNL     1      -8.435   8.653  66.573  1.00  0.00    -0.109 OA 
BRANCH   9  10
HETATM   10  C   UNL     1      -7.708   8.145  67.684  1.00  0.00    -0.102 C  
BRANCH  10  11
HETATM   11  C   UNL     1      -6.471   9.019  67.955  1.00  0.00    -0.057 C  
BRANCH  11  12
HETATM   12  N   UNL     1      -6.764  10.242  68.726  1.00  0.00    -0.052 NA 
HETATM   13  H   UNL     1      -6.311  10.218  69.640  1.00  0.00     0.000 HD 
BRANCH  12  14
HETATM   14  C   UNL     1      -6.407  11.471  67.985  1.00  0.00    -0.050 C  
BRANCH  14  15
HETATM   15  C   UNL     1      -7.589  12.460  67.883  1.00  0.00    -0.130 C  
HETATM   16  O   UNL     1      -7.284  13.466  66.912  1.00  0.00    -0.339 OA 
HETATM   17  H   UNL     1      -8.012  14.074  66.849  1.00  0.00     0.000 HD 
BRANCH  15  18
HETATM   18  C   UNL     1      -8.875  11.713  67.507  1.00  0.00    -0.158 C  
BRANCH  18  19
HETATM   19  O   UNL     1      -9.907  12.626  67.147  1.00  0.00    -0.206 OA 
BRANCH  19  20
HETATM   20  C   UNL     1     -10.726  13.037  68.170  1.00  0.00    -0.242 A  
HETATM   21  C   UNL     1     -11.360  12.173  69.081  1.00  0.00    -0.333 A  
HETATM   22  C   UNL     1     -12.155  12.661  70.114  1.00  0.00    -0.368 A  
HETATM   23  C   UNL     1     -12.351  14.031  70.284  1.00  0.00    -0.425 A  
HETATM   24  C   UNL     1     -11.725  14.888  69.370  1.00  0.00    -0.319 A  
HETATM   25  C   UNL     1     -10.927  14.431  68.320  1.00  0.00    -0.259 A  
HETATM   26  C   UNL     1     -10.483  15.587  67.593  1.00  0.00    -0.279 A  
HETATM   27  C   UNL     1      -9.684  15.777  66.444  1.00  0.00    -0.305 A  
HETATM   28  C   UNL     1      -9.429  17.073  65.985  1.00  0.00    -0.195 A  
HETATM   29  C   UNL     1      -9.956  18.175  66.654  1.00  0.00    -0.363 A  
HETATM   30  C   UNL     1     -10.754  18.016  67.791  1.00  0.00    -0.350 A  
HETATM   31  C   UNL     1     -11.001  16.709  68.232  1.00  0.00    -0.341 A  
HETATM   32  N   UNL     1     -11.744  16.262  69.294  1.00  0.00    -0.224 NA 
HETATM   33  H   UNL     1     -12.245  16.868  69.944  1.00  0.00     0.000 HD 
ENDBRANCH  19  20
ENDBRANCH  18  19
ENDBRANCH  15  18
ENDBRANCH  14  15
ENDBRANCH  12  14
ENDBRANCH  11  12
ENDBRANCH  10  11
ENDBRANCH   9  10
ENDBRANCH   8   9
ENDBRANCH   2   3
TORSDOF 10
ENDMDL
MODEL      366
REMARK 921   NORMALIZED FREE ENERGY PREDICTED BY IDOCK:   -3.40 KCAL/MOL
REMARK 922        TOTAL FREE ENERGY PREDICTED BY IDOCK:   -7.24 KCAL/MOL
REMARK 923 INTER-LIGAND FREE ENERGY PREDICTED BY IDOCK:   -6.04 KCAL/MOL
REMARK 924 INTRA-LIGAND FREE ENERGY PREDICTED BY IDOCK:   -1.20 KCAL/MOL
REMARK 927      BINDING AFFINITY PREDICTED BY RF-SCORE:    0.00 PKD
ROOT
HETATM    1  C   UNL     1      -5.666   6.581  64.351  1.00  0.00    -0.030 C  
HETATM    2  O   UNL     1      -5.728   6.530  65.774  1.00  0.00    -0.023 OA 
ENDROOT
BRANCH   2   3
HETATM    3  C   UNL     1      -5.892   5.286  66.329  1.00  0.00    -0.018 A  
HETATM    4  C   UNL     1      -5.422   4.131  65.681  1.00  0.00    -0.010 A  
HETATM    5  C   UNL     1      -5.547   2.875  66.275  1.00  0.00    -0.017 A  
HETATM    6  C   UNL     1      -6.167   2.750  67.511  1.00  0.00    -0.028 A  
HETATM    7  C   UNL     1      -6.683   3.882  68.140  1.00  0.00    -0.046 A  
HETATM    8  C   UNL     1      -6.564   5.154  67.560  1.00  0.00    -0.054 A  
BRANCH   8   9
HETATM    9  O   UNL     1      -7.135   6.131  68.341  1.00  0.00    -0.077 OA 
BRANCH   9  10
HETATM   10  C   UNL     1      -6.264   6.901  69.160  1.00  0.00    -0.027 C  
BRANCH  10  11
HETATM   11  C   UNL     1      -7.058   7.982  69.912  1.00  0.00    -0.057 C  
BRANCH  11  12
HETATM   12  N   UNL     1      -6.998   9.312  69.280  1.00  0.00    -0.053 NA 
HETATM   13  H   UNL     1      -7.014   9.239  68.263  1.00  0.00     0.000 HD 
BRANCH  12  14
HETATM   14  C   UNL     1      -8.065  10.214  69.767  1.00  0.00    -0.154 C  
BRANCH  14  15
HETATM   15  C   UNL     1      -9.476   9.619  69.562  1.00  0.00    -0.199 C  
HETATM   16  O   UNL     1     -10.452  10.519  70.095  1.00  0.00    -0.438 OA 
HETATM   17  H   UNL     1     -11.320  10.154  69.969  1.00  0.00     0.000 HD 
BRANCH  15  18
HETATM   18  C   UNL     1      -9.731   9.358  68.073  1.00  0.00    -0.145 C  
BRANCH  18  19
HETATM   19  O   UNL     1      -9.218  10.420  67.275  1.00  0.00    -0.142 OA 
BRANCH  19  20
HETATM   20  C   UNL     1      -9.141  10.171  65.925  1.00  0.00    -0.156 A  
HETATM   21  C   UNL     1      -8.349   9.163  65.344  1.00  0.00    -0.147 A  
HETATM   22  C   UNL     1      -8.342   8.947  63.970  1.00  0.00    -0.168 A  
HETATM   23  C   UNL     1      -9.123   9.724  63.116  1.00  0.00    -0.270 A  
HETATM   24  C   UNL     1      -9.902  10.732  63.697  1.00  0.00    -0.350 A  
HETATM   25  C   UNL     1      -9.929  10.980  65.070  1.00  0.00    -0.340 A  
HETATM   26  C   UNL     1     -10.815  12.088  65.283  1.00  0.00    -0.340 A  
HETATM   27  C   UNL     1     -11.233  12.805  66.425  1.00  0.00    -0.339 A  
HETATM   28  C   UNL     1     -12.139  13.862  66.287  1.00  0.00    -0.484 A  
HETATM   29  C   UNL     1     -12.631  14.210  65.031  1.00  0.00    -0.399 A  
HETATM   30  C   UNL     1     -12.230  13.520  63.882  1.00  0.00    -0.458 A  
HETATM   31  C   UNL     1     -11.318  12.468  64.043  1.00  0.00    -0.405 A  
HETATM   32  N   UNL     1     -10.754  11.638  63.108  1.00  0.00    -0.667 NA 
HETATM   33  H   UNL     1     -10.941  11.687  62.106  1.00  0.00     0.000 HD 
ENDBRANCH  19  20
ENDBRANCH  18  19
ENDBRANCH  15  18
ENDBRANCH  14  15
ENDBRANCH  12  14
ENDBRANCH  11  12
ENDBRANCH  10  11
ENDBRANCH   9  10
ENDBRANCH   8   9
ENDBRANCH   2   3
TORSDOF 10
ENDMDL
MODEL      367
REMARK 921   NORMALIZED FREE ENERGY PREDICTED BY IDOCK:   -3.39 KCAL/MOL
REMARK 922        TOTAL FREE ENERGY PREDICTED BY IDOCK:   -7.22 KCAL/MOL
REMARK 923 INTER-LIGAND FREE ENERGY PREDICTED BY IDOCK:   -5.43 KCAL/MOL
REMARK 924 INTRA-LIGAND FREE ENERGY PREDICTED BY IDOCK:   -1.79 KCAL/MOL
REMARK 927      BINDING AFFINITY PREDICTED BY RF-SCORE:    0.00 PKD
ROOT
HETATM    1  C   UNL     1     -11.733  15.047  69.091  1.00  0.00    -0.319 C  
HETATM    2  O   UNL     1     -11.754  13.847  68.320  1.00  0.00    -0.320 OA 
ENDROOT
BRANCH   2   3
HETATM    3  C   UNL     1     -12.025  12.691  69.007  1.00  0.00    -0.236 A  
HETATM    4  C   UNL     1     -12.254  12.701  70.392  1.00  0.00    -0.368 A  
HETATM    5  C   UNL     1     -12.579  11.529  71.075  1.00  0.00    -0.457 A  
HETATM    6  C   UNL     1     -12.651  10.325  70.388  1.00  0.00    -0.277 A  
HETATM    7  C   UNL     1     -12.375  10.293  69.023  1.00  0.00     0.645 A  
HETATM    8  C   UNL     1     -12.050  11.461  68.319  1.00  0.00    -0.009 A  
BRANCH   8   9
HETATM    9  O   UNL     1     -11.817  11.212  66.987  1.00  0.00    -0.411 OA 
BRANCH   9  10
HETATM   10  C   UNL     1     -10.704  10.388  66.665  1.00  0.00    -0.128 C  
BRANCH  10  11
HETATM   11  C   UNL     1     -10.174  10.734  65.263  1.00  0.00    -0.285 C  
BRANCH  11  12
HETATM   12  N   UNL     1      -8.724  10.997  65.222  1.00  0.00    -0.341 NA 
HETATM   13  H   UNL     1      -8.310  10.924  66.152  1.00  0.00     0.000 HD 
BRANCH  12  14
HETATM   14  C   UNL     1      -8.022  10.126  64.254  1.00  0.00    -0.155 C  
BRANCH  14  15
HETATM   15  C   UNL     1      -8.830   8.855  63.914  1.00  0.00     0.078 C  
HETATM   16  O   UNL     1      -8.944   8.731  62.493  1.00  0.00    -0.430 OA 
HETATM   17  H   UNL     1      -9.441   7.948  62.284  1.00  0.00     0.000 HD 
BRANCH  15  18
HETATM   18  C   UNL     1      -8.153   7.618  64.517  1.00  0.00    -0.098 C  
BRANCH  18  19
HETATM   19  O   UNL     1      -8.216   7.645  65.939  1.00  0.00    -0.117 OA 
BRANCH  19  20
HETATM   20  C   UNL     1      -8.736   6.522  66.536  1.00  0.00    -0.134 A  
HETATM   21  C   UNL     1      -8.884   5.276  65.899  1.00  0.00    -0.145 A  
HETATM   22  C   UNL     1      -9.391   4.171  66.575  1.00  0.00    -0.184 A  
HETATM   23  C   UNL     1      -9.771   4.258  67.913  1.00  0.00    -0.172 A  
HETATM   24  C   UNL     1      -9.631   5.502  68.541  1.00  0.00    -0.127 A  
HETATM   25  C   UNL     1      -9.131   6.632  67.892  1.00  0.00    -0.114 A  
HETATM   26  C   UNL     1      -9.156   7.710  68.839  1.00  0.00    -0.140 A  
HETATM   27  C   UNL     1      -8.805   9.076  68.781  1.00  0.00    -0.137 A  
HETATM   28  C   UNL     1      -8.948   9.877  69.919  1.00  0.00    -0.231 A  
HETATM   29  C   UNL     1      -9.432   9.335  71.107  1.00  0.00    -0.287 A  
HETATM   30  C   UNL     1      -9.791   7.986  71.192  1.00  0.00    -0.198 A  
HETATM   31  C   UNL     1      -9.645   7.203  70.039  1.00  0.00    -0.164 A  
HETATM   32  N   UNL     1      -9.923   5.876  69.833  1.00  0.00    -0.172 NA 
HETATM   33  H   UNL     1     -10.299   5.248  70.544  1.00  0.00     0.000 HD 
ENDBRANCH  19  20
ENDBRANCH  18  19
ENDBRANCH  15  18
ENDBRANCH  14  15
ENDBRANCH  12  14
ENDBRANCH  11  12
ENDBRANCH  10  11
ENDBRANCH   9  10
ENDBRANCH   8   9
ENDBRANCH   2   3
TORSDOF 10
ENDMDL
MODEL      368
REMARK 921   NORMALIZED FREE ENERGY PREDICTED BY IDOCK:   -3.39 KCAL/MOL
REMARK 922        TOTAL FREE ENERGY PREDICTED BY IDOCK:   -7.22 KCAL/MOL
REMARK 923 INTER-LIGAND FREE ENERGY PREDICTED BY IDOCK:   -6.13 KCAL/MOL
REMARK 924 INTRA-LIGAND FREE ENERGY PREDICTED BY IDOCK:   -1.08 KCAL/MOL
REMARK 927      BINDING AFFINITY PREDICTED BY RF-SCORE:    0.00 PKD
ROOT
HETATM    1  C   UNL     1      -9.814   9.842  66.076  1.00  0.00    -0.274 C  
HETATM    2  O   UNL     1     -10.712   9.145  66.937  1.00  0.00    -0.203 OA 
ENDROOT
BRANCH   2   3
HETATM    3  C   UNL     1     -10.449   9.227  68.281  1.00  0.00    -0.215 A  
HETATM    4  C   UNL     1      -9.461   8.429  68.881  1.00  0.00    -0.147 A  
HETATM    5  C   UNL     1      -9.163   8.554  70.238  1.00  0.00    -0.164 A  
HETATM    6  C   UNL     1      -9.868   9.459  71.021  1.00  0.00    -0.317 A  
HETATM    7  C   UNL     1     -10.885  10.220  70.449  1.00  0.00    -0.320 A  
HETATM    8  C   UNL     1     -11.197  10.110  69.085  1.00  0.00    -0.183 A  
BRANCH   8   9
HETATM    9  O   UNL     1     -12.226  10.947  68.724  1.00  0.00    -0.518 OA 
BRANCH   9  10
HETATM   10  C   UNL     1     -11.877  12.253  68.283  1.00  0.00    -0.310 C  
BRANCH  10  11
HETATM   11  C   UNL     1     -12.251  12.431  66.802  1.00  0.00     0.179 C  
BRANCH  11  12
HETATM   12  N   UNL     1     -12.397  13.839  66.389  1.00  0.00    -0.434 NA 
HETATM   13  H   UNL     1     -11.856  14.458  66.993  1.00  0.00     0.000 HD 
BRANCH  12  14
HETATM   14  C   UNL     1     -12.051  14.045  64.966  1.00  0.00    -0.415 C  
BRANCH  14  15
HETATM   15  C   UNL     1     -11.159  15.287  64.752  1.00  0.00    -0.394 C  
HETATM   16  O   UNL     1     -11.972  16.391  64.340  1.00  0.00    -0.418 OA 
HETATM   17  H   UNL     1     -11.423  17.155  64.209  1.00  0.00     0.000 HD 
BRANCH  15  18
HETATM   18  C   UNL     1     -10.397  15.623  66.040  1.00  0.00    -0.335 C  
BRANCH  18  19
HETATM   19  O   UNL     1      -9.215  16.363  65.754  1.00  0.00    -0.464 OA 
BRANCH  19  20
HETATM   20  C   UNL     1      -8.619  16.978  66.829  1.00  0.00    -0.237 A  
HETATM   21  C   UNL     1      -8.783  18.334  67.165  1.00  0.00    -0.256 A  
HETATM   22  C   UNL     1      -8.172  18.884  68.287  1.00  0.00    -0.362 A  
HETATM   23  C   UNL     1      -7.372  18.107  69.124  1.00  0.00    -0.129 A  
HETATM   24  C   UNL     1      -7.203  16.759  68.781  1.00  0.00    -0.217 A  
HETATM   25  C   UNL     1      -7.797  16.177  67.660  1.00  0.00    -0.165 A  
HETATM   26  C   UNL     1      -7.382  14.804  67.627  1.00  0.00    -0.206 A  
HETATM   27  C   UNL     1      -7.625  13.726  66.748  1.00  0.00     0.720 A  
HETATM   28  C   UNL     1      -7.059  12.474  67.013  1.00  0.00     0.031 A  
HETATM   29  C   UNL     1      -6.258  12.286  68.137  1.00  0.00    -0.058 A  
HETATM   30  C   UNL     1      -5.998  13.337  69.022  1.00  0.00    -0.083 A  
HETATM   31  C   UNL     1      -6.571  14.583  68.735  1.00  0.00    -0.088 A  
HETATM   32  N   UNL     1      -6.479  15.773  69.411  1.00  0.00    -0.154 NA 
HETATM   33  H   UNL     1      -5.943  15.909  70.269  1.00  0.00     0.000 HD 
ENDBRANCH  19  20
ENDBRANCH  18  19
ENDBRANCH  15  18
ENDBRANCH  14  15
ENDBRANCH  12  14
ENDBRANCH  11  12
ENDBRANCH  10  11
ENDBRANCH   9  10
ENDBRANCH   8   9
ENDBRANCH   2   3
TORSDOF 10
ENDMDL
MODEL      369
REMARK 921   NORMALIZED FREE ENERGY PREDICTED BY IDOCK:   -3.38 KCAL/MOL
REMARK 922        TOTAL FREE ENERGY PREDICTED BY IDOCK:   -7.20 KCAL/MOL
REMARK 923 INTER-LIGAND FREE ENERGY PREDICTED BY IDOCK:   -5.58 KCAL/MOL
REMARK 924 INTRA-LIGAND FREE ENERGY PREDICTED BY IDOCK:   -1.62 KCAL/MOL
REMARK 927      BINDING AFFINITY PREDICTED BY RF-SCORE:    0.00 PKD
ROOT
HETATM    1  C   UNL     1     -11.027  19.303  66.097  1.00  0.00    -0.101 C  
HETATM    2  O   UNL     1     -10.522  18.577  67.217  1.00  0.00    -0.384 OA 
ENDROOT
BRANCH   2   3
HETATM    3  C   UNL     1      -9.294  17.987  67.053  1.00  0.00    -0.265 A  
HETATM    4  C   UNL     1      -8.108  18.671  67.367  1.00  0.00    -0.258 A  
HETATM    5  C   UNL     1      -6.867  18.047  67.246  1.00  0.00    -0.203 A  
HETATM    6  C   UNL     1      -6.790  16.741  66.782  1.00  0.00    -0.265 A  
HETATM    7  C   UNL     1      -7.955  16.069  66.418  1.00  0.00    -0.197 A  
HETATM    8  C   UNL     1      -9.213  16.679  66.536  1.00  0.00    -0.270 A  
BRANCH   8   9
HETATM    9  O   UNL     1     -10.228  15.847  66.127  1.00  0.00    -0.286 OA 
BRANCH   9  10
HETATM   10  C   UNL     1     -10.676  15.979  64.784  1.00  0.00    -0.204 C  
BRANCH  10  11
HETATM   11  C   UNL     1     -11.933  15.124  64.556  1.00  0.00    -0.319 C  
BRANCH  11  12
HETATM   12  N   UNL     1     -11.796  14.141  63.466  1.00  0.00    -0.651 NA 
HETATM   13  H   UNL     1     -11.718  14.604  62.560  1.00  0.00     0.000 HD 
BRANCH  12  14
HETATM   14  C   UNL     1     -10.670  13.209  63.688  1.00  0.00     0.088 C  
BRANCH  14  15
HETATM   15  C   UNL     1     -11.062  12.017  64.589  1.00  0.00    -0.322 C  
HETATM   16  O   UNL     1     -12.486  11.965  64.715  1.00  0.00    -0.304 OA 
HETATM   17  H   UNL     1     -12.728  11.232  65.269  1.00  0.00     0.000 HD 
BRANCH  15  18
HETATM   18  C   UNL     1     -10.519  10.707  64.004  1.00  0.00    -0.080 C  
BRANCH  18  19
HETATM   19  O   UNL     1      -9.664  10.051  64.934  1.00  0.00    -0.296 OA 
BRANCH  19  20
HETATM   20  C   UNL     1      -8.322  10.078  64.637  1.00  0.00    -0.165 A  
HETATM   21  C   UNL     1      -7.727   9.376  63.573  1.00  0.00    -0.122 A  
HETATM   22  C   UNL     1      -6.364   9.473  63.311  1.00  0.00    -0.100 A  
HETATM   23  C   UNL     1      -5.536  10.275  64.095  1.00  0.00    -0.140 A  
HETATM   24  C   UNL     1      -6.131  10.965  65.159  1.00  0.00     0.127 A  
HETATM   25  C   UNL     1      -7.493  10.885  65.453  1.00  0.00     0.149 A  
HETATM   26  C   UNL     1      -7.724  11.703  66.610  1.00  0.00    -0.065 A  
HETATM   27  C   UNL     1      -8.865  12.008  67.384  1.00  0.00    -0.178 A  
HETATM   28  C   UNL     1      -8.749  12.873  68.478  1.00  0.00    -0.038 A  
HETATM   29  C   UNL     1      -7.516  13.433  68.806  1.00  0.00    -0.061 A  
HETATM   30  C   UNL     1      -6.370  13.145  68.060  1.00  0.00    -0.127 A  
HETATM   31  C   UNL     1      -6.508  12.273  66.971  1.00  0.00    -0.048 A  
HETATM   32  N   UNL     1      -5.568  11.813  66.085  1.00  0.00    -0.498 NA 
HETATM   33  H   UNL     1      -4.579  12.066  66.108  1.00  0.00     0.000 HD 
ENDBRANCH  19  20
ENDBRANCH  18  19
ENDBRANCH  15  18
ENDBRANCH  14  15
ENDBRANCH  12  14
ENDBRANCH  11  12
ENDBRANCH  10  11
ENDBRANCH   9  10
ENDBRANCH   8   9
ENDBRANCH   2   3
TORSDOF 10
ENDMDL
MODEL      370
REMARK 921   NORMALIZED FREE ENERGY PREDICTED BY IDOCK:   -3.34 KCAL/MOL
REMARK 922        TOTAL FREE ENERGY PREDICTED BY IDOCK:   -7.14 KCAL/MOL
REMARK 923 INTER-LIGAND FREE ENERGY PREDICTED BY IDOCK:   -6.10 KCAL/MOL
REMARK 924 INTRA-LIGAND FREE ENERGY PREDICTED BY IDOCK:   -1.04 KCAL/MOL
REMARK 927      BINDING AFFINITY PREDICTED BY RF-SCORE:    0.00 PKD
ROOT
HETATM    1  C   UNL     1     -12.388  12.621  65.022  1.00  0.00    -0.497 C  
HETATM    2  O   UNL     1     -12.554  13.928  65.567  1.00  0.00    -0.489 OA 
ENDROOT
BRANCH   2   3
HETATM    3  C   UNL     1     -11.433  14.505  66.109  1.00  0.00    -0.357 A  
HETATM    4  C   UNL     1     -10.445  15.084  65.295  1.00  0.00    -0.428 A  
HETATM    5  C   UNL     1      -9.334  15.713  65.855  1.00  0.00    -0.357 A  
HETATM    6  C   UNL     1      -9.179  15.750  67.234  1.00  0.00    -0.217 A  
HETATM    7  C   UNL     1     -10.127  15.135  68.050  1.00  0.00    -0.222 A  
HETATM    8  C   UNL     1     -11.253  14.499  67.506  1.00  0.00    -0.321 A  
BRANCH   8   9
HETATM    9  O   UNL     1     -12.060  13.961  68.480  1.00  0.00    -0.362 OA 
BRANCH   9  10
HETATM   10  C   UNL     1     -11.531  12.880  69.238  1.00  0.00    -0.282 C  
BRANCH  10  11
HETATM   11  C   UNL     1     -11.801  11.546  68.522  1.00  0.00    -0.297 C  
BRANCH  11  12
HETATM   12  N   UNL     1     -10.668  11.068  67.708  1.00  0.00    -0.210 NA 
HETATM   13  H   UNL     1     -10.559  11.628  66.862  1.00  0.00     0.000 HD 
BRANCH  12  14
HETATM   14  C   UNL     1      -9.406  11.013  68.478  1.00  0.00    -0.188 C  
BRANCH  14  15
HETATM   15  C   UNL     1      -8.920   9.566  68.709  1.00  0.00    -0.133 C  
HETATM   16  O   UNL     1      -9.773   8.660  68.002  1.00  0.00    -0.150 OA 
HETATM   17  H   UNL     1      -9.474   7.769  68.144  1.00  0.00     0.000 HD 
BRANCH  15  18
HETATM   18  C   UNL     1      -7.465   9.414  68.250  1.00  0.00    -0.078 C  
BRANCH  18  19
HETATM   19  O   UNL     1      -6.914   8.182  68.704  1.00  0.00    -0.065 OA 
BRANCH  19  20
HETATM   20  C   UNL     1      -6.960   7.970  70.061  1.00  0.00    -0.048 A  
HETATM   21  C   UNL     1      -6.466   8.867  71.026  1.00  0.00    -0.062 A  
HETATM   22  C   UNL     1      -6.574   8.600  72.387  1.00  0.00    -0.066 A  
HETATM   23  C   UNL     1      -7.178   7.431  72.846  1.00  0.00    -0.079 A  
HETATM   24  C   UNL     1      -7.661   6.537  71.882  1.00  0.00    -0.094 A  
HETATM   25  C   UNL     1      -7.564   6.770  70.509  1.00  0.00    -0.091 A  
HETATM   26  C   UNL     1      -8.142   5.636  69.846  1.00  0.00    -0.095 A  
HETATM   27  C   UNL     1      -8.321   5.276  68.493  1.00  0.00    -0.089 A  
HETATM   28  C   UNL     1      -8.946   4.066  68.174  1.00  0.00    -0.156 A  
HETATM   29  C   UNL     1      -9.393   3.216  69.183  1.00  0.00    -0.228 A  
HETATM   30  C   UNL     1      -9.225   3.545  70.532  1.00  0.00    -0.213 A  
HETATM   31  C   UNL     1      -8.592   4.760  70.829  1.00  0.00    -0.105 A  
HETATM   32  N   UNL     1      -8.290   5.324  72.042  1.00  0.00    -0.120 NA 
HETATM   33  H   UNL     1      -8.505   4.899  72.945  1.00  0.00     0.000 HD 
ENDBRANCH  19  20
ENDBRANCH  18  19
ENDBRANCH  15  18
ENDBRANCH  14  15
ENDBRANCH  12  14
ENDBRANCH  11  12
ENDBRANCH  10  11
ENDBRANCH   9  10
ENDBRANCH   8   9
ENDBRANCH   2   3
TORSDOF 10
ENDMDL
MODEL      371
REMARK 921   NORMALIZED FREE ENERGY PREDICTED BY IDOCK:   -3.34 KCAL/MOL
REMARK 922        TOTAL FREE ENERGY PREDICTED BY IDOCK:   -7.14 KCAL/MOL
REMARK 923 INTER-LIGAND FREE ENERGY PREDICTED BY IDOCK:   -6.45 KCAL/MOL
REMARK 924 INTRA-LIGAND FREE ENERGY PREDICTED BY IDOCK:   -0.68 KCAL/MOL
REMARK 927      BINDING AFFINITY PREDICTED BY RF-SCORE:    0.00 PKD
ROOT
HETATM    1  C   UNL     1      -6.611  11.061  68.433  1.00  0.00    -0.058 C  
HETATM    2  O   UNL     1      -7.664  10.171  68.069  1.00  0.00    -0.088 OA 
ENDROOT
BRANCH   2   3
HETATM    3  C   UNL     1      -7.604   8.910  68.606  1.00  0.00    -0.096 A  
HETATM    4  C   UNL     1      -7.116   7.823  67.862  1.00  0.00    -0.086 A  
HETATM    5  C   UNL     1      -7.011   6.554  68.431  1.00  0.00    -0.080 A  
HETATM    6  C   UNL     1      -7.417   6.346  69.742  1.00  0.00    -0.085 A  
HETATM    7  C   UNL     1      -7.951   7.405  70.474  1.00  0.00    -0.099 A  
HETATM    8  C   UNL     1      -8.062   8.689  69.920  1.00  0.00    -0.111 A  
BRANCH   8   9
HETATM    9  O   UNL     1      -8.610   9.586  70.806  1.00  0.00    -0.220 OA 
BRANCH   9  10
HETATM   10  C   UNL     1      -9.782   9.179  71.501  1.00  0.00    -0.243 C  
BRANCH  10  11
HETATM   11  C   UNL     1     -11.030   9.458  70.647  1.00  0.00    -0.290 C  
BRANCH  11  12
HETATM   12  N   UNL     1     -11.092  10.832  70.114  1.00  0.00    -0.430 NA 
HETATM   13  H   UNL     1     -10.291  11.383  70.422  1.00  0.00     0.000 HD 
BRANCH  12  14
HETATM   14  C   UNL     1     -11.223  10.857  68.641  1.00  0.00    -0.267 C  
BRANCH  14  15
HETATM   15  C   UNL     1     -11.097  12.284  68.064  1.00  0.00    -0.239 C  
HETATM   16  O   UNL     1     -11.846  13.192  68.877  1.00  0.00    -0.300 OA 
HETATM   17  H   UNL     1     -11.769  14.071  68.522  1.00  0.00     0.000 HD 
BRANCH  15  18
HETATM   18  C   UNL     1      -9.623  12.702  67.996  1.00  0.00    -0.213 C  
BRANCH  18  19
HETATM   19  O   UNL     1      -9.238  12.990  66.656  1.00  0.00    -0.245 OA 
BRANCH  19  20
HETATM   20  C   UNL     1      -9.843  14.083  66.081  1.00  0.00    -0.303 A  
HETATM   21  C   UNL     1     -10.920  14.016  65.179  1.00  0.00    -0.357 A  
HETATM   22  C   UNL     1     -11.504  15.167  64.658  1.00  0.00    -0.363 A  
HETATM   23  C   UNL     1     -11.041  16.432  65.014  1.00  0.00    -0.216 A  
HETATM   24  C   UNL     1      -9.962  16.495  65.905  1.00  0.00    -0.317 A  
HETATM   25  C   UNL     1      -9.350  15.361  66.442  1.00  0.00    -0.331 A  
HETATM   26  C   UNL     1      -8.283  15.817  67.286  1.00  0.00    -0.211 A  
HETATM   27  C   UNL     1      -7.307  15.166  68.073  1.00  0.00    -0.133 A  
HETATM   28  C   UNL     1      -6.387  15.925  68.804  1.00  0.00    -0.114 A  
HETATM   29  C   UNL     1      -6.428  17.317  68.760  1.00  0.00    -0.194 A  
HETATM   30  C   UNL     1      -7.381  17.987  67.987  1.00  0.00    -0.232 A  
HETATM   31  C   UNL     1      -8.290  17.208  67.259  1.00  0.00    -0.192 A  
HETATM   32  N   UNL     1      -9.307  17.589  66.422  1.00  0.00    -0.339 NA 
HETATM   33  H   UNL     1      -9.547  18.558  66.209  1.00  0.00     0.000 HD 
ENDBRANCH  19  20
ENDBRANCH  18  19
ENDBRANCH  15  18
ENDBRANCH  14  15
ENDBRANCH  12  14
ENDBRANCH  11  12
ENDBRANCH  10  11
ENDBRANCH   9  10
ENDBRANCH   8   9
ENDBRANCH   2   3
TORSDOF 10
ENDMDL
MODEL      372
REMARK 921   NORMALIZED FREE ENERGY PREDICTED BY IDOCK:   -3.33 KCAL/MOL
REMARK 922        TOTAL FREE ENERGY PREDICTED BY IDOCK:   -7.13 KCAL/MOL
REMARK 923 INTER-LIGAND FREE ENERGY PREDICTED BY IDOCK:   -5.71 KCAL/MOL
REMARK 924 INTRA-LIGAND FREE ENERGY PREDICTED BY IDOCK:   -1.41 KCAL/MOL
REMARK 927      BINDING AFFINITY PREDICTED BY RF-SCORE:    0.00 PKD
ROOT
HETATM    1  C   UNL     1     -10.162   8.554  67.490  1.00  0.00    -0.242 C  
HETATM    2  O   UNL     1      -8.984   7.814  67.180  1.00  0.00    -0.122 OA 
ENDROOT
BRANCH   2   3
HETATM    3  C   UNL     1      -8.406   8.077  65.964  1.00  0.00    -0.126 A  
HETATM    4  C   UNL     1      -9.062   8.858  64.998  1.00  0.00    -0.110 A  
HETATM    5  C   UNL     1      -8.447   9.164  63.784  1.00  0.00    -0.187 A  
HETATM    6  C   UNL     1      -7.179   8.672  63.506  1.00  0.00    -0.095 A  
HETATM    7  C   UNL     1      -6.538   7.855  64.435  1.00  0.00    -0.056 A  
HETATM    8  C   UNL     1      -7.139   7.538  65.663  1.00  0.00    -0.061 A  
BRANCH   8   9
HETATM    9  O   UNL     1      -6.341   6.724  66.431  1.00  0.00    -0.042 OA 
BRANCH   9  10
HETATM   10  C   UNL     1      -5.261   7.338  67.123  1.00  0.00    -0.018 C  
BRANCH  10  11
HETATM   11  C   UNL     1      -5.777   8.060  68.379  1.00  0.00    -0.033 C  
BRANCH  11  12
HETATM   12  N   UNL     1      -6.212   9.447  68.132  1.00  0.00    -0.053 NA 
HETATM   13  H   UNL     1      -7.001   9.477  67.486  1.00  0.00     0.000 HD 
BRANCH  12  14
HETATM   14  C   UNL     1      -6.521  10.170  69.385  1.00  0.00    -0.050 C  
BRANCH  14  15
HETATM   15  C   UNL     1      -6.829  11.664  69.141  1.00  0.00    -0.111 C  
HETATM   16  O   UNL     1      -5.731  12.269  68.453  1.00  0.00    -0.053 OA 
HETATM   17  H   UNL     1      -5.921  13.188  68.303  1.00  0.00     0.000 HD 
BRANCH  15  18
HETATM   18  C   UNL     1      -8.126  11.814  68.337  1.00  0.00    -0.150 C  
BRANCH  18  19
HETATM   19  O   UNL     1      -7.990  12.817  67.335  1.00  0.00    -0.165 OA 
BRANCH  19  20
HETATM   20  C   UNL     1      -8.691  13.979  67.553  1.00  0.00    -0.198 A  
HETATM   21  C   UNL     1      -8.380  14.923  68.550  1.00  0.00    -0.160 A  
HETATM   22  C   UNL     1      -9.116  16.095  68.695  1.00  0.00    -0.218 A  
HETATM   23  C   UNL     1     -10.192  16.377  67.854  1.00  0.00    -0.268 A  
HETATM   24  C   UNL     1     -10.503  15.431  66.870  1.00  0.00    -0.295 A  
HETATM   25  C   UNL     1      -9.790  14.243  66.700  1.00  0.00    -0.288 A  
HETATM   26  C   UNL     1     -10.409  13.529  65.620  1.00  0.00    -0.303 A  
HETATM   27  C   UNL     1     -10.166  12.284  65.000  1.00  0.00    -0.312 A  
HETATM   28  C   UNL     1     -10.974  11.871  63.935  1.00  0.00    -0.473 A  
HETATM   29  C   UNL     1     -12.014  12.680  63.483  1.00  0.00    -0.630 A  
HETATM   30  C   UNL     1     -12.279  13.916  64.081  1.00  0.00    -0.436 A  
HETATM   31  C   UNL     1     -11.461  14.308  65.149  1.00  0.00    -0.351 A  
HETATM   32  N   UNL     1     -11.497  15.444  65.917  1.00  0.00    -0.108 NA 
HETATM   33  H   UNL     1     -12.172  16.200  65.798  1.00  0.00     0.000 HD 
ENDBRANCH  19  20
ENDBRANCH  18  19
ENDBRANCH  15  18
ENDBRANCH  14  15
ENDBRANCH  12  14
ENDBRANCH  11  12
ENDBRANCH  10  11
ENDBRANCH   9  10
ENDBRANCH   8   9
ENDBRANCH   2   3
TORSDOF 10
ENDMDL
MODEL      373
REMARK 921   NORMALIZED FREE ENERGY PREDICTED BY IDOCK:   -3.32 KCAL/MOL
REMARK 922        TOTAL FREE ENERGY PREDICTED BY IDOCK:   -7.11 KCAL/MOL
REMARK 923 INTER-LIGAND FREE ENERGY PREDICTED BY IDOCK:   -6.26 KCAL/MOL
REMARK 924 INTRA-LIGAND FREE ENERGY PREDICTED BY IDOCK:   -0.85 KCAL/MOL
REMARK 927      BINDING AFFINITY PREDICTED BY RF-SCORE:    0.00 PKD
ROOT
HETATM    1  C   UNL     1     -11.005  16.325  68.344  1.00  0.00    -0.351 C  
HETATM    2  O   UNL     1     -10.418  16.651  67.086  1.00  0.00    -0.312 OA 
ENDROOT
BRANCH   2   3
HETATM    3  C   UNL     1      -9.560  17.721  67.077  1.00  0.00    -0.284 A  
HETATM    4  C   UNL     1     -10.022  19.029  67.302  1.00  0.00    -0.410 A  
HETATM    5  C   UNL     1      -9.137  20.106  67.342  1.00  0.00    -0.475 A  
HETATM    6  C   UNL     1      -7.781  19.896  67.130  1.00  0.00    -0.310 A  
HETATM    7  C   UNL     1      -7.317  18.612  66.854  1.00  0.00    -0.222 A  
HETATM    8  C   UNL     1      -8.192  17.515  66.813  1.00  0.00    -0.244 A  
BRANCH   8   9
HETATM    9  O   UNL     1      -7.533  16.343  66.529  1.00  0.00    -0.245 OA 
BRANCH   9  10
HETATM   10  C   UNL     1      -6.686  15.811  67.540  1.00  0.00    -0.190 C  
BRANCH  10  11
HETATM   11  C   UNL     1      -7.519  15.386  68.761  1.00  0.00    -0.136 C  
BRANCH  11  12
HETATM   12  N   UNL     1      -8.080  14.027  68.656  1.00  0.00    -0.201 NA 
HETATM   13  H   UNL     1      -9.062  14.053  68.379  1.00  0.00     0.000 HD 
BRANCH  12  14
HETATM   14  C   UNL     1      -7.294  13.163  67.748  1.00  0.00    -0.143 C  
BRANCH  14  15
HETATM   15  C   UNL     1      -8.181  12.173  66.963  1.00  0.00    -0.164 C  
HETATM   16  O   UNL     1      -7.350  11.220  66.293  1.00  0.00    -0.289 OA 
HETATM   17  H   UNL     1      -7.896  10.610  65.810  1.00  0.00     0.000 HD 
BRANCH  15  18
HETATM   18  C   UNL     1      -9.161  11.471  67.911  1.00  0.00    -0.168 C  
BRANCH  18  19
HETATM   19  O   UNL     1      -9.167  10.065  67.686  1.00  0.00    -0.136 OA 
BRANCH  19  20
HETATM   20  C   UNL     1      -9.359   9.282  68.799  1.00  0.00    -0.139 A  
HETATM   21  C   UNL     1      -9.816   9.760  70.041  1.00  0.00    -0.295 A  
HETATM   22  C   UNL     1     -10.016   8.904  71.120  1.00  0.00    -0.342 A  
HETATM   23  C   UNL     1      -9.770   7.536  71.008  1.00  0.00    -0.170 A  
HETATM   24  C   UNL     1      -9.306   7.066  69.773  1.00  0.00    -0.146 A  
HETATM   25  C   UNL     1      -9.089   7.898  68.672  1.00  0.00    -0.136 A  
HETATM   26  C   UNL     1      -8.600   7.070  67.607  1.00  0.00    -0.122 A  
HETATM   27  C   UNL     1      -8.189   7.320  66.279  1.00  0.00    -0.123 A  
HETATM   28  C   UNL     1      -7.760   6.258  65.476  1.00  0.00    -0.095 A  
HETATM   29  C   UNL     1      -7.735   4.959  65.977  1.00  0.00    -0.091 A  
HETATM   30  C   UNL     1      -8.133   4.683  67.289  1.00  0.00    -0.102 A  
HETATM   31  C   UNL     1      -8.555   5.762  68.078  1.00  0.00    -0.105 A  
HETATM   32  N   UNL     1      -8.983   5.787  69.381  1.00  0.00    -0.115 NA 
HETATM   33  H   UNL     1      -9.052   4.965  69.982  1.00  0.00     0.000 HD 
ENDBRANCH  19  20
ENDBRANCH  18  19
ENDBRANCH  15  18
ENDBRANCH  14  15
ENDBRANCH  12  14
ENDBRANCH  11  12
ENDBRANCH  10  11
ENDBRANCH   9  10
ENDBRANCH   8   9
ENDBRANCH   2   3
TORSDOF 10
ENDMDL
MODEL      374
REMARK 921   NORMALIZED FREE ENERGY PREDICTED BY IDOCK:   -3.32 KCAL/MOL
REMARK 922        TOTAL FREE ENERGY PREDICTED BY IDOCK:   -7.10 KCAL/MOL
REMARK 923 INTER-LIGAND FREE ENERGY PREDICTED BY IDOCK:   -6.24 KCAL/MOL
REMARK 924 INTRA-LIGAND FREE ENERGY PREDICTED BY IDOCK:   -0.86 KCAL/MOL
REMARK 927      BINDING AFFINITY PREDICTED BY RF-SCORE:    0.00 PKD
ROOT
HETATM    1  C   UNL     1      -6.282   7.288  70.755  1.00  0.00    -0.035 C  
HETATM    2  O   UNL     1      -6.588   5.990  71.260  1.00  0.00    -0.047 OA 
ENDROOT
BRANCH   2   3
HETATM    3  C   UNL     1      -7.641   5.914  72.136  1.00  0.00    -0.101 A  
HETATM    4  C   UNL     1      -7.467   5.439  73.447  1.00  0.00    -0.096 A  
HETATM    5  C   UNL     1      -8.531   5.412  74.348  1.00  0.00    -0.109 A  
HETATM    6  C   UNL     1      -9.791   5.833  73.944  1.00  0.00    -0.183 A  
HETATM    7  C   UNL     1      -9.988   6.258  72.632  1.00  0.00    -0.183 A  
HETATM    8  C   UNL     1      -8.929   6.295  71.712  1.00  0.00    -0.140 A  
BRANCH   8   9
HETATM    9  O   UNL     1      -9.335   6.745  70.479  1.00  0.00    -0.162 OA 
BRANCH   9  10
HETATM   10  C   UNL     1     -10.182   7.887  70.450  1.00  0.00    -0.197 C  
BRANCH  10  11
HETATM   11  C   UNL     1      -9.426   9.122  70.968  1.00  0.00    -0.274 C  
BRANCH  11  12
HETATM   12  N   UNL     1      -8.928  10.007  69.900  1.00  0.00    -0.346 NA 
HETATM   13  H   UNL     1      -7.923   9.895  69.766  1.00  0.00     0.000 HD 
BRANCH  12  14
HETATM   14  C   UNL     1      -9.660   9.819  68.628  1.00  0.00    -0.151 C  
BRANCH  14  15
HETATM   15  C   UNL     1      -8.733   9.920  67.396  1.00  0.00    -0.128 C  
HETATM   16  O   UNL     1      -9.472   9.585  66.218  1.00  0.00    -0.176 OA 
HETATM   17  H   UNL     1      -8.902   9.648  65.460  1.00  0.00     0.000 HD 
BRANCH  15  18
HETATM   18  C   UNL     1      -8.145  11.333  67.288  1.00  0.00    -0.140 C  
BRANCH  18  19
HETATM   19  O   UNL     1      -8.958  12.276  67.977  1.00  0.00    -0.176 OA 
BRANCH  19  20
HETATM   20  C   UNL     1      -8.680  13.600  67.730  1.00  0.00    -0.184 A  
HETATM   21  C   UNL     1      -7.667  14.335  68.372  1.00  0.00    -0.134 A  
HETATM   22  C   UNL     1      -7.421  15.666  68.049  1.00  0.00    -0.134 A  
HETATM   23  C   UNL     1      -8.172  16.321  67.074  1.00  0.00    -0.238 A  
HETATM   24  C   UNL     1      -9.185  15.588  66.444  1.00  0.00    -0.305 A  
HETATM   25  C   UNL     1      -9.463  14.253  66.747  1.00  0.00    -0.287 A  
HETATM   26  C   UNL     1     -10.567  13.853  65.922  1.00  0.00    -0.293 A  
HETATM   27  C   UNL     1     -11.305  12.658  65.782  1.00  0.00    -0.370 A  
HETATM   28  C   UNL     1     -12.350  12.593  64.854  1.00  0.00    -0.563 A  
HETATM   29  C   UNL     1     -12.665  13.700  64.069  1.00  0.00     0.032 A  
HETATM   30  C   UNL     1     -11.954  14.897  64.190  1.00  0.00    -0.256 A  
HETATM   31  C   UNL     1     -10.914  14.942  65.128  1.00  0.00    -0.399 A  
HETATM   32  N   UNL     1     -10.070  15.970  65.462  1.00  0.00    -0.461 NA 
HETATM   33  H   UNL     1     -10.095  16.898  65.037  1.00  0.00     0.000 HD 
ENDBRANCH  19  20
ENDBRANCH  18  19
ENDBRANCH  15  18
ENDBRANCH  14  15
ENDBRANCH  12  14
ENDBRANCH  11  12
ENDBRANCH  10  11
ENDBRANCH   9  10
ENDBRANCH   8   9
ENDBRANCH   2   3
TORSDOF 10
ENDMDL
MODEL      375
REMARK 921   NORMALIZED FREE ENERGY PREDICTED BY IDOCK:   -3.31 KCAL/MOL
REMARK 922        TOTAL FREE ENERGY PREDICTED BY IDOCK:   -7.09 KCAL/MOL
REMARK 923 INTER-LIGAND FREE ENERGY PREDICTED BY IDOCK:   -6.98 KCAL/MOL
REMARK 924 INTRA-LIGAND FREE ENERGY PREDICTED BY IDOCK:   -0.11 KCAL/MOL
REMARK 927      BINDING AFFINITY PREDICTED BY RF-SCORE:    0.00 PKD
ROOT
HETATM    1  C   UNL     1      -8.562  19.255  66.251  1.00  0.00    -0.325 C  
HETATM    2  O   UNL     1      -8.827  18.648  67.514  1.00  0.00    -0.267 OA 
ENDROOT
BRANCH   2   3
HETATM    3  C   UNL     1      -7.770  18.011  68.113  1.00  0.00    -0.272 A  
HETATM    4  C   UNL     1      -6.548  18.669  68.329  1.00  0.00    -0.233 A  
HETATM    5  C   UNL     1      -5.496  18.032  68.985  1.00  0.00    -0.186 A  
HETATM    6  C   UNL     1      -5.638  16.718  69.410  1.00  0.00    -0.158 A  
HETATM    7  C   UNL     1      -6.827  16.037  69.157  1.00  0.00    -0.180 A  
HETATM    8  C   UNL     1      -7.898  16.662  68.501  1.00  0.00    -0.218 A  
BRANCH   8   9
HETATM    9  O   UNL     1      -8.973  15.819  68.353  1.00  0.00    -0.178 OA 
BRANCH   9  10
HETATM   10  C   UNL     1     -10.113  16.331  67.674  1.00  0.00    -0.260 C  
BRANCH  10  11
HETATM   11  C   UNL     1     -11.313  16.406  68.632  1.00  0.00    -0.289 C  
BRANCH  11  12
HETATM   12  N   UNL     1     -12.168  15.205  68.612  1.00  0.00    -0.597 NA 
HETATM   13  H   UNL     1     -13.153  15.451  68.716  1.00  0.00     0.000 HD 
BRANCH  12  14
HETATM   14  C   UNL     1     -11.949  14.380  67.404  1.00  0.00    -0.373 C  
BRANCH  14  15
HETATM   15  C   UNL     1     -11.213  13.059  67.719  1.00  0.00    -0.279 C  
HETATM   16  O   UNL     1     -12.171  12.053  68.060  1.00  0.00    -0.454 OA 
HETATM   17  H   UNL     1     -11.718  11.239  68.254  1.00  0.00     0.000 HD 
BRANCH  15  18
HETATM   18  C   UNL     1     -10.367  12.622  66.517  1.00  0.00    -0.242 C  
BRANCH  18  19
HETATM   19  O   UNL     1      -9.936  11.273  66.663  1.00  0.00    -0.200 OA 
BRANCH  19  20
HETATM   20  C   UNL     1      -8.900  11.068  67.544  1.00  0.00    -0.131 A  
HETATM   21  C   UNL     1      -8.025  12.074  67.994  1.00  0.00    -0.149 A  
HETATM   22  C   UNL     1      -7.015  11.800  68.911  1.00  0.00    -0.109 A  
HETATM   23  C   UNL     1      -6.834  10.516  69.420  1.00  0.00    -0.088 A  
HETATM   24  C   UNL     1      -7.702   9.516  68.963  1.00  0.00    -0.076 A  
HETATM   25  C   UNL     1      -8.721   9.754  68.039  1.00  0.00    -0.118 A  
HETATM   26  C   UNL     1      -9.377   8.500  67.801  1.00  0.00    -0.153 A  
HETATM   27  C   UNL     1     -10.446   8.093  66.973  1.00  0.00    -0.396 A  
HETATM   28  C   UNL     1     -10.858   6.756  66.980  1.00  0.00    -0.453 A  
HETATM   29  C   UNL     1     -10.221   5.826  67.799  1.00  0.00    -0.234 A  
HETATM   30  C   UNL     1      -9.157   6.200  68.625  1.00  0.00    -0.125 A  
HETATM   31  C   UNL     1      -8.757   7.543  68.599  1.00  0.00    -0.128 A  
HETATM   32  N   UNL     1      -7.754   8.179  69.285  1.00  0.00    -0.102 NA 
HETATM   33  H   UNL     1      -7.129   7.720  69.949  1.00  0.00     0.000 HD 
ENDBRANCH  19  20
ENDBRANCH  18  19
ENDBRANCH  15  18
ENDBRANCH  14  15
ENDBRANCH  12  14
ENDBRANCH  11  12
ENDBRANCH  10  11
ENDBRANCH   9  10
ENDBRANCH   8   9
ENDBRANCH   2   3
TORSDOF 10
ENDMDL
MODEL      376
REMARK 921   NORMALIZED FREE ENERGY PREDICTED BY IDOCK:   -3.30 KCAL/MOL
REMARK 922        TOTAL FREE ENERGY PREDICTED BY IDOCK:   -7.08 KCAL/MOL
REMARK 923 INTER-LIGAND FREE ENERGY PREDICTED BY IDOCK:   -6.16 KCAL/MOL
REMARK 924 INTRA-LIGAND FREE ENERGY PREDICTED BY IDOCK:   -0.92 KCAL/MOL
REMARK 927      BINDING AFFINITY PREDICTED BY RF-SCORE:    0.00 PKD
ROOT
HETATM    1  C   UNL     1     -10.723   4.882  65.896  1.00  0.00    -0.179 C  
HETATM    2  O   UNL     1      -9.344   4.961  66.250  1.00  0.00    -0.133 OA 
ENDROOT
BRANCH   2   3
HETATM    3  C   UNL     1      -8.451   4.965  65.208  1.00  0.00    -0.137 A  
HETATM    4  C   UNL     1      -8.793   4.439  63.951  1.00  0.00    -0.139 A  
HETATM    5  C   UNL     1      -7.898   4.493  62.883  1.00  0.00    -0.068 A  
HETATM    6  C   UNL     1      -6.638   5.048  63.062  1.00  0.00    -0.026 A  
HETATM    7  C   UNL     1      -6.268   5.527  64.317  1.00  0.00    -0.022 A  
HETATM    8  C   UNL     1      -7.156   5.484  65.403  1.00  0.00    -0.066 A  
BRANCH   8   9
HETATM    9  O   UNL     1      -6.597   6.007  66.545  1.00  0.00    -0.054 OA 
BRANCH   9  10
HETATM   10  C   UNL     1      -5.778   7.160  66.399  1.00  0.00    -0.030 C  
BRANCH  10  11
HETATM   11  C   UNL     1      -6.459   8.380  67.042  1.00  0.00    -0.057 C  
BRANCH  11  12
HETATM   12  N   UNL     1      -6.806   9.444  66.081  1.00  0.00    -0.084 NA 
HETATM   13  H   UNL     1      -6.158   9.454  65.292  1.00  0.00     0.000 HD 
BRANCH  12  14
HETATM   14  C   UNL     1      -8.208   9.348  65.619  1.00  0.00    -0.120 C  
BRANCH  14  15
HETATM   15  C   UNL     1      -8.691  10.645  64.934  1.00  0.00    -0.168 C  
HETATM   16  O   UNL     1      -8.201  10.683  63.590  1.00  0.00    -0.308 OA 
HETATM   17  H   UNL     1      -8.499  11.482  63.169  1.00  0.00     0.000 HD 
BRANCH  15  18
HETATM   18  C   UNL     1     -10.223  10.720  64.959  1.00  0.00    -0.306 C  
BRANCH  18  19
HETATM   19  O   UNL     1     -10.662  11.999  65.406  1.00  0.00    -0.269 OA 
BRANCH  19  20
HETATM   20  C   UNL     1     -11.003  12.083  66.735  1.00  0.00    -0.285 A  
HETATM   21  C   UNL     1     -11.320  10.979  67.548  1.00  0.00    -0.332 A  
HETATM   22  C   UNL     1     -11.628  11.136  68.896  1.00  0.00    -0.385 A  
HETATM   23  C   UNL     1     -11.633  12.396  69.491  1.00  0.00    -0.353 A  
HETATM   24  C   UNL     1     -11.326  13.493  68.676  1.00  0.00    -0.288 A  
HETATM   25  C   UNL     1     -11.019  13.373  67.320  1.00  0.00    -0.286 A  
HETATM   26  C   UNL     1     -10.785  14.697  66.820  1.00  0.00    -0.301 A  
HETATM   27  C   UNL     1     -10.461  15.225  65.551  1.00  0.00    -0.396 A  
HETATM   28  C   UNL     1     -10.290  16.605  65.397  1.00  0.00    -0.214 A  
HETATM   29  C   UNL     1     -10.437  17.460  66.488  1.00  0.00    -0.264 A  
HETATM   30  C   UNL     1     -10.762  16.965  67.754  1.00  0.00    -0.315 A  
HETATM   31  C   UNL     1     -10.933  15.580  67.885  1.00  0.00    -0.316 A  
HETATM   32  N   UNL     1     -11.259  14.832  68.987  1.00  0.00    -0.255 NA 
HETATM   33  H   UNL     1     -11.429  15.217  69.916  1.00  0.00     0.000 HD 
ENDBRANCH  19  20
ENDBRANCH  18  19
ENDBRANCH  15  18
ENDBRANCH  14  15
ENDBRANCH  12  14
ENDBRANCH  11  12
ENDBRANCH  10  11
ENDBRANCH   9  10
ENDBRANCH   8   9
ENDBRANCH   2   3
TORSDOF 10
ENDMDL
MODEL      377
REMARK 921   NORMALIZED FREE ENERGY PREDICTED BY IDOCK:   -3.28 KCAL/MOL
REMARK 922        TOTAL FREE ENERGY PREDICTED BY IDOCK:   -7.04 KCAL/MOL
REMARK 923 INTER-LIGAND FREE ENERGY PREDICTED BY IDOCK:   -5.89 KCAL/MOL
REMARK 924 INTRA-LIGAND FREE ENERGY PREDICTED BY IDOCK:   -1.15 KCAL/MOL
REMARK 927      BINDING AFFINITY PREDICTED BY RF-SCORE:    0.00 PKD
ROOT
HETATM    1  C   UNL     1     -10.631   5.723  69.266  1.00  0.00    -0.306 C  
HETATM    2  O   UNL     1      -9.357   5.119  69.475  1.00  0.00    -0.116 OA 
ENDROOT
BRANCH   2   3
HETATM    3  C   UNL     1      -8.936   4.242  68.507  1.00  0.00    -0.114 A  
HETATM    4  C   UNL     1      -9.178   2.863  68.616  1.00  0.00    -0.233 A  
HETATM    5  C   UNL     1      -8.792   1.984  67.604  1.00  0.00    -0.152 A  
HETATM    6  C   UNL     1      -8.135   2.467  66.480  1.00  0.00    -0.083 A  
HETATM    7  C   UNL     1      -7.844   3.827  66.383  1.00  0.00    -0.089 A  
HETATM    8  C   UNL     1      -8.226   4.726  67.390  1.00  0.00    -0.105 A  
BRANCH   8   9
HETATM    9  O   UNL     1      -7.847   6.015  67.099  1.00  0.00    -0.100 OA 
BRANCH   9  10
HETATM   10  C   UNL     1      -6.467   6.244  66.841  1.00  0.00    -0.046 C  
BRANCH  10  11
HETATM   11  C   UNL     1      -5.863   7.137  67.937  1.00  0.00    -0.026 C  
BRANCH  11  12
HETATM   12  N   UNL     1      -6.798   8.146  68.467  1.00  0.00    -0.066 NA 
HETATM   13  H   UNL     1      -7.759   7.937  68.195  1.00  0.00     0.000 HD 
BRANCH  12  14
HETATM   14  C   UNL     1      -6.681   8.306  69.933  1.00  0.00    -0.043 C  
BRANCH  14  15
HETATM   15  C   UNL     1      -7.270   9.645  70.427  1.00  0.00    -0.142 C  
HETATM   16  O   UNL     1      -6.757  10.714  69.627  1.00  0.00    -0.084 OA 
HETATM   17  H   UNL     1      -7.120  11.538  69.931  1.00  0.00     0.000 HD 
BRANCH  15  18
HETATM   18  C   UNL     1      -8.803   9.606  70.366  1.00  0.00    -0.178 C  
BRANCH  18  19
HETATM   19  O   UNL     1      -9.346   9.084  71.574  1.00  0.00    -0.266 OA 
BRANCH  19  20
HETATM   20  C   UNL     1     -10.715   8.955  71.607  1.00  0.00    -0.347 A  
HETATM   21  C   UNL     1     -11.620   9.972  71.251  1.00  0.00    -0.430 A  
HETATM   22  C   UNL     1     -12.995   9.762  71.280  1.00  0.00    -0.470 A  
HETATM   23  C   UNL     1     -13.527   8.532  71.664  1.00  0.00    -0.375 A  
HETATM   24  C   UNL     1     -12.623   7.526  72.027  1.00  0.00    -0.237 A  
HETATM   25  C   UNL     1     -11.239   7.704  72.015  1.00  0.00    -0.317 A  
HETATM   26  C   UNL     1     -10.650   6.474  72.463  1.00  0.00    -0.240 A  
HETATM   27  C   UNL     1      -9.323   6.043  72.680  1.00  0.00    -0.147 A  
HETATM   28  C   UNL     1      -9.083   4.739  73.128  1.00  0.00    -0.121 A  
HETATM   29  C   UNL     1     -10.143   3.866  73.359  1.00  0.00    -0.200 A  
HETATM   30  C   UNL     1     -11.467   4.268  73.156  1.00  0.00    -0.190 A  
HETATM   31  C   UNL     1     -11.686   5.579  72.712  1.00  0.00    -0.175 A  
HETATM   32  N   UNL     1     -12.859   6.236  72.443  1.00  0.00    -0.493 NA 
HETATM   33  H   UNL     1     -13.787   5.822  72.540  1.00  0.00     0.000 HD 
ENDBRANCH  19  20
ENDBRANCH  18  19
ENDBRANCH  15  18
ENDBRANCH  14  15
ENDBRANCH  12  14
ENDBRANCH  11  12
ENDBRANCH  10  11
ENDBRANCH   9  10
ENDBRANCH   8   9
ENDBRANCH   2   3
TORSDOF 10
ENDMDL
MODEL      378
REMARK 921   NORMALIZED FREE ENERGY PREDICTED BY IDOCK:   -3.27 KCAL/MOL
REMARK 922        TOTAL FREE ENERGY PREDICTED BY IDOCK:   -7.03 KCAL/MOL
REMARK 923 INTER-LIGAND FREE ENERGY PREDICTED BY IDOCK:   -7.17 KCAL/MOL
REMARK 924 INTRA-LIGAND FREE ENERGY PREDICTED BY IDOCK:    0.14 KCAL/MOL
REMARK 927      BINDING AFFINITY PREDICTED BY RF-SCORE:    0.00 PKD
ROOT
HETATM    1  C   UNL     1     -11.186   6.053  72.781  1.00  0.00    -0.261 C  
HETATM    2  O   UNL     1      -9.831   5.690  72.524  1.00  0.00    -0.161 OA 
ENDROOT
BRANCH   2   3
HETATM    3  C   UNL     1      -9.633   4.722  71.572  1.00  0.00    -0.160 A  
HETATM    4  C   UNL     1      -9.804   3.360  71.871  1.00  0.00    -0.238 A  
HETATM    5  C   UNL     1      -9.651   2.385  70.886  1.00  0.00    -0.188 A  
HETATM    6  C   UNL     1      -9.296   2.753  69.595  1.00  0.00    -0.198 A  
HETATM    7  C   UNL     1      -9.073   4.096  69.298  1.00  0.00    -0.188 A  
HETATM    8  C   UNL     1      -9.226   5.092  70.275  1.00  0.00    -0.139 A  
BRANCH   8   9
HETATM    9  O   UNL     1      -8.961   6.346  69.777  1.00  0.00    -0.140 OA 
BRANCH   9  10
HETATM   10  C   UNL     1      -9.115   7.444  70.667  1.00  0.00    -0.156 C  
BRANCH  10  11
HETATM   11  C   UNL     1      -7.826   8.283  70.703  1.00  0.00    -0.092 C  
BRANCH  11  12
HETATM   12  N   UNL     1      -8.046   9.723  70.474  1.00  0.00    -0.354 NA 
HETATM   13  H   UNL     1      -7.351  10.285  70.965  1.00  0.00     0.000 HD 
BRANCH  12  14
HETATM   14  C   UNL     1      -8.087  10.063  69.035  1.00  0.00    -0.118 C  
BRANCH  14  15
HETATM   15  C   UNL     1      -8.140  11.587  68.792  1.00  0.00    -0.093 C  
HETATM   16  O   UNL     1      -7.018  11.980  67.996  1.00  0.00    -0.073 OA 
HETATM   17  H   UNL     1      -7.051  12.918  67.846  1.00  0.00     0.000 HD 
BRANCH  15  18
HETATM   18  C   UNL     1      -9.457  11.970  68.105  1.00  0.00    -0.200 C  
BRANCH  18  19
HETATM   19  O   UNL     1      -9.221  12.833  66.998  1.00  0.00    -0.207 OA 
BRANCH  19  20
HETATM   20  C   UNL     1     -10.263  12.969  66.111  1.00  0.00    -0.284 A  
HETATM   21  C   UNL     1     -11.318  13.888  66.256  1.00  0.00    -0.329 A  
HETATM   22  C   UNL     1     -12.326  13.991  65.303  1.00  0.00    -0.480 A  
HETATM   23  C   UNL     1     -12.326  13.186  64.165  1.00  0.00    -0.418 A  
HETATM   24  C   UNL     1     -11.279  12.266  64.030  1.00  0.00    -0.392 A  
HETATM   25  C   UNL     1     -10.255  12.132  64.969  1.00  0.00    -0.312 A  
HETATM   26  C   UNL     1      -9.388  11.087  64.503  1.00  0.00    -0.227 A  
HETATM   27  C   UNL     1      -8.216  10.485  65.011  1.00  0.00    -0.120 A  
HETATM   28  C   UNL     1      -7.591   9.465  64.285  1.00  0.00    -0.115 A  
HETATM   29  C   UNL     1      -8.118   9.041  63.068  1.00  0.00    -0.167 A  
HETATM   30  C   UNL     1      -9.280   9.616  62.544  1.00  0.00    -0.226 A  
HETATM   31  C   UNL     1      -9.892  10.633  63.289  1.00  0.00    -0.312 A  
HETATM   32  N   UNL     1     -11.028  11.357  63.028  1.00  0.00    -0.825 NA 
HETATM   33  H   UNL     1     -11.611  11.236  62.199  1.00  0.00     0.000 HD 
ENDBRANCH  19  20
ENDBRANCH  18  19
ENDBRANCH  15  18
ENDBRANCH  14  15
ENDBRANCH  12  14
ENDBRANCH  11  12
ENDBRANCH  10  11
ENDBRANCH   9  10
ENDBRANCH   8   9
ENDBRANCH   2   3
TORSDOF 10
ENDMDL
MODEL      379
REMARK 921   NORMALIZED FREE ENERGY PREDICTED BY IDOCK:   -3.27 KCAL/MOL
REMARK 922        TOTAL FREE ENERGY PREDICTED BY IDOCK:   -7.02 KCAL/MOL
REMARK 923 INTER-LIGAND FREE ENERGY PREDICTED BY IDOCK:   -6.28 KCAL/MOL
REMARK 924 INTRA-LIGAND FREE ENERGY PREDICTED BY IDOCK:   -0.74 KCAL/MOL
REMARK 927      BINDING AFFINITY PREDICTED BY RF-SCORE:    0.00 PKD
ROOT
HETATM    1  C   UNL     1      -6.610   7.168  65.161  1.00  0.00    -0.047 C  
HETATM    2  O   UNL     1      -6.840   6.354  66.309  1.00  0.00    -0.054 OA 
ENDROOT
BRANCH   2   3
HETATM    3  C   UNL     1      -7.424   5.134  66.079  1.00  0.00    -0.082 A  
HETATM    4  C   UNL     1      -6.802   4.168  65.270  1.00  0.00    -0.053 A  
HETATM    5  C   UNL     1      -7.378   2.912  65.082  1.00  0.00    -0.067 A  
HETATM    6  C   UNL     1      -8.596   2.612  65.675  1.00  0.00    -0.109 A  
HETATM    7  C   UNL     1      -9.248   3.579  66.438  1.00  0.00    -0.179 A  
HETATM    8  C   UNL     1      -8.684   4.847  66.641  1.00  0.00    -0.108 A  
BRANCH   8   9
HETATM    9  O   UNL     1      -9.485   5.647  67.421  1.00  0.00    -0.112 OA 
BRANCH   9  10
HETATM   10  C   UNL     1      -9.323   5.550  68.831  1.00  0.00    -0.125 C  
BRANCH  10  11
HETATM   11  C   UNL     1     -10.153   6.636  69.536  1.00  0.00    -0.177 C  
BRANCH  11  12
HETATM   12  N   UNL     1      -9.655   8.006  69.313  1.00  0.00    -0.156 NA 
HETATM   13  H   UNL     1      -9.150   8.074  68.429  1.00  0.00     0.000 HD 
BRANCH  12  14
HETATM   14  C   UNL     1     -10.733   9.015  69.391  1.00  0.00    -0.191 C  
BRANCH  14  15
HETATM   15  C   UNL     1     -10.711   9.993  68.196  1.00  0.00    -0.239 C  
HETATM   16  O   UNL     1     -11.926  10.749  68.179  1.00  0.00    -0.775 OA 
HETATM   17  H   UNL     1     -11.912  11.351  67.443  1.00  0.00     0.000 HD 
BRANCH  15  18
HETATM   18  C   UNL     1      -9.493  10.921  68.291  1.00  0.00    -0.168 C  
BRANCH  18  19
HETATM   19  O   UNL     1      -9.892  12.254  68.591  1.00  0.00    -0.184 OA 
BRANCH  19  20
HETATM   20  C   UNL     1      -8.995  13.238  68.249  1.00  0.00    -0.176 A  
HETATM   21  C   UNL     1      -7.752  13.438  68.877  1.00  0.00     0.049 A  
HETATM   22  C   UNL     1      -6.879  14.437  68.459  1.00  0.00    -0.098 A  
HETATM   23  C   UNL     1      -7.205  15.279  67.397  1.00  0.00    -0.235 A  
HETATM   24  C   UNL     1      -8.447  15.083  66.780  1.00  0.00    -0.204 A  
HETATM   25  C   UNL     1      -9.349  14.094  67.178  1.00  0.00    -0.241 A  
HETATM   26  C   UNL     1     -10.505  14.212  66.336  1.00  0.00    -0.283 A  
HETATM   27  C   UNL     1     -11.738  13.528  66.259  1.00  0.00    -0.401 A  
HETATM   28  C   UNL     1     -12.676  13.897  65.289  1.00  0.00    -0.485 A  
HETATM   29  C   UNL     1     -12.401  14.934  64.400  1.00  0.00    -0.342 A  
HETATM   30  C   UNL     1     -11.190  15.631  64.456  1.00  0.00    -0.337 A  
HETATM   31  C   UNL     1     -10.267  15.249  65.438  1.00  0.00    -0.383 A  
HETATM   32  N   UNL     1      -9.025  15.755  65.727  1.00  0.00    -0.316 NA 
HETATM   33  H   UNL     1      -8.587  16.529  65.227  1.00  0.00     0.000 HD 
ENDBRANCH  19  20
ENDBRANCH  18  19
ENDBRANCH  15  18
ENDBRANCH  14  15
ENDBRANCH  12  14
ENDBRANCH  11  12
ENDBRANCH  10  11
ENDBRANCH   9  10
ENDBRANCH   8   9
ENDBRANCH   2   3
TORSDOF 10
ENDMDL
MODEL      380
REMARK 921   NORMALIZED FREE ENERGY PREDICTED BY IDOCK:   -3.25 KCAL/MOL
REMARK 922        TOTAL FREE ENERGY PREDICTED BY IDOCK:   -7.00 KCAL/MOL
REMARK 923 INTER-LIGAND FREE ENERGY PREDICTED BY IDOCK:   -5.82 KCAL/MOL
REMARK 924 INTRA-LIGAND FREE ENERGY PREDICTED BY IDOCK:   -1.18 KCAL/MOL
REMARK 927      BINDING AFFINITY PREDICTED BY RF-SCORE:    0.00 PKD
ROOT
HETATM    1  C   UNL     1      -9.128   4.913  70.850  1.00  0.00    -0.142 C  
HETATM    2  O   UNL     1      -9.513   6.095  71.548  1.00  0.00    -0.149 OA 
ENDROOT
BRANCH   2   3
HETATM    3  C   UNL     1      -8.640   7.151  71.478  1.00  0.00    -0.115 A  
HETATM    4  C   UNL     1      -7.636   7.333  72.445  1.00  0.00    -0.090 A  
HETATM    5  C   UNL     1      -6.720   8.379  72.339  1.00  0.00    -0.098 A  
HETATM    6  C   UNL     1      -6.810   9.275  71.283  1.00  0.00    -0.037 A  
HETATM    7  C   UNL     1      -7.832   9.136  70.346  1.00  0.00    -0.140 A  
HETATM    8  C   UNL     1      -8.761   8.088  70.433  1.00  0.00    -0.136 A  
BRANCH   8   9
HETATM    9  O   UNL     1      -9.682   8.130  69.413  1.00  0.00    -0.167 OA 
BRANCH   9  10
HETATM   10  C   UNL     1     -10.395   9.347  69.232  1.00  0.00    -0.208 C  
BRANCH  10  11
HETATM   11  C   UNL     1     -10.902   9.454  67.783  1.00  0.00    -0.159 C  
BRANCH  11  12
HETATM   12  N   UNL     1     -10.389  10.630  67.058  1.00  0.00    -0.220 NA 
HETATM   13  H   UNL     1     -10.360  11.452  67.661  1.00  0.00     0.000 HD 
BRANCH  12  14
HETATM   14  C   UNL     1      -9.069  10.376  66.439  1.00  0.00    -0.157 C  
BRANCH  14  15
HETATM   15  C   UNL     1      -8.018  11.433  66.842  1.00  0.00    -0.158 C  
HETATM   16  O   UNL     1      -6.937  11.409  65.904  1.00  0.00    -0.368 OA 
HETATM   17  H   UNL     1      -6.290  12.060  66.152  1.00  0.00     0.000 HD 
BRANCH  15  18
HETATM   18  C   UNL     1      -8.659  12.825  66.899  1.00  0.00    -0.137 C  
BRANCH  18  19
HETATM   19  O   UNL     1      -8.793  13.269  68.245  1.00  0.00    -0.179 OA 
BRANCH  19  20
HETATM   20  C   UNL     1      -9.822  14.149  68.486  1.00  0.00    -0.230 A  
HETATM   21  C   UNL     1     -11.146  13.768  68.772  1.00  0.00    -0.295 A  
HETATM   22  C   UNL     1     -12.132  14.714  69.035  1.00  0.00    -0.270 A  
HETATM   23  C   UNL     1     -11.842  16.077  69.025  1.00  0.00    -0.258 A  
HETATM   24  C   UNL     1     -10.525  16.452  68.731  1.00  0.00    -0.300 A  
HETATM   25  C   UNL     1      -9.513  15.531  68.456  1.00  0.00    -0.200 A  
HETATM   26  C   UNL     1      -8.320  16.281  68.184  1.00  0.00    -0.172 A  
HETATM   27  C   UNL     1      -6.999  15.930  67.830  1.00  0.00    -0.170 A  
HETATM   28  C   UNL     1      -6.044  16.934  67.636  1.00  0.00    -0.161 A  
HETATM   29  C   UNL     1      -6.388  18.274  67.791  1.00  0.00    -0.185 A  
HETATM   30  C   UNL     1      -7.690  18.651  68.137  1.00  0.00    -0.302 A  
HETATM   31  C   UNL     1      -8.632  17.630  68.322  1.00  0.00    -0.268 A  
HETATM   32  N   UNL     1      -9.962  17.705  68.650  1.00  0.00    -0.349 NA 
HETATM   33  H   UNL     1     -10.468  18.576  68.812  1.00  0.00     0.000 HD 
ENDBRANCH  19  20
ENDBRANCH  18  19
ENDBRANCH  15  18
ENDBRANCH  14  15
ENDBRANCH  12  14
ENDBRANCH  11  12
ENDBRANCH  10  11
ENDBRANCH   9  10
ENDBRANCH   8   9
ENDBRANCH   2   3
TORSDOF 10
ENDMDL
MODEL      381
REMARK 921   NORMALIZED FREE ENERGY PREDICTED BY IDOCK:   -3.24 KCAL/MOL
REMARK 922        TOTAL FREE ENERGY PREDICTED BY IDOCK:   -6.98 KCAL/MOL
REMARK 923 INTER-LIGAND FREE ENERGY PREDICTED BY IDOCK:   -7.00 KCAL/MOL
REMARK 924 INTRA-LIGAND FREE ENERGY PREDICTED BY IDOCK:    0.02 KCAL/MOL
REMARK 927      BINDING AFFINITY PREDICTED BY RF-SCORE:    0.00 PKD
ROOT
HETATM    1  C   UNL     1      -9.401   8.562  67.324  1.00  0.00    -0.149 C  
HETATM    2  O   UNL     1      -9.860   9.807  66.801  1.00  0.00    -0.185 OA 
ENDROOT
BRANCH   2   3
HETATM    3  C   UNL     1      -9.508  10.086  65.504  1.00  0.00    -0.237 A  
HETATM    4  C   UNL     1      -8.280   9.658  64.973  1.00  0.00    -0.137 A  
HETATM    5  C   UNL     1      -7.951   9.901  63.640  1.00  0.00    -0.147 A  
HETATM    6  C   UNL     1      -8.832  10.600  62.825  1.00  0.00    -0.275 A  
HETATM    7  C   UNL     1     -10.031  11.074  63.354  1.00  0.00    -0.428 A  
HETATM    8  C   UNL     1     -10.381  10.837  64.692  1.00  0.00    -0.324 A  
BRANCH   8   9
HETATM    9  O   UNL     1     -11.600  11.386  65.009  1.00  0.00    -0.053 OA 
BRANCH   9  10
HETATM   10  C   UNL     1     -12.496  11.644  63.936  1.00  0.00    -0.118 C  
BRANCH  10  11
HETATM   11  C   UNL     1     -13.370  12.869  64.257  1.00  0.00     0.790 C  
BRANCH  11  12
HETATM   12  N   UNL     1     -12.664  13.924  65.007  1.00  0.00    -0.691 NA 
HETATM   13  H   UNL     1     -11.919  13.531  65.583  1.00  0.00     0.000 HD 
BRANCH  12  14
HETATM   14  C   UNL     1     -12.148  14.992  64.124  1.00  0.00    -0.223 C  
BRANCH  14  15
HETATM   15  C   UNL     1     -10.693  15.383  64.461  1.00  0.00    -0.007 C  
HETATM   16  O   UNL     1     -10.687  16.620  65.179  1.00  0.00    -0.621 OA 
HETATM   17  H   UNL     1      -9.791  16.860  65.387  1.00  0.00     0.000 HD 
BRANCH  15  18
HETATM   18  C   UNL     1     -10.022  14.274  65.281  1.00  0.00    -0.279 C  
BRANCH  18  19
HETATM   19  O   UNL     1      -9.377  14.811  66.431  1.00  0.00    -0.273 OA 
BRANCH  19  20
HETATM   20  C   UNL     1     -10.197  15.109  67.493  1.00  0.00    -0.238 A  
HETATM   21  C   UNL     1     -11.130  14.217  68.055  1.00  0.00    -0.285 A  
HETATM   22  C   UNL     1     -11.909  14.576  69.150  1.00  0.00    -0.354 A  
HETATM   23  C   UNL     1     -11.792  15.837  69.733  1.00  0.00    -0.352 A  
HETATM   24  C   UNL     1     -10.870  16.724  69.165  1.00  0.00    -0.287 A  
HETATM   25  C   UNL     1     -10.077  16.399  68.063  1.00  0.00    -0.248 A  
HETATM   26  C   UNL     1      -9.282  17.554  67.759  1.00  0.00    -0.253 A  
HETATM   27  C   UNL     1      -8.322  17.852  66.767  1.00  0.00    -0.273 A  
HETATM   28  C   UNL     1      -7.709  19.109  66.751  1.00  0.00    -0.259 A  
HETATM   29  C   UNL     1      -8.038  20.067  67.707  1.00  0.00    -0.320 A  
HETATM   30  C   UNL     1      -8.988  19.801  68.698  1.00  0.00    -0.255 A  
HETATM   31  C   UNL     1      -9.594  18.537  68.693  1.00  0.00    -0.352 A  
HETATM   32  N   UNL     1     -10.550  18.014  69.525  1.00  0.00    -0.169 NA 
HETATM   33  H   UNL     1     -10.970  18.515  70.308  1.00  0.00     0.000 HD 
ENDBRANCH  19  20
ENDBRANCH  18  19
ENDBRANCH  15  18
ENDBRANCH  14  15
ENDBRANCH  12  14
ENDBRANCH  11  12
ENDBRANCH  10  11
ENDBRANCH   9  10
ENDBRANCH   8   9
ENDBRANCH   2   3
TORSDOF 10
ENDMDL
MODEL      382
REMARK 921   NORMALIZED FREE ENERGY PREDICTED BY IDOCK:   -3.23 KCAL/MOL
REMARK 922        TOTAL FREE ENERGY PREDICTED BY IDOCK:   -6.96 KCAL/MOL
REMARK 923 INTER-LIGAND FREE ENERGY PREDICTED BY IDOCK:   -6.18 KCAL/MOL
REMARK 924 INTRA-LIGAND FREE ENERGY PREDICTED BY IDOCK:   -0.78 KCAL/MOL
REMARK 927      BINDING AFFINITY PREDICTED BY RF-SCORE:    0.00 PKD
ROOT
HETATM    1  C   UNL     1     -10.457   8.481  71.766  1.00  0.00    -0.300 C  
HETATM    2  O   UNL     1      -9.388   8.073  70.916  1.00  0.00    -0.150 OA 
ENDROOT
BRANCH   2   3
HETATM    3  C   UNL     1      -9.739   7.665  69.654  1.00  0.00    -0.171 A  
HETATM    4  C   UNL     1     -10.744   6.705  69.451  1.00  0.00    -0.303 A  
HETATM    5  C   UNL     1     -11.131   6.332  68.164  1.00  0.00    -0.364 A  
HETATM    6  C   UNL     1     -10.501   6.893  67.061  1.00  0.00    -0.374 A  
HETATM    7  C   UNL     1      -9.468   7.809  67.250  1.00  0.00    -0.187 A  
HETATM    8  C   UNL     1      -9.066   8.198  68.536  1.00  0.00    -0.136 A  
BRANCH   8   9
HETATM    9  O   UNL     1      -8.037   9.108  68.500  1.00  0.00    -0.101 OA 
BRANCH   9  10
HETATM   10  C   UNL     1      -6.713   8.591  68.446  1.00  0.00    -0.064 C  
BRANCH  10  11
HETATM   11  C   UNL     1      -6.564   7.641  67.246  1.00  0.00    -0.063 C  
BRANCH  11  12
HETATM   12  N   UNL     1      -6.204   8.321  65.988  1.00  0.00    -0.048 NA 
HETATM   13  H   UNL     1      -7.023   8.745  65.551  1.00  0.00     0.000 HD 
BRANCH  12  14
HETATM   14  C   UNL     1      -5.125   9.316  66.177  1.00  0.00    -0.036 C  
BRANCH  14  15
HETATM   15  C   UNL     1      -5.498  10.702  65.607  1.00  0.00    -0.131 C  
HETATM   16  O   UNL     1      -6.575  10.559  64.676  1.00  0.00    -0.313 OA 
HETATM   17  H   UNL     1      -6.804  11.413  64.326  1.00  0.00     0.000 HD 
BRANCH  15  18
HETATM   18  C   UNL     1      -5.883  11.658  66.743  1.00  0.00    -0.140 C  
BRANCH  18  19
HETATM   19  O   UNL     1      -7.153  12.254  66.499  1.00  0.00     0.198 OA 
BRANCH  19  20
HETATM   20  C   UNL     1      -7.535  13.233  67.385  1.00  0.00    -0.124 A  
HETATM   21  C   UNL     1      -6.679  13.836  68.324  1.00  0.00    -0.109 A  
HETATM   22  C   UNL     1      -7.127  14.844  69.172  1.00  0.00    -0.148 A  
HETATM   23  C   UNL     1      -8.444  15.296  69.120  1.00  0.00    -0.234 A  
HETATM   24  C   UNL     1      -9.296  14.686  68.189  1.00  0.00    -0.197 A  
HETATM   25  C   UNL     1      -8.881  13.669  67.328  1.00  0.00    -0.227 A  
HETATM   26  C   UNL     1     -10.022  13.286  66.546  1.00  0.00    -0.280 A  
HETATM   27  C   UNL     1     -10.243  12.320  65.540  1.00  0.00    -0.296 A  
HETATM   28  C   UNL     1     -11.509  12.203  64.958  1.00  0.00    -0.377 A  
HETATM   29  C   UNL     1     -12.552  13.033  65.364  1.00  0.00    -0.481 A  
HETATM   30  C   UNL     1     -12.362  13.995  66.361  1.00  0.00    -0.468 A  
HETATM   31  C   UNL     1     -11.087  14.092  66.934  1.00  0.00    -0.307 A  
HETATM   32  N   UNL     1     -10.625  14.923  67.922  1.00  0.00    -0.250 NA 
HETATM   33  H   UNL     1     -11.192  15.626  68.398  1.00  0.00     0.000 HD 
ENDBRANCH  19  20
ENDBRANCH  18  19
ENDBRANCH  15  18
ENDBRANCH  14  15
ENDBRANCH  12  14
ENDBRANCH  11  12
ENDBRANCH  10  11
ENDBRANCH   9  10
ENDBRANCH   8   9
ENDBRANCH   2   3
TORSDOF 10
ENDMDL
MODEL      383
REMARK 921   NORMALIZED FREE ENERGY PREDICTED BY IDOCK:   -3.22 KCAL/MOL
REMARK 922        TOTAL FREE ENERGY PREDICTED BY IDOCK:   -6.95 KCAL/MOL
REMARK 923 INTER-LIGAND FREE ENERGY PREDICTED BY IDOCK:   -5.82 KCAL/MOL
REMARK 924 INTRA-LIGAND FREE ENERGY PREDICTED BY IDOCK:   -1.12 KCAL/MOL
REMARK 927      BINDING AFFINITY PREDICTED BY RF-SCORE:    0.00 PKD
ROOT
HETATM    1  C   UNL     1     -11.291  13.156  63.585  1.00  0.00    -0.257 C  
HETATM    2  O   UNL     1     -10.372  13.648  64.559  1.00  0.00    -0.433 OA 
ENDROOT
BRANCH   2   3
HETATM    3  C   UNL     1     -10.747  13.504  65.872  1.00  0.00    -0.277 A  
HETATM    4  C   UNL     1     -11.407  14.537  66.559  1.00  0.00    -0.354 A  
HETATM    5  C   UNL     1     -11.829  14.365  67.877  1.00  0.00    -0.384 A  
HETATM    6  C   UNL     1     -11.575  13.170  68.537  1.00  0.00    -0.361 A  
HETATM    7  C   UNL     1     -10.876  12.158  67.882  1.00  0.00    -0.254 A  
HETATM    8  C   UNL     1     -10.445  12.311  66.556  1.00  0.00    -0.227 A  
BRANCH   8   9
HETATM    9  O   UNL     1      -9.779  11.198  66.100  1.00  0.00    -0.204 OA 
BRANCH   9  10
HETATM   10  C   UNL     1      -8.483  10.952  66.632  1.00  0.00    -0.151 C  
BRANCH  10  11
HETATM   11  C   UNL     1      -8.394   9.514  67.171  1.00  0.00    -0.131 C  
BRANCH  11  12
HETATM   12  N   UNL     1      -9.638   8.740  67.010  1.00  0.00    -0.166 NA 
HETATM   13  H   UNL     1      -9.467   7.865  66.514  1.00  0.00     0.000 HD 
BRANCH  12  14
HETATM   14  C   UNL     1     -10.320   8.497  68.300  1.00  0.00    -0.201 C  
BRANCH  14  15
HETATM   15  C   UNL     1     -10.666   7.007  68.511  1.00  0.00    -0.179 C  
HETATM   16  O   UNL     1     -11.723   6.896  69.469  1.00  0.00    -0.585 OA 
HETATM   17  H   UNL     1     -11.936   5.979  69.599  1.00  0.00     0.000 HD 
BRANCH  15  18
HETATM   18  C   UNL     1     -11.068   6.361  67.179  1.00  0.00    -0.341 C  
BRANCH  18  19
HETATM   19  O   UNL     1     -10.611   5.014  67.109  1.00  0.00    -0.174 OA 
BRANCH  19  20
HETATM   20  C   UNL     1     -10.175   4.594  65.875  1.00  0.00    -0.276 A  
HETATM   21  C   UNL     1     -10.996   4.001  64.898  1.00  0.00     0.049 A  
HETATM   22  C   UNL     1     -10.493   3.626  63.657  1.00  0.00    -0.262 A  
HETATM   23  C   UNL     1      -9.152   3.827  63.334  1.00  0.00    -0.106 A  
HETATM   24  C   UNL     1      -8.336   4.409  64.311  1.00  0.00    -0.110 A  
HETATM   25  C   UNL     1      -8.806   4.791  65.569  1.00  0.00    -0.139 A  
HETATM   26  C   UNL     1      -7.688   5.324  66.294  1.00  0.00    -0.088 A  
HETATM   27  C   UNL     1      -7.521   5.845  67.596  1.00  0.00    -0.078 A  
HETATM   28  C   UNL     1      -6.263   6.300  68.004  1.00  0.00    -0.032 A  
HETATM   29  C   UNL     1      -5.176   6.242  67.134  1.00  0.00    -0.005 A  
HETATM   30  C   UNL     1      -5.312   5.727  65.842  1.00  0.00    -0.009 A  
HETATM   31  C   UNL     1      -6.580   5.272  65.455  1.00  0.00    -0.041 A  
HETATM   32  N   UNL     1      -6.995   4.718  64.271  1.00  0.00    -0.048 NA 
HETATM   33  H   UNL     1      -6.390   4.556  63.466  1.00  0.00     0.000 HD 
ENDBRANCH  19  20
ENDBRANCH  18  19
ENDBRANCH  15  18
ENDBRANCH  14  15
ENDBRANCH  12  14
ENDBRANCH  11  12
ENDBRANCH  10  11
ENDBRANCH   9  10
ENDBRANCH   8   9
ENDBRANCH   2   3
TORSDOF 10
ENDMDL
MODEL      384
REMARK 921   NORMALIZED FREE ENERGY PREDICTED BY IDOCK:   -3.18 KCAL/MOL
REMARK 922        TOTAL FREE ENERGY PREDICTED BY IDOCK:   -6.89 KCAL/MOL
REMARK 923 INTER-LIGAND FREE ENERGY PREDICTED BY IDOCK:   -6.24 KCAL/MOL
REMARK 924 INTRA-LIGAND FREE ENERGY PREDICTED BY IDOCK:   -0.65 KCAL/MOL
REMARK 927      BINDING AFFINITY PREDICTED BY RF-SCORE:    0.00 PKD
ROOT
HETATM    1  C   UNL     1     -12.215  12.513  65.310  1.00  0.00    -0.433 C  
HETATM    2  O   UNL     1     -12.341  13.798  65.914  1.00  0.00    -0.434 OA 
ENDROOT
BRANCH   2   3
HETATM    3  C   UNL     1     -11.244  14.255  66.600  1.00  0.00    -0.334 A  
HETATM    4  C   UNL     1     -10.079  14.659  65.927  1.00  0.00    -0.341 A  
HETATM    5  C   UNL     1      -8.987  15.171  66.627  1.00  0.00    -0.319 A  
HETATM    6  C   UNL     1      -9.032  15.261  68.012  1.00  0.00    -0.171 A  
HETATM    7  C   UNL     1     -10.162  14.816  68.695  1.00  0.00    -0.236 A  
HETATM    8  C   UNL     1     -11.272  14.301  68.008  1.00  0.00    -0.280 A  
BRANCH   8   9
HETATM    9  O   UNL     1     -12.277  13.922  68.865  1.00  0.00    -0.354 OA 
BRANCH   9  10
HETATM   10  C   UNL     1     -12.006  12.841  69.748  1.00  0.00    -0.292 C  
BRANCH  10  11
HETATM   11  C   UNL     1     -12.182  11.500  69.016  1.00  0.00    -0.121 C  
BRANCH  11  12
HETATM   12  N   UNL     1     -10.947  11.001  68.382  1.00  0.00    -0.210 NA 
HETATM   13  H   UNL     1     -10.713  11.546  67.552  1.00  0.00     0.000 HD 
BRANCH  12  14
HETATM   14  C   UNL     1      -9.810  10.954  69.327  1.00  0.00    -0.090 C  
BRANCH  14  15
HETATM   15  C   UNL     1      -9.585   9.540  69.906  1.00  0.00    -0.223 C  
HETATM   16  O   UNL     1      -8.397   9.537  70.704  1.00  0.00    -0.192 OA 
HETATM   17  H   UNL     1      -8.259   8.667  71.060  1.00  0.00     0.000 HD 
BRANCH  15  18
HETATM   18  C   UNL     1     -10.800   9.107  70.737  1.00  0.00    -0.268 C  
BRANCH  18  19
HETATM   19  O   UNL     1     -10.766   7.707  70.995  1.00  0.00    -0.224 OA 
BRANCH  19  20
HETATM   20  C   UNL     1     -10.560   6.901  69.901  1.00  0.00    -0.228 A  
HETATM   21  C   UNL     1     -11.247   7.025  68.679  1.00  0.00     0.004 A  
HETATM   22  C   UNL     1     -10.967   6.192  67.601  1.00  0.00    -0.400 A  
HETATM   23  C   UNL     1      -9.991   5.201  67.692  1.00  0.00    -0.203 A  
HETATM   24  C   UNL     1      -9.315   5.075  68.913  1.00  0.00    -0.127 A  
HETATM   25  C   UNL     1      -9.576   5.890  70.016  1.00  0.00    -0.200 A  
HETATM   26  C   UNL     1      -8.713   5.454  71.077  1.00  0.00    -0.141 A  
HETATM   27  C   UNL     1      -8.522   5.858  72.416  1.00  0.00    -0.117 A  
HETATM   28  C   UNL     1      -7.567   5.210  73.206  1.00  0.00    -0.092 A  
HETATM   29  C   UNL     1      -6.803   4.171  72.679  1.00  0.00    -0.051 A  
HETATM   30  C   UNL     1      -6.974   3.747  71.358  1.00  0.00    -0.032 A  
HETATM   31  C   UNL     1      -7.939   4.407  70.585  1.00  0.00    -0.060 A  
HETATM   32  N   UNL     1      -8.321   4.199  69.285  1.00  0.00    -0.069 NA 
HETATM   33  H   UNL     1      -7.921   3.487  68.672  1.00  0.00     0.000 HD 
ENDBRANCH  19  20
ENDBRANCH  18  19
ENDBRANCH  15  18
ENDBRANCH  14  15
ENDBRANCH  12  14
ENDBRANCH  11  12
ENDBRANCH  10  11
ENDBRANCH   9  10
ENDBRANCH   8   9
ENDBRANCH   2   3
TORSDOF 10
ENDMDL
MODEL      385
REMARK 921   NORMALIZED FREE ENERGY PREDICTED BY IDOCK:   -3.18 KCAL/MOL
REMARK 922        TOTAL FREE ENERGY PREDICTED BY IDOCK:   -6.89 KCAL/MOL
REMARK 923 INTER-LIGAND FREE ENERGY PREDICTED BY IDOCK:   -6.32 KCAL/MOL
REMARK 924 INTRA-LIGAND FREE ENERGY PREDICTED BY IDOCK:   -0.57 KCAL/MOL
REMARK 927      BINDING AFFINITY PREDICTED BY RF-SCORE:    0.00 PKD
ROOT
HETATM    1  C   UNL     1      -8.251  13.545  67.435  1.00  0.00    -0.181 C  
HETATM    2  O   UNL     1      -8.796  14.064  66.224  1.00  0.00    -0.023 OA 
ENDROOT
BRANCH   2   3
HETATM    3  C   UNL     1     -10.139  13.860  66.027  1.00  0.00    -0.313 A  
HETATM    4  C   UNL     1     -11.100  14.567  66.767  1.00  0.00    -0.325 A  
HETATM    5  C   UNL     1     -12.463  14.392  66.527  1.00  0.00    -0.151 A  
HETATM    6  C   UNL     1     -12.885  13.487  65.562  1.00  0.00    -0.406 A  
HETATM    7  C   UNL     1     -11.942  12.741  64.857  1.00  0.00    -0.451 A  
HETATM    8  C   UNL     1     -10.568  12.906  65.083  1.00  0.00    -0.302 A  
BRANCH   8   9
HETATM    9  O   UNL     1      -9.813  12.080  64.285  1.00  0.00    -0.243 OA 
BRANCH   9  10
HETATM   10  C   UNL     1     -10.138  10.696  64.290  1.00  0.00    -0.343 C  
BRANCH  10  11
HETATM   11  C   UNL     1      -8.900   9.857  63.931  1.00  0.00    -0.227 C  
BRANCH  11  12
HETATM   12  N   UNL     1      -8.924   8.492  64.486  1.00  0.00    -0.388 NA 
HETATM   13  H   UNL     1      -8.161   7.928  64.112  1.00  0.00     0.000 HD 
BRANCH  12  14
HETATM   14  C   UNL     1      -8.918   8.486  65.965  1.00  0.00    -0.184 C  
BRANCH  14  15
HETATM   15  C   UNL     1      -9.709   7.296  66.552  1.00  0.00    -0.140 C  
HETATM   16  O   UNL     1      -9.461   6.127  65.765  1.00  0.00    -0.367 OA 
HETATM   17  H   UNL     1      -9.948   5.395  66.127  1.00  0.00     0.000 HD 
BRANCH  15  18
HETATM   18  C   UNL     1      -9.310   7.063  68.015  1.00  0.00    -0.127 C  
BRANCH  18  19
HETATM   19  O   UNL     1      -9.331   8.284  68.748  1.00  0.00    -0.144 OA 
BRANCH  19  20
HETATM   20  C   UNL     1      -8.124   8.690  69.267  1.00  0.00    -0.112 A  
HETATM   21  C   UNL     1      -7.066   9.219  68.506  1.00  0.00    -0.071 A  
HETATM   22  C   UNL     1      -5.881   9.639  69.103  1.00  0.00    -0.035 A  
HETATM   23  C   UNL     1      -5.700   9.551  70.482  1.00  0.00    -0.048 A  
HETATM   24  C   UNL     1      -6.752   9.015  71.235  1.00  0.00    -0.085 A  
HETATM   25  C   UNL     1      -7.951   8.579  70.669  1.00  0.00    -0.104 A  
HETATM   26  C   UNL     1      -8.768   8.081  71.738  1.00  0.00    -0.178 A  
HETATM   27  C   UNL     1     -10.053   7.500  71.804  1.00  0.00    -0.205 A  
HETATM   28  C   UNL     1     -10.579   7.117  73.042  1.00  0.00    -0.346 A  
HETATM   29  C   UNL     1      -9.843   7.307  74.210  1.00  0.00    -0.069 A  
HETATM   30  C   UNL     1      -8.566   7.876  74.174  1.00  0.00    -0.296 A  
HETATM   31  C   UNL     1      -8.057   8.248  72.922  1.00  0.00    -0.150 A  
HETATM   32  N   UNL     1      -6.850   8.810  72.592  1.00  0.00    -0.303 NA 
HETATM   33  H   UNL     1      -6.119   9.044  73.265  1.00  0.00     0.000 HD 
ENDBRANCH  19  20
ENDBRANCH  18  19
ENDBRANCH  15  18
ENDBRANCH  14  15
ENDBRANCH  12  14
ENDBRANCH  11  12
ENDBRANCH  10  11
ENDBRANCH   9  10
ENDBRANCH   8   9
ENDBRANCH   2   3
TORSDOF 10
ENDMDL
MODEL      386
REMARK 921   NORMALIZED FREE ENERGY PREDICTED BY IDOCK:   -3.17 KCAL/MOL
REMARK 922        TOTAL FREE ENERGY PREDICTED BY IDOCK:   -6.88 KCAL/MOL
REMARK 923 INTER-LIGAND FREE ENERGY PREDICTED BY IDOCK:   -6.21 KCAL/MOL
REMARK 924 INTRA-LIGAND FREE ENERGY PREDICTED BY IDOCK:   -0.67 KCAL/MOL
REMARK 927      BINDING AFFINITY PREDICTED BY RF-SCORE:    0.00 PKD
ROOT
HETATM    1  C   UNL     1     -11.641  16.051  68.704  1.00  0.00    -0.343 C  
HETATM    2  O   UNL     1     -11.904  14.658  68.550  1.00  0.00    -0.325 OA 
ENDROOT
BRANCH   2   3
HETATM    3  C   UNL     1     -11.444  14.080  67.394  1.00  0.00    -0.348 A  
HETATM    4  C   UNL     1     -10.799  14.840  66.404  1.00  0.00    -0.322 A  
HETATM    5  C   UNL     1     -10.289  14.236  65.255  1.00  0.00    -0.417 A  
HETATM    6  C   UNL     1     -10.440  12.869  65.065  1.00  0.00    -0.337 A  
HETATM    7  C   UNL     1     -11.122  12.113  66.015  1.00  0.00    -0.354 A  
HETATM    8  C   UNL     1     -11.640  12.701  67.179  1.00  0.00    -0.368 A  
BRANCH   8   9
HETATM    9  O   UNL     1     -12.272  11.782  67.982  1.00  0.00    -0.518 OA 
BRANCH   9  10
HETATM   10  C   UNL     1     -11.745  11.590  69.289  1.00  0.00    -0.330 C  
BRANCH  10  11
HETATM   11  C   UNL     1     -10.567  10.602  69.247  1.00  0.00    -0.233 C  
BRANCH  11  12
HETATM   12  N   UNL     1     -10.966   9.212  68.961  1.00  0.00    -0.432 NA 
HETATM   13  H   UNL     1     -11.403   9.135  68.042  1.00  0.00     0.000 HD 
BRANCH  12  14
HETATM   14  C   UNL     1      -9.838   8.265  69.096  1.00  0.00    -0.179 C  
BRANCH  14  15
HETATM   15  C   UNL     1      -8.612   8.688  68.258  1.00  0.00    -0.138 C  
HETATM   16  O   UNL     1      -7.577   7.711  68.403  1.00  0.00    -0.108 OA 
HETATM   17  H   UNL     1      -6.822   7.971  67.887  1.00  0.00     0.000 HD 
BRANCH  15  18
HETATM   18  C   UNL     1      -9.005   8.849  66.784  1.00  0.00    -0.130 C  
BRANCH  18  19
HETATM   19  O   UNL     1      -8.815   7.632  66.071  1.00  0.00    -0.161 OA 
BRANCH  19  20
HETATM   20  C   UNL     1      -8.169   7.741  64.862  1.00  0.00    -0.107 A  
HETATM   21  C   UNL     1      -7.810   8.960  64.257  1.00  0.00    -0.134 A  
HETATM   22  C   UNL     1      -7.130   8.996  63.044  1.00  0.00    -0.088 A  
HETATM   23  C   UNL     1      -6.778   7.821  62.382  1.00  0.00    -0.080 A  
HETATM   24  C   UNL     1      -7.145   6.610  62.982  1.00  0.00    -0.054 A  
HETATM   25  C   UNL     1      -7.833   6.538  64.195  1.00  0.00    -0.111 A  
HETATM   26  C   UNL     1      -8.048   5.148  64.477  1.00  0.00    -0.120 A  
HETATM   27  C   UNL     1      -8.689   4.445  65.521  1.00  0.00    -0.123 A  
HETATM   28  C   UNL     1      -8.719   3.047  65.499  1.00  0.00    -0.123 A  
HETATM   29  C   UNL     1      -8.121   2.345  64.455  1.00  0.00    -0.078 A  
HETATM   30  C   UNL     1      -7.484   3.015  63.406  1.00  0.00    -0.062 A  
HETATM   31  C   UNL     1      -7.469   4.415  63.445  1.00  0.00    -0.054 A  
HETATM   32  N   UNL     1      -6.935   5.317  62.561  1.00  0.00    -0.029 NA 
HETATM   33  H   UNL     1      -6.446   5.063  61.703  1.00  0.00     0.000 HD 
ENDBRANCH  19  20
ENDBRANCH  18  19
ENDBRANCH  15  18
ENDBRANCH  14  15
ENDBRANCH  12  14
ENDBRANCH  11  12
ENDBRANCH  10  11
ENDBRANCH   9  10
ENDBRANCH   8   9
ENDBRANCH   2   3
TORSDOF 10
ENDMDL
MODEL      387
REMARK 921   NORMALIZED FREE ENERGY PREDICTED BY IDOCK:   -3.17 KCAL/MOL
REMARK 922        TOTAL FREE ENERGY PREDICTED BY IDOCK:   -6.86 KCAL/MOL
REMARK 923 INTER-LIGAND FREE ENERGY PREDICTED BY IDOCK:   -5.85 KCAL/MOL
REMARK 924 INTRA-LIGAND FREE ENERGY PREDICTED BY IDOCK:   -1.02 KCAL/MOL
REMARK 927      BINDING AFFINITY PREDICTED BY RF-SCORE:    0.00 PKD
ROOT
HETATM    1  C   UNL     1      -7.163   7.283  65.617  1.00  0.00    -0.070 C  
HETATM    2  O   UNL     1      -7.728   6.198  66.349  1.00  0.00    -0.099 OA 
ENDROOT
BRANCH   2   3
HETATM    3  C   UNL     1      -8.569   5.369  65.651  1.00  0.00    -0.146 A  
HETATM    4  C   UNL     1      -8.101   4.586  64.582  1.00  0.00    -0.101 A  
HETATM    5  C   UNL     1      -8.951   3.709  63.910  1.00  0.00    -0.105 A  
HETATM    6  C   UNL     1     -10.287   3.620  64.276  1.00  0.00    -0.231 A  
HETATM    7  C   UNL     1     -10.775   4.428  65.301  1.00  0.00    -0.150 A  
HETATM    8  C   UNL     1      -9.935   5.315  65.991  1.00  0.00    -0.124 A  
BRANCH   8   9
HETATM    9  O   UNL     1     -10.612   6.014  66.962  1.00  0.00    -0.244 OA 
BRANCH   9  10
HETATM   10  C   UNL     1     -10.641   5.452  68.267  1.00  0.00    -0.074 C  
BRANCH  10  11
HETATM   11  C   UNL     1     -10.937   6.543  69.310  1.00  0.00    -0.331 C  
BRANCH  11  12
HETATM   12  N   UNL     1      -9.922   7.611  69.358  1.00  0.00    -0.176 NA 
HETATM   13  H   UNL     1      -9.244   7.510  68.603  1.00  0.00     0.000 HD 
BRANCH  12  14
HETATM   14  C   UNL     1     -10.526   8.961  69.355  1.00  0.00    -0.222 C  
BRANCH  14  15
HETATM   15  C   UNL     1     -10.663   9.542  67.931  1.00  0.00    -0.228 C  
HETATM   16  O   UNL     1     -11.800  10.408  67.878  1.00  0.00    -0.702 OA 
HETATM   17  H   UNL     1     -11.884  10.766  67.001  1.00  0.00     0.000 HD 
BRANCH  15  18
HETATM   18  C   UNL     1      -9.385  10.295  67.539  1.00  0.00    -0.148 C  
BRANCH  18  19
HETATM   19  O   UNL     1      -8.885  11.052  68.636  1.00  0.00    -0.156 OA 
BRANCH  19  20
HETATM   20  C   UNL     1      -7.921  11.983  68.330  1.00  0.00    -0.152 A  
HETATM   21  C   UNL     1      -6.576  11.676  68.050  1.00  0.00    -0.062 A  
HETATM   22  C   UNL     1      -5.659  12.669  67.718  1.00  0.00    -0.122 A  
HETATM   23  C   UNL     1      -6.041  14.007  67.650  1.00  0.00    -0.078 A  
HETATM   24  C   UNL     1      -7.378  14.309  67.938  1.00  0.00    -0.156 A  
HETATM   25  C   UNL     1      -8.323  13.340  68.280  1.00  0.00    -0.154 A  
HETATM   26  C   UNL     1      -9.561  14.023  68.522  1.00  0.00    -0.201 A  
HETATM   27  C   UNL     1     -10.852  13.606  68.913  1.00  0.00    -0.264 A  
HETATM   28  C   UNL     1     -11.872  14.553  69.058  1.00  0.00    -0.354 A  
HETATM   29  C   UNL     1     -11.622  15.902  68.818  1.00  0.00    -0.389 A  
HETATM   30  C   UNL     1     -10.352  16.343  68.434  1.00  0.00    -0.282 A  
HETATM   31  C   UNL     1      -9.344  15.379  68.299  1.00  0.00    -0.193 A  
HETATM   32  N   UNL     1      -8.025  15.524  67.951  1.00  0.00    -0.132 NA 
HETATM   33  H   UNL     1      -7.581  16.416  67.730  1.00  0.00     0.000 HD 
ENDBRANCH  19  20
ENDBRANCH  18  19
ENDBRANCH  15  18
ENDBRANCH  14  15
ENDBRANCH  12  14
ENDBRANCH  11  12
ENDBRANCH  10  11
ENDBRANCH   9  10
ENDBRANCH   8   9
ENDBRANCH   2   3
TORSDOF 10
ENDMDL
MODEL      388
REMARK 921   NORMALIZED FREE ENERGY PREDICTED BY IDOCK:   -3.16 KCAL/MOL
REMARK 922        TOTAL FREE ENERGY PREDICTED BY IDOCK:   -6.86 KCAL/MOL
REMARK 923 INTER-LIGAND FREE ENERGY PREDICTED BY IDOCK:   -5.42 KCAL/MOL
REMARK 924 INTRA-LIGAND FREE ENERGY PREDICTED BY IDOCK:   -1.44 KCAL/MOL
REMARK 927      BINDING AFFINITY PREDICTED BY RF-SCORE:    0.00 PKD
ROOT
HETATM    1  C   UNL     1      -6.216   7.327  64.185  1.00  0.00    -0.044 C  
HETATM    2  O   UNL     1      -6.775   6.449  65.159  1.00  0.00    -0.044 OA 
ENDROOT
BRANCH   2   3
HETATM    3  C   UNL     1      -7.760   5.603  64.717  1.00  0.00    -0.101 A  
HETATM    4  C   UNL     1      -7.756   5.100  63.405  1.00  0.00    -0.077 A  
HETATM    5  C   UNL     1      -8.732   4.200  62.979  1.00  0.00    -0.109 A  
HETATM    6  C   UNL     1      -9.742   3.810  63.847  1.00  0.00    -0.164 A  
HETATM    7  C   UNL     1      -9.787   4.340  65.135  1.00  0.00    -0.208 A  
HETATM    8  C   UNL     1      -8.812   5.245  65.584  1.00  0.00    -0.152 A  
BRANCH   8   9
HETATM    9  O   UNL     1      -9.038   5.643  66.880  1.00  0.00    -0.115 OA 
BRANCH   9  10
HETATM   10  C   UNL     1      -8.699   4.725  67.911  1.00  0.00    -0.103 C  
BRANCH  10  11
HETATM   11  C   UNL     1      -9.417   5.103  69.217  1.00  0.00    -0.140 C  
BRANCH  11  12
HETATM   12  N   UNL     1      -8.871   6.306  69.870  1.00  0.00    -0.140 NA 
HETATM   13  H   UNL     1      -8.468   6.947  69.186  1.00  0.00     0.000 HD 
BRANCH  12  14
HETATM   14  C   UNL     1      -9.873   6.990  70.716  1.00  0.00    -0.185 C  
BRANCH  14  15
HETATM   15  C   UNL     1     -11.086   7.492  69.901  1.00  0.00    -0.171 C  
HETATM   16  O   UNL     1     -11.973   8.210  70.764  1.00  0.00    -0.442 OA 
HETATM   17  H   UNL     1     -12.719   8.520  70.263  1.00  0.00     0.000 HD 
BRANCH  15  18
HETATM   18  C   UNL     1     -10.616   8.380  68.742  1.00  0.00    -0.125 C  
BRANCH  18  19
HETATM   19  O   UNL     1      -9.735   9.397  69.205  1.00  0.00    -0.157 OA 
BRANCH  19  20
HETATM   20  C   UNL     1      -8.819   9.858  68.289  1.00  0.00    -0.119 A  
HETATM   21  C   UNL     1      -7.677   9.147  67.877  1.00  0.00    -0.093 A  
HETATM   22  C   UNL     1      -6.806   9.662  66.922  1.00  0.00    -0.080 A  
HETATM   23  C   UNL     1      -7.036  10.905  66.335  1.00  0.00    -0.134 A  
HETATM   24  C   UNL     1      -8.168  11.614  66.755  1.00  0.00    -0.161 A  
HETATM   25  C   UNL     1      -9.059  11.130  67.715  1.00  0.00    -0.149 A  
HETATM   26  C   UNL     1     -10.071  12.131  67.896  1.00  0.00    -0.199 A  
HETATM   27  C   UNL     1     -11.209  12.238  68.725  1.00  0.00    -0.312 A  
HETATM   28  C   UNL     1     -12.016  13.379  68.651  1.00  0.00    -0.362 A  
HETATM   29  C   UNL     1     -11.703  14.407  67.766  1.00  0.00    -0.407 A  
HETATM   30  C   UNL     1     -10.579  14.330  66.937  1.00  0.00    -0.273 A  
HETATM   31  C   UNL     1      -9.782  13.181  67.030  1.00  0.00    -0.241 A  
HETATM   32  N   UNL     1      -8.635  12.846  66.357  1.00  0.00    -0.411 NA 
HETATM   33  H   UNL     1      -8.186  13.433  65.654  1.00  0.00     0.000 HD 
ENDBRANCH  19  20
ENDBRANCH  18  19
ENDBRANCH  15  18
ENDBRANCH  14  15
ENDBRANCH  12  14
ENDBRANCH  11  12
ENDBRANCH  10  11
ENDBRANCH   9  10
ENDBRANCH   8   9
ENDBRANCH   2   3
TORSDOF 10
ENDMDL
MODEL      389
REMARK 921   NORMALIZED FREE ENERGY PREDICTED BY IDOCK:   -3.16 KCAL/MOL
REMARK 922        TOTAL FREE ENERGY PREDICTED BY IDOCK:   -6.86 KCAL/MOL
REMARK 923 INTER-LIGAND FREE ENERGY PREDICTED BY IDOCK:   -6.24 KCAL/MOL
REMARK 924 INTRA-LIGAND FREE ENERGY PREDICTED BY IDOCK:   -0.62 KCAL/MOL
REMARK 927      BINDING AFFINITY PREDICTED BY RF-SCORE:    0.00 PKD
ROOT
HETATM    1  C   UNL     1     -12.229  13.447  64.683  1.00  0.00    -0.407 C  
HETATM    2  O   UNL     1     -12.366  14.700  65.349  1.00  0.00    -0.305 OA 
ENDROOT
BRANCH   2   3
HETATM    3  C   UNL     1     -11.267  15.142  66.041  1.00  0.00    -0.275 A  
HETATM    4  C   UNL     1     -10.156  15.686  65.376  1.00  0.00    -0.370 A  
HETATM    5  C   UNL     1      -9.064  16.180  66.089  1.00  0.00    -0.382 A  
HETATM    6  C   UNL     1      -9.053  16.111  67.476  1.00  0.00    -0.207 A  
HETATM    7  C   UNL     1     -10.126  15.527  68.145  1.00  0.00    -0.218 A  
HETATM    8  C   UNL     1     -11.235  15.028  67.445  1.00  0.00    -0.335 A  
BRANCH   8   9
HETATM    9  O   UNL     1     -12.180  14.497  68.291  1.00  0.00    -0.233 OA 
BRANCH   9  10
HETATM   10  C   UNL     1     -11.799  13.367  69.065  1.00  0.00    -0.335 C  
BRANCH  10  11
HETATM   11  C   UNL     1     -11.967  12.078  68.243  1.00  0.00    -0.179 C  
BRANCH  11  12
HETATM   12  N   UNL     1     -10.708  11.570  67.667  1.00  0.00    -0.201 NA 
HETATM   13  H   UNL     1     -10.388  12.162  66.901  1.00  0.00     0.000 HD 
BRANCH  12  14
HETATM   14  C   UNL     1      -9.652  11.401  68.689  1.00  0.00    -0.173 C  
BRANCH  14  15
HETATM   15  C   UNL     1      -9.315   9.916  68.946  1.00  0.00    -0.170 C  
HETATM   16  O   UNL     1      -8.956   9.290  67.711  1.00  0.00    -0.127 OA 
HETATM   17  H   UNL     1      -8.748   8.376  67.869  1.00  0.00     0.000 HD 
BRANCH  15  18
HETATM   18  C   UNL     1      -8.177   9.799  69.967  1.00  0.00    -0.191 C  
BRANCH  18  19
HETATM   19  O   UNL     1      -8.051   8.461  70.437  1.00  0.00    -0.100 OA 
BRANCH  19  20
HETATM   20  C   UNL     1      -9.229   7.769  70.596  1.00  0.00    -0.161 A  
HETATM   21  C   UNL     1     -10.327   8.227  71.347  1.00  0.00    -0.270 A  
HETATM   22  C   UNL     1     -11.501   7.486  71.440  1.00  0.00    -0.291 A  
HETATM   23  C   UNL     1     -11.633   6.261  70.790  1.00  0.00    -0.347 A  
HETATM   24  C   UNL     1     -10.534   5.805  70.051  1.00  0.00    -0.283 A  
HETATM   25  C   UNL     1      -9.339   6.519  69.941  1.00  0.00    -0.155 A  
HETATM   26  C   UNL     1      -8.451   5.735  69.131  1.00  0.00    -0.107 A  
HETATM   27  C   UNL     1      -7.122   5.903  68.686  1.00  0.00    -0.081 A  
HETATM   28  C   UNL     1      -6.532   4.924  67.879  1.00  0.00    -0.045 A  
HETATM   29  C   UNL     1      -7.248   3.787  67.512  1.00  0.00    -0.063 A  
HETATM   30  C   UNL     1      -8.564   3.592  67.942  1.00  0.00    -0.115 A  
HETATM   31  C   UNL     1      -9.134   4.582  68.754  1.00  0.00    -0.120 A  
HETATM   32  N   UNL     1     -10.382   4.649  69.320  1.00  0.00     0.008 NA 
HETATM   33  H   UNL     1     -11.102   3.935  69.213  1.00  0.00     0.000 HD 
ENDBRANCH  19  20
ENDBRANCH  18  19
ENDBRANCH  15  18
ENDBRANCH  14  15
ENDBRANCH  12  14
ENDBRANCH  11  12
ENDBRANCH  10  11
ENDBRANCH   9  10
ENDBRANCH   8   9
ENDBRANCH   2   3
TORSDOF 10
ENDMDL
MODEL      390
REMARK 921   NORMALIZED FREE ENERGY PREDICTED BY IDOCK:   -3.15 KCAL/MOL
REMARK 922        TOTAL FREE ENERGY PREDICTED BY IDOCK:   -6.83 KCAL/MOL
REMARK 923 INTER-LIGAND FREE ENERGY PREDICTED BY IDOCK:   -5.68 KCAL/MOL
REMARK 924 INTRA-LIGAND FREE ENERGY PREDICTED BY IDOCK:   -1.15 KCAL/MOL
REMARK 927      BINDING AFFINITY PREDICTED BY RF-SCORE:    0.00 PKD
ROOT
HETATM    1  C   UNL     1     -11.806  14.490  68.376  1.00  0.00    -0.316 C  
HETATM    2  O   UNL     1     -11.476  13.172  68.808  1.00  0.00    -0.264 OA 
ENDROOT
BRANCH   2   3
HETATM    3  C   UNL     1     -11.198  12.263  67.818  1.00  0.00    -0.276 A  
HETATM    4  C   UNL     1     -11.538  12.515  66.479  1.00  0.00    -0.447 A  
HETATM    5  C   UNL     1     -11.207  11.609  65.472  1.00  0.00    -0.267 A  
HETATM    6  C   UNL     1     -10.555  10.425  65.791  1.00  0.00    -0.100 A  
HETATM    7  C   UNL     1     -10.258  10.140  67.122  1.00  0.00    -0.278 A  
HETATM    8  C   UNL     1     -10.580  11.040  68.149  1.00  0.00    -0.191 A  
BRANCH   8   9
HETATM    9  O   UNL     1     -10.200  10.570  69.383  1.00  0.00    -0.220 OA 
BRANCH   9  10
HETATM   10  C   UNL     1      -9.366   9.419  69.411  1.00  0.00    -0.169 C  
BRANCH  10  11
HETATM   11  C   UNL     1      -8.384   9.503  70.593  1.00  0.00    -0.112 C  
BRANCH  11  12
HETATM   12  N   UNL     1      -8.808   8.730  71.775  1.00  0.00    -0.313 NA 
HETATM   13  H   UNL     1      -9.642   8.177  71.575  1.00  0.00     0.000 HD 
BRANCH  12  14
HETATM   14  C   UNL     1      -7.721   7.882  72.310  1.00  0.00    -0.104 C  
BRANCH  14  15
HETATM   15  C   UNL     1      -7.947   6.382  72.017  1.00  0.00    -0.108 C  
HETATM   16  O   UNL     1      -6.749   5.656  72.307  1.00  0.00    -0.066 OA 
HETATM   17  H   UNL     1      -6.888   4.733  72.127  1.00  0.00     0.000 HD 
BRANCH  15  18
HETATM   18  C   UNL     1      -9.121   5.850  72.848  1.00  0.00    -0.121 C  
BRANCH  18  19
HETATM   19  O   UNL     1      -9.857   4.872  72.120  1.00  0.00    -0.161 OA 
BRANCH  19  20
HETATM   20  C   UNL     1     -10.239   5.235  70.850  1.00  0.00    -0.234 A  
HETATM   21  C   UNL     1     -11.203   6.217  70.557  1.00  0.00    -0.420 A  
HETATM   22  C   UNL     1     -11.520   6.555  69.245  1.00  0.00    -0.307 A  
HETATM   23  C   UNL     1     -10.891   5.931  68.169  1.00  0.00    -0.323 A  
HETATM   24  C   UNL     1      -9.939   4.947  68.465  1.00  0.00    -0.115 A  
HETATM   25  C   UNL     1      -9.601   4.579  69.769  1.00  0.00    -0.270 A  
HETATM   26  C   UNL     1      -8.618   3.539  69.673  1.00  0.00    -0.111 A  
HETATM   27  C   UNL     1      -7.917   2.761  70.620  1.00  0.00    -0.049 A  
HETATM   28  C   UNL     1      -6.993   1.805  70.184  1.00  0.00    -0.033 A  
HETATM   29  C   UNL     1      -6.761   1.617  68.824  1.00  0.00    -0.029 A  
HETATM   30  C   UNL     1      -7.444   2.370  67.864  1.00  0.00    -0.056 A  
HETATM   31  C   UNL     1      -8.368   3.319  68.322  1.00  0.00    -0.078 A  
HETATM   32  N   UNL     1      -9.175   4.176  67.618  1.00  0.00    -0.141 NA 
HETATM   33  H   UNL     1      -9.205   4.235  66.600  1.00  0.00     0.000 HD 
ENDBRANCH  19  20
ENDBRANCH  18  19
ENDBRANCH  15  18
ENDBRANCH  14  15
ENDBRANCH  12  14
ENDBRANCH  11  12
ENDBRANCH  10  11
ENDBRANCH   9  10
ENDBRANCH   8   9
ENDBRANCH   2   3
TORSDOF 10
ENDMDL
MODEL      391
REMARK 921   NORMALIZED FREE ENERGY PREDICTED BY IDOCK:   -3.14 KCAL/MOL
REMARK 922        TOTAL FREE ENERGY PREDICTED BY IDOCK:   -6.83 KCAL/MOL
REMARK 923 INTER-LIGAND FREE ENERGY PREDICTED BY IDOCK:   -5.01 KCAL/MOL
REMARK 924 INTRA-LIGAND FREE ENERGY PREDICTED BY IDOCK:   -1.82 KCAL/MOL
REMARK 927      BINDING AFFINITY PREDICTED BY RF-SCORE:    0.00 PKD
ROOT
HETATM    1  C   UNL     1     -12.959   7.147  71.486  1.00  0.00    -0.383 C  
HETATM    2  O   UNL     1     -11.808   6.499  72.023  1.00  0.00    -0.308 OA 
ENDROOT
BRANCH   2   3
HETATM    3  C   UNL     1     -10.597   7.073  71.728  1.00  0.00    -0.210 A  
HETATM    4  C   UNL     1     -10.512   8.385  71.235  1.00  0.00    -0.273 A  
HETATM    5  C   UNL     1      -9.276   8.980  70.986  1.00  0.00    -0.331 A  
HETATM    6  C   UNL     1      -8.106   8.262  71.199  1.00  0.00    -0.124 A  
HETATM    7  C   UNL     1      -8.178   6.942  71.640  1.00  0.00    -0.109 A  
HETATM    8  C   UNL     1      -9.413   6.328  71.898  1.00  0.00    -0.153 A  
BRANCH   8   9
HETATM    9  O   UNL     1      -9.262   5.030  72.324  1.00  0.00    -0.133 OA 
BRANCH   9  10
HETATM   10  C   UNL     1      -9.697   4.002  71.443  1.00  0.00    -0.183 C  
BRANCH  10  11
HETATM   11  C   UNL     1      -8.503   3.440  70.653  1.00  0.00    -0.068 C  
BRANCH  11  12
HETATM   12  N   UNL     1      -8.696   3.456  69.191  1.00  0.00    -0.082 NA 
HETATM   13  H   UNL     1      -9.553   2.970  68.927  1.00  0.00     0.000 HD 
BRANCH  12  14
HETATM   14  C   UNL     1      -8.667   4.826  68.636  1.00  0.00    -0.097 C  
BRANCH  14  15
HETATM   15  C   UNL     1      -9.287   4.902  67.224  1.00  0.00    -0.131 C  
HETATM   16  O   UNL     1     -10.034   3.708  66.969  1.00  0.00    -0.331 OA 
HETATM   17  H   UNL     1     -10.416   3.755  66.100  1.00  0.00     0.000 HD 
BRANCH  15  18
HETATM   18  C   UNL     1     -10.183   6.141  67.103  1.00  0.00    -0.199 C  
BRANCH  18  19
HETATM   19  O   UNL     1      -9.762   6.970  66.024  1.00  0.00     0.036 OA 
BRANCH  19  20
HETATM   20  C   UNL     1      -8.513   7.529  66.152  1.00  0.00    -0.144 A  
HETATM   21  C   UNL     1      -7.323   6.940  65.686  1.00  0.00    -0.079 A  
HETATM   22  C   UNL     1      -6.094   7.578  65.824  1.00  0.00    -0.038 A  
HETATM   23  C   UNL     1      -5.997   8.829  66.429  1.00  0.00    -0.055 A  
HETATM   24  C   UNL     1      -7.182   9.409  66.899  1.00  0.00    -0.087 A  
HETATM   25  C   UNL     1      -8.431   8.794  66.784  1.00  0.00    -0.113 A  
HETATM   26  C   UNL     1      -9.391   9.670  67.391  1.00  0.00    -0.155 A  
HETATM   27  C   UNL     1     -10.785   9.603  67.604  1.00  0.00    -0.324 A  
HETATM   28  C   UNL     1     -11.442  10.661  68.242  1.00  0.00    -0.318 A  
HETATM   29  C   UNL     1     -10.729  11.779  68.667  1.00  0.00    -0.252 A  
HETATM   30  C   UNL     1      -9.347  11.870  68.474  1.00  0.00    -0.142 A  
HETATM   31  C   UNL     1      -8.708  10.798  67.837  1.00  0.00    -0.129 A  
HETATM   32  N   UNL     1      -7.384  10.615  67.530  1.00  0.00    -0.090 NA 
HETATM   33  H   UNL     1      -6.645  11.286  67.743  1.00  0.00     0.000 HD 
ENDBRANCH  19  20
ENDBRANCH  18  19
ENDBRANCH  15  18
ENDBRANCH  14  15
ENDBRANCH  12  14
ENDBRANCH  11  12
ENDBRANCH  10  11
ENDBRANCH   9  10
ENDBRANCH   8   9
ENDBRANCH   2   3
TORSDOF 10
ENDMDL
MODEL      392
REMARK 921   NORMALIZED FREE ENERGY PREDICTED BY IDOCK:   -3.11 KCAL/MOL
REMARK 922        TOTAL FREE ENERGY PREDICTED BY IDOCK:   -6.78 KCAL/MOL
REMARK 923 INTER-LIGAND FREE ENERGY PREDICTED BY IDOCK:   -6.46 KCAL/MOL
REMARK 924 INTRA-LIGAND FREE ENERGY PREDICTED BY IDOCK:   -0.33 KCAL/MOL
REMARK 927      BINDING AFFINITY PREDICTED BY RF-SCORE:    0.00 PKD
ROOT
HETATM    1  C   UNL     1     -10.199   8.746  72.138  1.00  0.00    -0.301 C  
HETATM    2  O   UNL     1      -9.252   8.424  71.121  1.00  0.00    -0.150 OA 
ENDROOT
BRANCH   2   3
HETATM    3  C   UNL     1      -9.722   7.677  70.070  1.00  0.00    -0.172 A  
HETATM    4  C   UNL     1     -10.559   6.568  70.280  1.00  0.00    -0.278 A  
HETATM    5  C   UNL     1     -11.074   5.845  69.205  1.00  0.00    -0.328 A  
HETATM    6  C   UNL     1     -10.738   6.201  67.905  1.00  0.00    -0.374 A  
HETATM    7  C   UNL     1      -9.868   7.267  67.686  1.00  0.00    -0.189 A  
HETATM    8  C   UNL     1      -9.342   8.008  68.755  1.00  0.00    -0.147 A  
BRANCH   8   9
HETATM    9  O   UNL     1      -8.510   9.014  68.323  1.00  0.00    -0.127 OA 
BRANCH   9  10
HETATM   10  C   UNL     1      -7.117   8.849  68.555  1.00  0.00    -0.072 C  
BRANCH  10  11
HETATM   11  C   UNL     1      -6.639   7.501  67.989  1.00  0.00    -0.054 C  
BRANCH  11  12
HETATM   12  N   UNL     1      -6.569   7.464  66.517  1.00  0.00    -0.052 NA 
HETATM   13  H   UNL     1      -7.442   7.123  66.114  1.00  0.00     0.000 HD 
BRANCH  12  14
HETATM   14  C   UNL     1      -6.190   8.772  65.940  1.00  0.00    -0.056 C  
BRANCH  14  15
HETATM   15  C   UNL     1      -7.310   9.375  65.064  1.00  0.00    -0.105 C  
HETATM   16  O   UNL     1      -8.519   8.635  65.263  1.00  0.00    -0.161 OA 
HETATM   17  H   UNL     1      -9.208   9.006  64.725  1.00  0.00     0.000 HD 
BRANCH  15  18
HETATM   18  C   UNL     1      -7.515  10.856  65.408  1.00  0.00     0.149 C  
BRANCH  18  19
HETATM   19  O   UNL     1      -8.754  11.055  66.081  1.00  0.00    -0.175 OA 
BRANCH  19  20
HETATM   20  C   UNL     1      -9.805  11.456  65.293  1.00  0.00    -0.248 A  
HETATM   21  C   UNL     1     -10.146  10.871  64.059  1.00  0.00    -0.419 A  
HETATM   22  C   UNL     1     -11.244  11.309  63.326  1.00  0.00    -0.015 A  
HETATM   23  C   UNL     1     -12.050  12.348  63.789  1.00  0.00    -0.618 A  
HETATM   24  C   UNL     1     -11.702  12.934  65.013  1.00  0.00    -0.344 A  
HETATM   25  C   UNL     1     -10.604  12.523  65.771  1.00  0.00    -0.299 A  
HETATM   26  C   UNL     1     -10.556  13.362  66.935  1.00  0.00    -0.273 A  
HETATM   27  C   UNL     1      -9.688  13.452  68.044  1.00  0.00    -0.222 A  
HETATM   28  C   UNL     1      -9.932  14.405  69.039  1.00  0.00    -0.135 A  
HETATM   29  C   UNL     1     -11.025  15.263  68.942  1.00  0.00    -0.261 A  
HETATM   30  C   UNL     1     -11.899  15.198  67.852  1.00  0.00    -0.192 A  
HETATM   31  C   UNL     1     -11.633  14.240  66.865  1.00  0.00    -0.387 A  
HETATM   32  N   UNL     1     -12.305  13.963  65.701  1.00  0.00    -0.452 NA 
HETATM   33  H   UNL     1     -13.141  14.455  65.386  1.00  0.00     0.000 HD 
ENDBRANCH  19  20
ENDBRANCH  18  19
ENDBRANCH  15  18
ENDBRANCH  14  15
ENDBRANCH  12  14
ENDBRANCH  11  12
ENDBRANCH  10  11
ENDBRANCH   9  10
ENDBRANCH   8   9
ENDBRANCH   2   3
TORSDOF 10
ENDMDL
MODEL      393
REMARK 921   NORMALIZED FREE ENERGY PREDICTED BY IDOCK:   -3.11 KCAL/MOL
REMARK 922        TOTAL FREE ENERGY PREDICTED BY IDOCK:   -6.77 KCAL/MOL
REMARK 923 INTER-LIGAND FREE ENERGY PREDICTED BY IDOCK:   -5.67 KCAL/MOL
REMARK 924 INTRA-LIGAND FREE ENERGY PREDICTED BY IDOCK:   -1.09 KCAL/MOL
REMARK 927      BINDING AFFINITY PREDICTED BY RF-SCORE:    0.00 PKD
ROOT
HETATM    1  C   UNL     1     -11.525  14.238  64.873  1.00  0.00    -0.378 C  
HETATM    2  O   UNL     1     -12.017  13.025  64.307  1.00  0.00    -0.358 OA 
ENDROOT
BRANCH   2   3
HETATM    3  C   UNL     1     -11.100  12.017  64.145  1.00  0.00    -0.368 A  
HETATM    4  C   UNL     1     -10.515  11.757  62.895  1.00  0.00    -0.016 A  
HETATM    5  C   UNL     1      -9.546  10.765  62.748  1.00  0.00    -0.337 A  
HETATM    6  C   UNL     1      -9.169   9.998  63.842  1.00  0.00    -0.317 A  
HETATM    7  C   UNL     1      -9.779  10.211  65.077  1.00  0.00    -0.384 A  
HETATM    8  C   UNL     1     -10.753  11.207  65.244  1.00  0.00    -0.203 A  
BRANCH   8   9
HETATM    9  O   UNL     1     -11.225  11.253  66.535  1.00  0.00    -0.273 OA 
BRANCH   9  10
HETATM   10  C   UNL     1     -10.425  11.930  67.495  1.00  0.00    -0.209 C  
BRANCH  10  11
HETATM   11  C   UNL     1     -10.692  11.367  68.901  1.00  0.00    -0.210 C  
BRANCH  11  12
HETATM   12  N   UNL     1     -11.276  10.013  68.900  1.00  0.00    -0.427 NA 
HETATM   13  H   UNL     1     -11.356   9.648  67.951  1.00  0.00     0.000 HD 
BRANCH  12  14
HETATM   14  C   UNL     1     -10.529   9.079  69.770  1.00  0.00    -0.218 C  
BRANCH  14  15
HETATM   15  C   UNL     1      -9.853   7.944  68.970  1.00  0.00    -0.171 C  
HETATM   16  O   UNL     1      -8.771   8.482  68.204  1.00  0.00    -0.140 OA 
HETATM   17  H   UNL     1      -8.354   7.783  67.712  1.00  0.00     0.000 HD 
BRANCH  15  18
HETATM   18  C   UNL     1      -9.355   6.848  69.921  1.00  0.00    -0.150 C  
BRANCH  18  19
HETATM   19  O   UNL     1     -10.098   5.646  69.746  1.00  0.00    -0.180 OA 
BRANCH  19  20
HETATM   20  C   UNL     1      -9.388   4.477  69.888  1.00  0.00    -0.148 A  
HETATM   21  C   UNL     1      -9.076   3.880  71.123  1.00  0.00    -0.184 A  
HETATM   22  C   UNL     1      -8.378   2.678  71.192  1.00  0.00    -0.082 A  
HETATM   23  C   UNL     1      -7.963   2.020  70.036  1.00  0.00    -0.053 A  
HETATM   24  C   UNL     1      -8.268   2.623  68.809  1.00  0.00    -0.055 A  
HETATM   25  C   UNL     1      -8.961   3.830  68.704  1.00  0.00    -0.176 A  
HETATM   26  C   UNL     1      -9.065   4.137  67.306  1.00  0.00    -0.161 A  
HETATM   27  C   UNL     1      -9.623   5.208  66.575  1.00  0.00    -0.166 A  
HETATM   28  C   UNL     1      -9.561   5.201  65.177  1.00  0.00     0.096 A  
HETATM   29  C   UNL     1      -8.952   4.144  64.504  1.00  0.00    -0.142 A  
HETATM   30  C   UNL     1      -8.386   3.073  65.203  1.00  0.00    -0.096 A  
HETATM   31  C   UNL     1      -8.456   3.102  66.602  1.00  0.00    -0.108 A  
HETATM   32  N   UNL     1      -7.986   2.207  67.528  1.00  0.00    -0.064 NA 
HETATM   33  H   UNL     1      -7.490   1.345  67.297  1.00  0.00     0.000 HD 
ENDBRANCH  19  20
ENDBRANCH  18  19
ENDBRANCH  15  18
ENDBRANCH  14  15
ENDBRANCH  12  14
ENDBRANCH  11  12
ENDBRANCH  10  11
ENDBRANCH   9  10
ENDBRANCH   8   9
ENDBRANCH   2   3
TORSDOF 10
ENDMDL
MODEL      394
REMARK 921   NORMALIZED FREE ENERGY PREDICTED BY IDOCK:   -3.08 KCAL/MOL
REMARK 922        TOTAL FREE ENERGY PREDICTED BY IDOCK:   -6.73 KCAL/MOL
REMARK 923 INTER-LIGAND FREE ENERGY PREDICTED BY IDOCK:   -6.44 KCAL/MOL
REMARK 924 INTRA-LIGAND FREE ENERGY PREDICTED BY IDOCK:   -0.28 KCAL/MOL
REMARK 927      BINDING AFFINITY PREDICTED BY RF-SCORE:    0.00 PKD
ROOT
HETATM    1  C   UNL     1     -12.766  11.832  63.493  1.00  0.00    -0.306 C  
HETATM    2  O   UNL     1     -11.988  12.988  63.190  1.00  0.00    -0.534 OA 
ENDROOT
BRANCH   2   3
HETATM    3  C   UNL     1     -11.272  13.527  64.230  1.00  0.00    -0.360 A  
HETATM    4  C   UNL     1     -11.502  14.841  64.670  1.00  0.00    -0.381 A  
HETATM    5  C   UNL     1     -10.806  15.365  65.759  1.00  0.00    -0.349 A  
HETATM    6  C   UNL     1      -9.852  14.593  66.408  1.00  0.00    -0.302 A  
HETATM    7  C   UNL     1      -9.579  13.305  65.949  1.00  0.00    -0.122 A  
HETATM    8  C   UNL     1     -10.270  12.761  64.857  1.00  0.00    -0.272 A  
BRANCH   8   9
HETATM    9  O   UNL     1      -9.852  11.483  64.569  1.00  0.00    -0.239 OA 
BRANCH   9  10
HETATM   10  C   UNL     1      -8.901  10.897  65.448  1.00  0.00    -0.180 C  
BRANCH  10  11
HETATM   11  C   UNL     1      -9.483   9.627  66.092  1.00  0.00    -0.217 C  
BRANCH  11  12
HETATM   12  N   UNL     1     -10.819   9.819  66.684  1.00  0.00    -0.026 NA 
HETATM   13  H   UNL     1     -11.522   9.263  66.197  1.00  0.00     0.000 HD 
BRANCH  12  14
HETATM   14  C   UNL     1     -10.834   9.544  68.138  1.00  0.00    -0.156 C  
BRANCH  14  15
HETATM   15  C   UNL     1      -9.618  10.159  68.865  1.00  0.00    -0.184 C  
HETATM   16  O   UNL     1     -10.016  10.599  70.167  1.00  0.00    -0.364 OA 
HETATM   17  H   UNL     1      -9.268  10.977  70.615  1.00  0.00     0.000 HD 
BRANCH  15  18
HETATM   18  C   UNL     1      -8.481   9.134  68.960  1.00  0.00    -0.132 C  
BRANCH  18  19
HETATM   19  O   UNL     1      -8.805   8.100  69.884  1.00  0.00    -0.137 OA 
BRANCH  19  20
HETATM   20  C   UNL     1      -8.760   6.819  69.389  1.00  0.00    -0.136 A  
HETATM   21  C   UNL     1      -8.250   6.470  68.125  1.00  0.00    -0.117 A  
HETATM   22  C   UNL     1      -8.208   5.146  67.699  1.00  0.00    -0.099 A  
HETATM   23  C   UNL     1      -8.671   4.113  68.513  1.00  0.00    -0.124 A  
HETATM   24  C   UNL     1      -9.186   4.466  69.767  1.00  0.00    -0.131 A  
HETATM   25  C   UNL     1      -9.248   5.784  70.223  1.00  0.00    -0.174 A  
HETATM   26  C   UNL     1      -9.848   5.752  71.526  1.00  0.00    -0.209 A  
HETATM   27  C   UNL     1     -10.193   6.741  72.472  1.00  0.00    -0.200 A  
HETATM   28  C   UNL     1     -10.777   6.366  73.687  1.00  0.00    -0.233 A  
HETATM   29  C   UNL     1     -11.019   5.023  73.967  1.00  0.00    -0.155 A  
HETATM   30  C   UNL     1     -10.692   4.022  73.047  1.00  0.00    -0.251 A  
HETATM   31  C   UNL     1     -10.112   4.421  71.835  1.00  0.00    -0.174 A  
HETATM   32  N   UNL     1      -9.706   3.670  70.762  1.00  0.00    -0.179 NA 
HETATM   33  H   UNL     1      -9.780   2.654  70.708  1.00  0.00     0.000 HD 
ENDBRANCH  19  20
ENDBRANCH  18  19
ENDBRANCH  15  18
ENDBRANCH  14  15
ENDBRANCH  12  14
ENDBRANCH  11  12
ENDBRANCH  10  11
ENDBRANCH   9  10
ENDBRANCH   8   9
ENDBRANCH   2   3
TORSDOF 10
ENDMDL
MODEL      395
REMARK 921   NORMALIZED FREE ENERGY PREDICTED BY IDOCK:   -3.07 KCAL/MOL
REMARK 922        TOTAL FREE ENERGY PREDICTED BY IDOCK:   -6.72 KCAL/MOL
REMARK 923 INTER-LIGAND FREE ENERGY PREDICTED BY IDOCK:   -5.92 KCAL/MOL
REMARK 924 INTRA-LIGAND FREE ENERGY PREDICTED BY IDOCK:   -0.80 KCAL/MOL
REMARK 927      BINDING AFFINITY PREDICTED BY RF-SCORE:    0.00 PKD
ROOT
HETATM    1  C   UNL     1      -5.705   6.558  64.281  1.00  0.00    -0.030 C  
HETATM    2  O   UNL     1      -5.736   6.675  65.702  1.00  0.00    -0.028 OA 
ENDROOT
BRANCH   2   3
HETATM    3  C   UNL     1      -5.955   5.515  66.401  1.00  0.00    -0.018 A  
HETATM    4  C   UNL     1      -5.611   4.264  65.863  1.00  0.00    -0.017 A  
HETATM    5  C   UNL     1      -5.789   3.093  66.600  1.00  0.00    -0.023 A  
HETATM    6  C   UNL     1      -6.339   3.152  67.873  1.00  0.00    -0.033 A  
HETATM    7  C   UNL     1      -6.731   4.383  68.398  1.00  0.00    -0.047 A  
HETATM    8  C   UNL     1      -6.557   5.571  67.673  1.00  0.00    -0.053 A  
BRANCH   8   9
HETATM    9  O   UNL     1      -7.007   6.668  68.369  1.00  0.00    -0.074 OA 
BRANCH   9  10
HETATM   10  C   UNL     1      -6.032   7.454  69.044  1.00  0.00    -0.030 C  
BRANCH  10  11
HETATM   11  C   UNL     1      -6.701   8.658  69.727  1.00  0.00    -0.042 C  
BRANCH  11  12
HETATM   12  N   UNL     1      -6.674   9.892  68.919  1.00  0.00    -0.053 NA 
HETATM   13  H   UNL     1      -6.678   9.679  67.922  1.00  0.00     0.000 HD 
BRANCH  12  14
HETATM   14  C   UNL     1      -7.773  10.818  69.272  1.00  0.00    -0.129 C  
BRANCH  14  15
HETATM   15  C   UNL     1      -9.162  10.155  69.150  1.00  0.00    -0.197 C  
HETATM   16  O   UNL     1     -10.046  10.724  70.120  1.00  0.00    -0.345 OA 
HETATM   17  H   UNL     1     -10.902  10.317  70.045  1.00  0.00     0.000 HD 
BRANCH  15  18
HETATM   18  C   UNL     1      -9.717  10.340  67.732  1.00  0.00    -0.156 C  
BRANCH  18  19
HETATM   19  O   UNL     1      -9.699  11.713  67.354  1.00  0.00    -0.175 OA 
BRANCH  19  20
HETATM   20  C   UNL     1     -10.131  11.988  66.078  1.00  0.00    -0.230 A  
HETATM   21  C   UNL     1     -10.363  11.016  65.088  1.00  0.00    -0.346 A  
HETATM   22  C   UNL     1     -10.829  11.364  63.824  1.00  0.00    -0.468 A  
HETATM   23  C   UNL     1     -11.084  12.693  63.492  1.00  0.00    -0.449 A  
HETATM   24  C   UNL     1     -10.843  13.659  64.478  1.00  0.00    -0.406 A  
HETATM   25  C   UNL     1     -10.370  13.345  65.753  1.00  0.00    -0.296 A  
HETATM   26  C   UNL     1     -10.229  14.582  66.467  1.00  0.00    -0.282 A  
HETATM   27  C   UNL     1      -9.785  14.922  67.764  1.00  0.00    -0.212 A  
HETATM   28  C   UNL     1      -9.775  16.262  68.164  1.00  0.00    -0.227 A  
HETATM   29  C   UNL     1     -10.201  17.262  67.293  1.00  0.00    -0.320 A  
HETATM   30  C   UNL     1     -10.641  16.954  66.001  1.00  0.00    -0.221 A  
HETATM   31  C   UNL     1     -10.638  15.606  65.619  1.00  0.00    -0.378 A  
HETATM   32  N   UNL     1     -11.001  15.025  64.431  1.00  0.00    -0.635 NA 
HETATM   33  H   UNL     1     -11.344  15.539  63.619  1.00  0.00     0.000 HD 
ENDBRANCH  19  20
ENDBRANCH  18  19
ENDBRANCH  15  18
ENDBRANCH  14  15
ENDBRANCH  12  14
ENDBRANCH  11  12
ENDBRANCH  10  11
ENDBRANCH   9  10
ENDBRANCH   8   9
ENDBRANCH   2   3
TORSDOF 10
ENDMDL
MODEL      396
REMARK 921   NORMALIZED FREE ENERGY PREDICTED BY IDOCK:   -3.07 KCAL/MOL
REMARK 922        TOTAL FREE ENERGY PREDICTED BY IDOCK:   -6.71 KCAL/MOL
REMARK 923 INTER-LIGAND FREE ENERGY PREDICTED BY IDOCK:   -7.04 KCAL/MOL
REMARK 924 INTRA-LIGAND FREE ENERGY PREDICTED BY IDOCK:    0.33 KCAL/MOL
REMARK 927      BINDING AFFINITY PREDICTED BY RF-SCORE:    0.00 PKD
ROOT
HETATM    1  C   UNL     1     -12.122   7.637  71.274  1.00  0.00    -0.314 C  
HETATM    2  O   UNL     1     -11.662   6.765  72.303  1.00  0.00    -0.281 OA 
ENDROOT
BRANCH   2   3
HETATM    3  C   UNL     1     -10.827   5.750  71.910  1.00  0.00    -0.252 A  
HETATM    4  C   UNL     1     -10.060   5.033  72.843  1.00  0.00    -0.206 A  
HETATM    5  C   UNL     1      -9.251   3.970  72.441  1.00  0.00    -0.153 A  
HETATM    6  C   UNL     1      -9.176   3.625  71.098  1.00  0.00    -0.196 A  
HETATM    7  C   UNL     1      -9.892   4.362  70.157  1.00  0.00    -0.288 A  
HETATM    8  C   UNL     1     -10.713   5.432  70.542  1.00  0.00    -0.196 A  
BRANCH   8   9
HETATM    9  O   UNL     1     -11.330   6.021  69.464  1.00  0.00    -0.405 OA 
BRANCH   9  10
HETATM   10  C   UNL     1     -10.531   6.270  68.314  1.00  0.00    -0.228 C  
BRANCH  10  11
HETATM   11  C   UNL     1      -9.449   7.315  68.634  1.00  0.00    -0.137 C  
BRANCH  11  12
HETATM   12  N   UNL     1      -8.230   7.179  67.817  1.00  0.00    -0.114 NA 
HETATM   13  H   UNL     1      -8.428   6.709  66.933  1.00  0.00     0.000 HD 
BRANCH  12  14
HETATM   14  C   UNL     1      -7.557   8.477  67.591  1.00  0.00    -0.098 C  
BRANCH  14  15
HETATM   15  C   UNL     1      -7.456   8.834  66.092  1.00  0.00    -0.090 C  
HETATM   16  O   UNL     1      -7.764   7.679  65.307  1.00  0.00    -0.096 OA 
HETATM   17  H   UNL     1      -7.702   7.899  64.384  1.00  0.00     0.000 HD 
BRANCH  15  18
HETATM   18  C   UNL     1      -8.407   9.990  65.756  1.00  0.00    -0.132 C  
BRANCH  18  19
HETATM   19  O   UNL     1      -9.047  10.480  66.930  1.00  0.00    -0.146 OA 
BRANCH  19  20
HETATM   20  C   UNL     1      -8.821  11.803  67.227  1.00  0.00    -0.167 A  
HETATM   21  C   UNL     1      -7.915  12.257  68.203  1.00  0.00    -0.155 A  
HETATM   22  C   UNL     1      -7.714  13.615  68.431  1.00  0.00    -0.138 A  
HETATM   23  C   UNL     1      -8.406  14.578  67.698  1.00  0.00    -0.188 A  
HETATM   24  C   UNL     1      -9.314  14.121  66.734  1.00  0.00    -0.282 A  
HETATM   25  C   UNL     1      -9.544  12.767  66.483  1.00  0.00    -0.257 A  
HETATM   26  C   UNL     1     -10.543  12.691  65.456  1.00  0.00    -0.301 A  
HETATM   27  C   UNL     1     -11.197  11.625  64.800  1.00  0.00    -0.300 A  
HETATM   28  C   UNL     1     -12.146  11.900  63.809  1.00  0.00    -0.547 A  
HETATM   29  C   UNL     1     -12.448  13.216  63.467  1.00  0.00    -0.361 A  
HETATM   30  C   UNL     1     -11.819  14.290  64.103  1.00  0.00    -0.338 A  
HETATM   31  C   UNL     1     -10.875  13.993  65.096  1.00  0.00    -0.369 A  
HETATM   32  N   UNL     1     -10.124  14.832  65.878  1.00  0.00    -0.303 NA 
HETATM   33  H   UNL     1     -10.161  15.851  65.832  1.00  0.00     0.000 HD 
ENDBRANCH  19  20
ENDBRANCH  18  19
ENDBRANCH  15  18
ENDBRANCH  14  15
ENDBRANCH  12  14
ENDBRANCH  11  12
ENDBRANCH  10  11
ENDBRANCH   9  10
ENDBRANCH   8   9
ENDBRANCH   2   3
TORSDOF 10
ENDMDL
MODEL      397
REMARK 921   NORMALIZED FREE ENERGY PREDICTED BY IDOCK:   -3.06 KCAL/MOL
REMARK 922        TOTAL FREE ENERGY PREDICTED BY IDOCK:   -6.69 KCAL/MOL
REMARK 923 INTER-LIGAND FREE ENERGY PREDICTED BY IDOCK:   -5.33 KCAL/MOL
REMARK 924 INTRA-LIGAND FREE ENERGY PREDICTED BY IDOCK:   -1.36 KCAL/MOL
REMARK 927      BINDING AFFINITY PREDICTED BY RF-SCORE:    0.00 PKD
ROOT
HETATM    1  C   UNL     1     -12.223  13.647  69.849  1.00  0.00    -0.304 C  
HETATM    2  O   UNL     1     -11.044  12.846  69.896  1.00  0.00     0.057 OA 
ENDROOT
BRANCH   2   3
HETATM    3  C   UNL     1     -10.827  12.023  68.820  1.00  0.00    -0.230 A  
HETATM    4  C   UNL     1     -11.241  12.388  67.528  1.00  0.00    -0.348 A  
HETATM    5  C   UNL     1     -10.971  11.570  66.431  1.00  0.00    -0.336 A  
HETATM    6  C   UNL     1     -10.309  10.363  66.612  1.00  0.00    -0.292 A  
HETATM    7  C   UNL     1      -9.939   9.967  67.895  1.00  0.00    -0.190 A  
HETATM    8  C   UNL     1     -10.198  10.777  69.011  1.00  0.00    -0.213 A  
BRANCH   8   9
HETATM    9  O   UNL     1      -9.752  10.204  70.178  1.00  0.00    -0.190 OA 
BRANCH   9  10
HETATM   10  C   UNL     1      -8.828   9.129  70.062  1.00  0.00    -0.182 C  
BRANCH  10  11
HETATM   11  C   UNL     1      -8.363   8.676  71.456  1.00  0.00    -0.166 C  
BRANCH  11  12
HETATM   12  N   UNL     1      -8.371   7.213  71.641  1.00  0.00    -0.110 NA 
HETATM   13  H   UNL     1      -9.063   6.770  71.038  1.00  0.00     0.000 HD 
BRANCH  12  14
HETATM   14  C   UNL     1      -7.032   6.616  71.446  1.00  0.00    -0.075 C  
BRANCH  14  15
HETATM   15  C   UNL     1      -7.041   5.482  70.397  1.00  0.00    -0.062 C  
HETATM   16  O   UNL     1      -5.711   4.981  70.228  1.00  0.00    -0.015 OA 
HETATM   17  H   UNL     1      -5.717   4.284  69.582  1.00  0.00     0.000 HD 
BRANCH  15  18
HETATM   18  C   UNL     1      -7.994   4.362  70.833  1.00  0.00    -0.068 C  
BRANCH  18  19
HETATM   19  O   UNL     1      -8.686   3.819  69.713  1.00  0.00    -0.069 OA 
BRANCH  19  20
HETATM   20  C   UNL     1      -9.506   4.690  69.036  1.00  0.00    -0.155 A  
HETATM   21  C   UNL     1     -10.501   5.481  69.640  1.00  0.00    -0.379 A  
HETATM   22  C   UNL     1     -11.276   6.364  68.896  1.00  0.00    -0.385 A  
HETATM   23  C   UNL     1     -11.094   6.499  67.521  1.00  0.00    -0.396 A  
HETATM   24  C   UNL     1     -10.109   5.703  66.922  1.00  0.00    -0.193 A  
HETATM   25  C   UNL     1      -9.318   4.803  67.637  1.00  0.00    -0.161 A  
HETATM   26  C   UNL     1      -8.448   4.162  66.693  1.00  0.00    -0.104 A  
HETATM   27  C   UNL     1      -7.454   3.164  66.793  1.00  0.00    -0.075 A  
HETATM   28  C   UNL     1      -6.765   2.755  65.647  1.00  0.00    -0.040 A  
HETATM   29  C   UNL     1      -7.053   3.325  64.409  1.00  0.00    -0.057 A  
HETATM   30  C   UNL     1      -8.036   4.311  64.279  1.00  0.00    -0.090 A  
HETATM   31  C   UNL     1      -8.717   4.704  65.439  1.00  0.00    -0.134 A  
HETATM   32  N   UNL     1      -9.718   5.626  65.605  1.00  0.00    -0.368 NA 
HETATM   33  H   UNL     1     -10.122   6.182  64.850  1.00  0.00     0.000 HD 
ENDBRANCH  19  20
ENDBRANCH  18  19
ENDBRANCH  15  18
ENDBRANCH  14  15
ENDBRANCH  12  14
ENDBRANCH  11  12
ENDBRANCH  10  11
ENDBRANCH   9  10
ENDBRANCH   8   9
ENDBRANCH   2   3
TORSDOF 10
ENDMDL
MODEL      398
REMARK 921   NORMALIZED FREE ENERGY PREDICTED BY IDOCK:   -3.00 KCAL/MOL
REMARK 922        TOTAL FREE ENERGY PREDICTED BY IDOCK:   -6.61 KCAL/MOL
REMARK 923 INTER-LIGAND FREE ENERGY PREDICTED BY IDOCK:   -5.75 KCAL/MOL
REMARK 924 INTRA-LIGAND FREE ENERGY PREDICTED BY IDOCK:   -0.86 KCAL/MOL
REMARK 927      BINDING AFFINITY PREDICTED BY RF-SCORE:    0.00 PKD
ROOT
HETATM    1  C   UNL     1     -10.181  11.334  68.511  1.00  0.00    -0.205 C  
HETATM    2  O   UNL     1      -9.741  11.874  67.267  1.00  0.00    -0.182 OA 
ENDROOT
BRANCH   2   3
HETATM    3  C   UNL     1      -8.784  12.855  67.336  1.00  0.00    -0.197 A  
HETATM    4  C   UNL     1      -9.134  14.216  67.361  1.00  0.00    -0.199 A  
HETATM    5  C   UNL     1      -8.159  15.205  67.483  1.00  0.00    -0.196 A  
HETATM    6  C   UNL     1      -6.818  14.852  67.555  1.00  0.00    -0.189 A  
HETATM    7  C   UNL     1      -6.455  13.509  67.480  1.00  0.00    -0.113 A  
HETATM    8  C   UNL     1      -7.421  12.499  67.360  1.00  0.00    -0.153 A  
BRANCH   8   9
HETATM    9  O   UNL     1      -6.854  11.248  67.304  1.00  0.00    -0.091 OA 
BRANCH   9  10
HETATM   10  C   UNL     1      -6.925  10.556  66.064  1.00  0.00    -0.134 C  
BRANCH  10  11
HETATM   11  C   UNL     1      -6.424   9.112  66.232  1.00  0.00    -0.066 C  
BRANCH  11  12
HETATM   12  N   UNL     1      -7.504   8.122  66.396  1.00  0.00    -0.085 NA 
HETATM   13  H   UNL     1      -8.169   8.170  65.623  1.00  0.00     0.000 HD 
BRANCH  12  14
HETATM   14  C   UNL     1      -6.985   6.748  66.568  1.00  0.00    -0.063 C  
BRANCH  14  15
HETATM   15  C   UNL     1      -7.098   6.255  68.028  1.00  0.00    -0.082 C  
HETATM   16  O   UNL     1      -5.835   6.411  68.681  1.00  0.00    -0.018 OA 
HETATM   17  H   UNL     1      -5.905   6.108  69.579  1.00  0.00     0.000 HD 
BRANCH  15  18
HETATM   18  C   UNL     1      -8.193   7.034  68.767  1.00  0.00    -0.122 C  
BRANCH  18  19
HETATM   19  O   UNL     1      -8.280   6.622  70.128  1.00  0.00    -0.128 OA 
BRANCH  19  20
HETATM   20  C   UNL     1      -9.303   7.178  70.857  1.00  0.00    -0.160 A  
HETATM   21  C   UNL     1      -9.693   8.529  70.784  1.00  0.00    -0.221 A  
HETATM   22  C   UNL     1     -10.760   9.018  71.531  1.00  0.00    -0.421 A  
HETATM   23  C   UNL     1     -11.484   8.185  72.382  1.00  0.00    -0.462 A  
HETATM   24  C   UNL     1     -11.088   6.844  72.459  1.00  0.00    -0.266 A  
HETATM   25  C   UNL     1     -10.019   6.321  71.728  1.00  0.00    -0.193 A  
HETATM   26  C   UNL     1      -9.903   4.935  72.081  1.00  0.00    -0.226 A  
HETATM   27  C   UNL     1      -9.025   3.896  71.704  1.00  0.00    -0.157 A  
HETATM   28  C   UNL     1      -9.193   2.616  72.244  1.00  0.00    -0.145 A  
HETATM   29  C   UNL     1     -10.220   2.362  73.149  1.00  0.00    -0.207 A  
HETATM   30  C   UNL     1     -11.102   3.373  73.543  1.00  0.00    -0.317 A  
HETATM   31  C   UNL     1     -10.913   4.648  72.994  1.00  0.00    -0.251 A  
HETATM   32  N   UNL     1     -11.609   5.811  73.204  1.00  0.00    -0.503 NA 
HETATM   33  H   UNL     1     -12.409   5.900  73.832  1.00  0.00     0.000 HD 
ENDBRANCH  19  20
ENDBRANCH  18  19
ENDBRANCH  15  18
ENDBRANCH  14  15
ENDBRANCH  12  14
ENDBRANCH  11  12
ENDBRANCH  10  11
ENDBRANCH   9  10
ENDBRANCH   8   9
ENDBRANCH   2   3
TORSDOF 10
ENDMDL
MODEL      399
REMARK 921   NORMALIZED FREE ENERGY PREDICTED BY IDOCK:   -2.97 KCAL/MOL
REMARK 922        TOTAL FREE ENERGY PREDICTED BY IDOCK:   -6.56 KCAL/MOL
REMARK 923 INTER-LIGAND FREE ENERGY PREDICTED BY IDOCK:   -6.17 KCAL/MOL
REMARK 924 INTRA-LIGAND FREE ENERGY PREDICTED BY IDOCK:   -0.39 KCAL/MOL
REMARK 927      BINDING AFFINITY PREDICTED BY RF-SCORE:    0.00 PKD
ROOT
HETATM    1  C   UNL     1      -9.179  10.584  64.057  1.00  0.00    -0.253 C  
HETATM    2  O   UNL     1      -9.486  11.899  63.598  1.00  0.00    -0.162 OA 
ENDROOT
BRANCH   2   3
HETATM    3  C   UNL     1     -10.696  12.410  63.993  1.00  0.00    -0.404 A  
HETATM    4  C   UNL     1     -11.897  11.732  63.726  1.00  0.00    -0.484 A  
HETATM    5  C   UNL     1     -13.119  12.233  64.174  1.00  0.00    -0.144 A  
HETATM    6  C   UNL     1     -13.162  13.433  64.871  1.00  0.00     0.233 A  
HETATM    7  C   UNL     1     -11.984  14.141  65.098  1.00  0.00    -0.390 A  
HETATM    8  C   UNL     1     -10.745  13.652  64.657  1.00  0.00    -0.421 A  
BRANCH   8   9
HETATM    9  O   UNL     1      -9.712  14.498  64.984  1.00  0.00    -0.146 OA 
BRANCH   9  10
HETATM   10  C   UNL     1      -9.958  15.895  64.877  1.00  0.00     0.482 C  
BRANCH  10  11
HETATM   11  C   UNL     1      -9.760  16.575  66.242  1.00  0.00    -0.305 C  
BRANCH  11  12
HETATM   12  N   UNL     1      -9.340  17.985  66.150  1.00  0.00    -0.503 NA 
HETATM   13  H   UNL     1      -9.858  18.568  66.807  1.00  0.00     0.000 HD 
BRANCH  12  14
HETATM   14  C   UNL     1      -7.881  18.149  66.327  1.00  0.00    -0.245 C  
BRANCH  14  15
HETATM   15  C   UNL     1      -7.283  17.097  67.287  1.00  0.00    -0.163 C  
HETATM   16  O   UNL     1      -5.945  17.472  67.628  1.00  0.00    -0.139 OA 
HETATM   17  H   UNL     1      -5.577  16.824  68.219  1.00  0.00     0.000 HD 
BRANCH  15  18
HETATM   18  C   UNL     1      -8.151  16.971  68.545  1.00  0.00    -0.251 C  
BRANCH  18  19
HETATM   19  O   UNL     1      -8.321  15.606  68.911  1.00  0.00    -0.176 OA 
BRANCH  19  20
HETATM   20  C   UNL     1      -9.621  15.180  69.049  1.00  0.00    -0.229 A  
HETATM   21  C   UNL     1     -10.685  15.995  69.477  1.00  0.00    -0.298 A  
HETATM   22  C   UNL     1     -11.984  15.504  69.566  1.00  0.00    -0.372 A  
HETATM   23  C   UNL     1     -12.279  14.184  69.231  1.00  0.00    -0.308 A  
HETATM   24  C   UNL     1     -11.215  13.374  68.813  1.00  0.00    -0.275 A  
HETATM   25  C   UNL     1      -9.900  13.832  68.719  1.00  0.00    -0.093 A  
HETATM   26  C   UNL     1      -9.097  12.725  68.283  1.00  0.00    -0.180 A  
HETATM   27  C   UNL     1      -7.719  12.552  68.027  1.00  0.00    -0.140 A  
HETATM   28  C   UNL     1      -7.245  11.308  67.595  1.00  0.00    -0.092 A  
HETATM   29  C   UNL     1      -8.124  10.242  67.416  1.00  0.00    -0.110 A  
HETATM   30  C   UNL     1      -9.492  10.384  67.667  1.00  0.00    -0.165 A  
HETATM   31  C   UNL     1      -9.945  11.636  68.103  1.00  0.00    -0.195 A  
HETATM   32  N   UNL     1     -11.210  12.053  68.429  1.00  0.00    -0.239 NA 
HETATM   33  H   UNL     1     -12.040  11.460  68.392  1.00  0.00     0.000 HD 
ENDBRANCH  19  20
ENDBRANCH  18  19
ENDBRANCH  15  18
ENDBRANCH  14  15
ENDBRANCH  12  14
ENDBRANCH  11  12
ENDBRANCH  10  11
ENDBRANCH   9  10
ENDBRANCH   8   9
ENDBRANCH   2   3
TORSDOF 10
ENDMDL
MODEL      400
REMARK 921   NORMALIZED FREE ENERGY PREDICTED BY IDOCK:   -2.95 KCAL/MOL
REMARK 922        TOTAL FREE ENERGY PREDICTED BY IDOCK:   -6.51 KCAL/MOL
REMARK 923 INTER-LIGAND FREE ENERGY PREDICTED BY IDOCK:   -5.76 KCAL/MOL
REMARK 924 INTRA-LIGAND FREE ENERGY PREDICTED BY IDOCK:   -0.75 KCAL/MOL
REMARK 927      BINDING AFFINITY PREDICTED BY RF-SCORE:    0.00 PKD
ROOT
HETATM    1  C   UNL     1     -11.629  14.348  64.901  1.00  0.00    -0.395 C  
HETATM    2  O   UNL     1     -12.086  13.107  64.368  1.00  0.00    -0.375 OA 
ENDROOT
BRANCH   2   3
HETATM    3  C   UNL     1     -11.243  12.035  64.519  1.00  0.00    -0.332 A  
HETATM    4  C   UNL     1     -10.386  11.629  63.483  1.00  0.00    -0.488 A  
HETATM    5  C   UNL     1      -9.496  10.570  63.661  1.00  0.00    -0.347 A  
HETATM    6  C   UNL     1      -9.468   9.884  64.868  1.00  0.00    -0.355 A  
HETATM    7  C   UNL     1     -10.349  10.245  65.886  1.00  0.00    -0.241 A  
HETATM    8  C   UNL     1     -11.249  11.308  65.726  1.00  0.00    -0.014 A  
BRANCH   8   9
HETATM    9  O   UNL     1     -12.023  11.499  66.846  1.00  0.00    -0.516 OA 
BRANCH   9  10
HETATM   10  C   UNL     1     -11.454  12.252  67.909  1.00  0.00    -0.330 C  
BRANCH  10  11
HETATM   11  C   UNL     1     -12.148  11.905  69.237  1.00  0.00    -0.210 C  
BRANCH  11  12
HETATM   12  N   UNL     1     -12.649  10.520  69.303  1.00  0.00    -0.659 NA 
HETATM   13  H   UNL     1     -12.548  10.048  68.404  1.00  0.00     0.000 HD 
BRANCH  12  14
HETATM   14  C   UNL     1     -12.012   9.743  70.388  1.00  0.00    -0.148 C  
BRANCH  14  15
HETATM   15  C   UNL     1     -10.806   8.917  69.890  1.00  0.00    -0.211 C  
HETATM   16  O   UNL     1      -9.742   9.801  69.527  1.00  0.00    -0.186 OA 
HETATM   17  H   UNL     1      -8.999   9.293  69.220  1.00  0.00     0.000 HD 
BRANCH  15  18
HETATM   18  C   UNL     1     -10.351   7.933  70.975  1.00  0.00    -0.201 C  
BRANCH  18  19
HETATM   19  O   UNL     1     -10.563   6.587  70.563  1.00  0.00    -0.216 OA 
BRANCH  19  20
HETATM   20  C   UNL     1     -10.843   5.691  71.568  1.00  0.00    -0.230 A  
HETATM   21  C   UNL     1     -12.099   5.554  72.188  1.00  0.00     0.256 A  
HETATM   22  C   UNL     1     -12.319   4.604  73.180  1.00  0.00     0.441 A  
HETATM   23  C   UNL     1     -11.300   3.749  73.596  1.00  0.00    -0.231 A  
HETATM   24  C   UNL     1     -10.049   3.895  72.983  1.00  0.00    -0.150 A  
HETATM   25  C   UNL     1      -9.792   4.841  71.990  1.00  0.00    -0.234 A  
HETATM   26  C   UNL     1      -8.411   4.706  71.624  1.00  0.00    -0.105 A  
HETATM   27  C   UNL     1      -7.567   5.375  70.711  1.00  0.00    -0.088 A  
HETATM   28  C   UNL     1      -6.230   4.982  70.588  1.00  0.00    -0.019 A  
HETATM   29  C   UNL     1      -5.728   3.936  71.358  1.00  0.00    -0.012 A  
HETATM   30  C   UNL     1      -6.540   3.259  72.273  1.00  0.00    -0.015 A  
HETATM   31  C   UNL     1      -7.874   3.671  72.384  1.00  0.00    -0.068 A  
HETATM   32  N   UNL     1      -8.878   3.202  73.193  1.00  0.00    -0.080 NA 
HETATM   33  H   UNL     1      -8.771   2.440  73.862  1.00  0.00     0.000 HD 
ENDBRANCH  19  20
ENDBRANCH  18  19
ENDBRANCH  15  18
ENDBRANCH  14  15
ENDBRANCH  12  14
ENDBRANCH  11  12
ENDBRANCH  10  11
ENDBRANCH   9  10
ENDBRANCH   8   9
ENDBRANCH   2   3
TORSDOF 10
ENDMDL
MODEL      401
REMARK 921   NORMALIZED FREE ENERGY PREDICTED BY IDOCK:   -2.95 KCAL/MOL
REMARK 922        TOTAL FREE ENERGY PREDICTED BY IDOCK:   -6.51 KCAL/MOL
REMARK 923 INTER-LIGAND FREE ENERGY PREDICTED BY IDOCK:   -4.68 KCAL/MOL
REMARK 924 INTRA-LIGAND FREE ENERGY PREDICTED BY IDOCK:   -1.83 KCAL/MOL
REMARK 927      BINDING AFFINITY PREDICTED BY RF-SCORE:    0.00 PKD
ROOT
HETATM    1  C   UNL     1      -8.142   2.313  70.078  1.00  0.00    -0.041 C  
HETATM    2  O   UNL     1      -8.837   2.146  68.845  1.00  0.00    -0.074 OA 
ENDROOT
BRANCH   2   3
HETATM    3  C   UNL     1      -8.288   2.766  67.751  1.00  0.00    -0.081 A  
HETATM    4  C   UNL     1      -7.020   2.401  67.266  1.00  0.00    -0.044 A  
HETATM    5  C   UNL     1      -6.490   2.999  66.124  1.00  0.00    -0.029 A  
HETATM    6  C   UNL     1      -7.205   3.990  65.464  1.00  0.00    -0.068 A  
HETATM    7  C   UNL     1      -8.440   4.396  65.964  1.00  0.00    -0.113 A  
HETATM    8  C   UNL     1      -8.992   3.805  67.111  1.00  0.00    -0.143 A  
BRANCH   8   9
HETATM    9  O   UNL     1     -10.213   4.347  67.433  1.00  0.00    -0.084 OA 
BRANCH   9  10
HETATM   10  C   UNL     1     -10.211   5.596  68.113  1.00  0.00    -0.186 C  
BRANCH  10  11
HETATM   11  C   UNL     1     -10.350   5.376  69.628  1.00  0.00    -0.291 C  
BRANCH  11  12
HETATM   12  N   UNL     1     -10.126   6.593  70.430  1.00  0.00    -0.182 NA 
HETATM   13  H   UNL     1     -10.717   6.601  71.261  1.00  0.00     0.000 HD 
BRANCH  12  14
HETATM   14  C   UNL     1      -8.701   6.776  70.786  1.00  0.00    -0.146 C  
BRANCH  14  15
HETATM   15  C   UNL     1      -8.416   8.178  71.367  1.00  0.00    -0.126 C  
HETATM   16  O   UNL     1      -7.467   8.066  72.432  1.00  0.00    -0.094 OA 
HETATM   17  H   UNL     1      -7.292   8.929  72.790  1.00  0.00     0.000 HD 
BRANCH  15  18
HETATM   18  C   UNL     1      -7.895   9.113  70.269  1.00  0.00    -0.125 C  
BRANCH  18  19
HETATM   19  O   UNL     1      -8.806   9.172  69.176  1.00  0.00    -0.140 OA 
BRANCH  19  20
HETATM   20  C   UNL     1      -8.293   8.820  67.950  1.00  0.00    -0.118 A  
HETATM   21  C   UNL     1      -7.239   7.908  67.758  1.00  0.00    -0.091 A  
HETATM   22  C   UNL     1      -6.789   7.575  66.484  1.00  0.00    -0.062 A  
HETATM   23  C   UNL     1      -7.371   8.135  65.348  1.00  0.00    -0.069 A  
HETATM   24  C   UNL     1      -8.414   9.049  65.543  1.00  0.00    -0.144 A  
HETATM   25  C   UNL     1      -8.885   9.409  66.806  1.00  0.00    -0.142 A  
HETATM   26  C   UNL     1      -9.931  10.372  66.609  1.00  0.00    -0.262 A  
HETATM   27  C   UNL     1     -10.765  11.109  67.478  1.00  0.00    -0.280 A  
HETATM   28  C   UNL     1     -11.717  11.986  66.948  1.00  0.00    -0.342 A  
HETATM   29  C   UNL     1     -11.847  12.135  65.569  1.00  0.00    -0.350 A  
HETATM   30  C   UNL     1     -11.033  11.421  64.685  1.00  0.00    -0.324 A  
HETATM   31  C   UNL     1     -10.083  10.552  65.237  1.00  0.00    -0.300 A  
HETATM   32  N   UNL     1      -9.159   9.747  64.620  1.00  0.00    -0.231 NA 
HETATM   33  H   UNL     1      -9.040   9.675  63.610  1.00  0.00     0.000 HD 
ENDBRANCH  19  20
ENDBRANCH  18  19
ENDBRANCH  15  18
ENDBRANCH  14  15
ENDBRANCH  12  14
ENDBRANCH  11  12
ENDBRANCH  10  11
ENDBRANCH   9  10
ENDBRANCH   8   9
ENDBRANCH   2   3
TORSDOF 10
ENDMDL
MODEL      402
REMARK 921   NORMALIZED FREE ENERGY PREDICTED BY IDOCK:   -2.92 KCAL/MOL
REMARK 922        TOTAL FREE ENERGY PREDICTED BY IDOCK:   -6.48 KCAL/MOL
REMARK 923 INTER-LIGAND FREE ENERGY PREDICTED BY IDOCK:   -5.62 KCAL/MOL
REMARK 924 INTRA-LIGAND FREE ENERGY PREDICTED BY IDOCK:   -0.87 KCAL/MOL
REMARK 927      BINDING AFFINITY PREDICTED BY RF-SCORE:    0.00 PKD
ROOT
HETATM    1  C   UNL     1     -10.798   6.527  68.580  1.00  0.00    -0.288 C  
HETATM    2  O   UNL     1      -9.702   7.347  68.182  1.00  0.00    -0.147 OA 
ENDROOT
BRANCH   2   3
HETATM    3  C   UNL     1      -8.452   6.893  68.522  1.00  0.00    -0.123 A  
HETATM    4  C   UNL     1      -7.941   7.067  69.819  1.00  0.00    -0.124 A  
HETATM    5  C   UNL     1      -6.691   6.559  70.172  1.00  0.00    -0.049 A  
HETATM    6  C   UNL     1      -5.921   5.894  69.227  1.00  0.00    -0.027 A  
HETATM    7  C   UNL     1      -6.395   5.760  67.923  1.00  0.00    -0.041 A  
HETATM    8  C   UNL     1      -7.651   6.262  67.550  1.00  0.00    -0.097 A  
BRANCH   8   9
HETATM    9  O   UNL     1      -7.928   6.024  66.225  1.00  0.00    -0.102 OA 
BRANCH   9  10
HETATM   10  C   UNL     1      -8.460   7.103  65.468  1.00  0.00    -0.107 C  
BRANCH  10  11
HETATM   11  C   UNL     1      -7.494   8.299  65.496  1.00  0.00    -0.077 C  
BRANCH  11  12
HETATM   12  N   UNL     1      -8.162   9.599  65.692  1.00  0.00    -0.117 NA 
HETATM   13  H   UNL     1      -9.054   9.487  66.173  1.00  0.00     0.000 HD 
BRANCH  12  14
HETATM   14  C   UNL     1      -7.297  10.574  66.392  1.00  0.00    -0.129 C  
BRANCH  14  15
HETATM   15  C   UNL     1      -7.178  10.275  67.902  1.00  0.00    -0.085 C  
HETATM   16  O   UNL     1      -5.805  10.359  68.296  1.00  0.00    -0.041 OA 
HETATM   17  H   UNL     1      -5.731  10.175  69.225  1.00  0.00     0.000 HD 
BRANCH  15  18
HETATM   18  C   UNL     1      -8.036  11.258  68.708  1.00  0.00    -0.130 C  
BRANCH  18  19
HETATM   19  O   UNL     1      -8.919  11.979  67.856  1.00  0.00    -0.167 OA 
BRANCH  19  20
HETATM   20  C   UNL     1      -8.615  13.306  67.663  1.00  0.00    -0.196 A  
HETATM   21  C   UNL     1      -7.604  14.001  68.353  1.00  0.00    -0.129 A  
HETATM   22  C   UNL     1      -7.330  15.338  68.085  1.00  0.00    -0.119 A  
HETATM   23  C   UNL     1      -8.049  16.041  67.120  1.00  0.00    -0.232 A  
HETATM   24  C   UNL     1      -9.060  15.348  66.442  1.00  0.00    -0.314 A  
HETATM   25  C   UNL     1      -9.365  14.009  66.689  1.00  0.00    -0.292 A  
HETATM   26  C   UNL     1     -10.458  13.658  65.827  1.00  0.00    -0.296 A  
HETATM   27  C   UNL     1     -11.212  12.481  65.628  1.00  0.00    -0.352 A  
HETATM   28  C   UNL     1     -12.238  12.468  64.676  1.00  0.00    -0.524 A  
HETATM   29  C   UNL     1     -12.518  13.608  63.926  1.00  0.00    -0.276 A  
HETATM   30  C   UNL     1     -11.790  14.788  64.106  1.00  0.00    -0.235 A  
HETATM   31  C   UNL     1     -10.771  14.781  65.067  1.00  0.00    -0.433 A  
HETATM   32  N   UNL     1      -9.917  15.782  65.456  1.00  0.00    -0.365 NA 
HETATM   33  H   UNL     1      -9.918  16.725  65.066  1.00  0.00     0.000 HD 
ENDBRANCH  19  20
ENDBRANCH  18  19
ENDBRANCH  15  18
ENDBRANCH  14  15
ENDBRANCH  12  14
ENDBRANCH  11  12
ENDBRANCH  10  11
ENDBRANCH   9  10
ENDBRANCH   8   9
ENDBRANCH   2   3
TORSDOF 10
ENDMDL
MODEL      403
REMARK 921   NORMALIZED FREE ENERGY PREDICTED BY IDOCK:   -2.87 KCAL/MOL
REMARK 922        TOTAL FREE ENERGY PREDICTED BY IDOCK:   -6.40 KCAL/MOL
REMARK 923 INTER-LIGAND FREE ENERGY PREDICTED BY IDOCK:   -6.02 KCAL/MOL
REMARK 924 INTRA-LIGAND FREE ENERGY PREDICTED BY IDOCK:   -0.38 KCAL/MOL
REMARK 927      BINDING AFFINITY PREDICTED BY RF-SCORE:    0.00 PKD
ROOT
HETATM    1  C   UNL     1     -10.176   4.677  70.530  1.00  0.00    -0.141 C  
HETATM    2  O   UNL     1     -10.986   5.704  69.963  1.00  0.00    -0.328 OA 
ENDROOT
BRANCH   2   3
HETATM    3  C   UNL     1     -11.089   6.864  70.688  1.00  0.00    -0.278 A  
HETATM    4  C   UNL     1     -11.737   6.891  71.934  1.00  0.00    -0.334 A  
HETATM    5  C   UNL     1     -11.793   8.062  72.689  1.00  0.00    -0.380 A  
HETATM    6  C   UNL     1     -11.228   9.231  72.197  1.00  0.00    -0.043 A  
HETATM    7  C   UNL     1     -10.627   9.230  70.939  1.00  0.00    -0.366 A  
HETATM    8  C   UNL     1     -10.558   8.060  70.167  1.00  0.00    -0.237 A  
BRANCH   8   9
HETATM    9  O   UNL     1      -9.926   8.274  68.965  1.00  0.00    -0.179 OA 
BRANCH   9  10
HETATM   10  C   UNL     1     -10.284   7.425  67.882  1.00  0.00    -0.194 C  
BRANCH  10  11
HETATM   11  C   UNL     1      -9.023   6.818  67.244  1.00  0.00    -0.117 C  
BRANCH  11  12
HETATM   12  N   UNL     1      -8.852   7.160  65.821  1.00  0.00    -0.314 NA 
HETATM   13  H   UNL     1      -9.343   6.498  65.220  1.00  0.00     0.000 HD 
BRANCH  12  14
HETATM   14  C   UNL     1      -9.258   8.552  65.525  1.00  0.00    -0.041 C  
BRANCH  14  15
HETATM   15  C   UNL     1      -8.056   9.520  65.490  1.00  0.00    -0.116 C  
HETATM   16  O   UNL     1      -7.034   8.979  64.647  1.00  0.00    -0.083 OA 
HETATM   17  H   UNL     1      -6.295   9.575  64.625  1.00  0.00     0.000 HD 
BRANCH  15  18
HETATM   18  C   UNL     1      -8.501  10.901  64.989  1.00  0.00    -0.009 C  
BRANCH  18  19
HETATM   19  O   UNL     1      -9.328  11.548  65.950  1.00  0.00    -0.221 OA 
BRANCH  19  20
HETATM   20  C   UNL     1      -8.687  12.408  66.810  1.00  0.00    -0.160 A  
HETATM   21  C   UNL     1      -7.743  12.014  67.776  1.00  0.00    -0.139 A  
HETATM   22  C   UNL     1      -7.109  12.944  68.594  1.00  0.00    -0.103 A  
HETATM   23  C   UNL     1      -7.387  14.306  68.484  1.00  0.00    -0.117 A  
HETATM   24  C   UNL     1      -8.334  14.693  67.527  1.00  0.00    -0.190 A  
HETATM   25  C   UNL     1      -8.992  13.786  66.695  1.00  0.00    -0.149 A  
HETATM   26  C   UNL     1      -9.891  14.544  65.872  1.00  0.00    -0.347 A  
HETATM   27  C   UNL     1     -10.826  14.205  64.869  1.00  0.00    -0.423 A  
HETATM   28  C   UNL     1     -11.562  15.214  64.238  1.00  0.00    -0.192 A  
HETATM   29  C   UNL     1     -11.378  16.548  64.593  1.00  0.00    -0.073 A  
HETATM   30  C   UNL     1     -10.463  16.912  65.586  1.00  0.00    -0.252 A  
HETATM   31  C   UNL     1      -9.740  15.885  66.209  1.00  0.00    -0.306 A  
HETATM   32  N   UNL     1      -8.799  15.948  67.205  1.00  0.00    -0.190 NA 
HETATM   33  H   UNL     1      -8.486  16.811  67.650  1.00  0.00     0.000 HD 
ENDBRANCH  19  20
ENDBRANCH  18  19
ENDBRANCH  15  18
ENDBRANCH  14  15
ENDBRANCH  12  14
ENDBRANCH  11  12
ENDBRANCH  10  11
ENDBRANCH   9  10
ENDBRANCH   8   9
ENDBRANCH   2   3
TORSDOF 10
ENDMDL
MODEL      404
REMARK 921   NORMALIZED FREE ENERGY PREDICTED BY IDOCK:   -2.87 KCAL/MOL
REMARK 922        TOTAL FREE ENERGY PREDICTED BY IDOCK:   -6.39 KCAL/MOL
REMARK 923 INTER-LIGAND FREE ENERGY PREDICTED BY IDOCK:   -8.59 KCAL/MOL
REMARK 924 INTRA-LIGAND FREE ENERGY PREDICTED BY IDOCK:    2.20 KCAL/MOL
REMARK 927      BINDING AFFINITY PREDICTED BY RF-SCORE:    0.00 PKD
ROOT
HETATM    1  C   UNL     1     -12.203  14.869  64.363  1.00  0.00    -0.381 C  
HETATM    2  O   UNL     1     -12.710  13.544  64.219  1.00  0.00    -0.645 OA 
ENDROOT
BRANCH   2   3
HETATM    3  C   UNL     1     -11.797  12.529  64.346  1.00  0.00    -0.386 A  
HETATM    4  C   UNL     1     -11.056  12.071  63.244  1.00  0.00    -0.400 A  
HETATM    5  C   UNL     1     -10.093  11.073  63.390  1.00  0.00    -0.424 A  
HETATM    6  C   UNL     1      -9.874  10.499  64.635  1.00  0.00    -0.404 A  
HETATM    7  C   UNL     1     -10.638  10.908  65.726  1.00  0.00    -0.230 A  
HETATM    8  C   UNL     1     -11.610  11.912  65.599  1.00  0.00    -0.210 A  
BRANCH   8   9
HETATM    9  O   UNL     1     -12.245  12.166  66.791  1.00  0.00    -0.553 OA 
BRANCH   9  10
HETATM   10  C   UNL     1     -11.480  12.786  67.817  1.00  0.00    -0.326 C  
BRANCH  10  11
HETATM   11  C   UNL     1     -11.683  12.048  69.151  1.00  0.00    -0.330 C  
BRANCH  11  12
HETATM   12  N   UNL     1     -12.154  10.659  68.998  1.00  0.00    -0.714 NA 
HETATM   13  H   UNL     1     -11.974  10.311  68.056  1.00  0.00     0.000 HD 
BRANCH  12  14
HETATM   14  C   UNL     1     -11.581   9.756  70.020  1.00  0.00    -0.130 C  
BRANCH  14  15
HETATM   15  C   UNL     1     -10.493   8.827  69.439  1.00  0.00    -0.222 C  
HETATM   16  O   UNL     1      -9.201   9.358  69.748  1.00  0.00    -0.168 OA 
HETATM   17  H   UNL     1      -8.531   8.786  69.391  1.00  0.00     0.000 HD 
BRANCH  15  18
HETATM   18  C   UNL     1     -10.649   7.409  70.004  1.00  0.00    -0.232 C  
BRANCH  18  19
HETATM   19  O   UNL     1     -10.747   6.452  68.954  1.00  0.00    -0.228 OA 
BRANCH  19  20
HETATM   20  C   UNL     1     -10.149   5.238  69.194  1.00  0.00    -0.219 A  
HETATM   21  C   UNL     1      -9.756   4.331  68.192  1.00  0.00    -0.165 A  
HETATM   22  C   UNL     1      -9.128   3.130  68.506  1.00  0.00    -0.210 A  
HETATM   23  C   UNL     1      -8.863   2.781  69.830  1.00  0.00    -0.146 A  
HETATM   24  C   UNL     1      -9.263   3.682  70.824  1.00  0.00    -0.131 A  
HETATM   25  C   UNL     1      -9.901   4.892  70.545  1.00  0.00    -0.297 A  
HETATM   26  C   UNL     1     -10.173   5.527  71.803  1.00  0.00    -0.256 A  
HETATM   27  C   UNL     1     -10.802   6.734  72.178  1.00  0.00    -0.257 A  
HETATM   28  C   UNL     1     -10.901   7.073  73.532  1.00  0.00    -0.289 A  
HETATM   29  C   UNL     1     -10.383   6.227  74.510  1.00  0.00    -0.233 A  
HETATM   30  C   UNL     1      -9.760   5.023  74.167  1.00  0.00    -0.157 A  
HETATM   31  C   UNL     1      -9.675   4.702  72.806  1.00  0.00    -0.139 A  
HETATM   32  N   UNL     1      -9.135   3.601  72.192  1.00  0.00    -0.104 NA 
HETATM   33  H   UNL     1      -8.696   2.823  72.684  1.00  0.00     0.000 HD 
ENDBRANCH  19  20
ENDBRANCH  18  19
ENDBRANCH  15  18
ENDBRANCH  14  15
ENDBRANCH  12  14
ENDBRANCH  11  12
ENDBRANCH  10  11
ENDBRANCH   9  10
ENDBRANCH   8   9
ENDBRANCH   2   3
TORSDOF 10
ENDMDL
MODEL      405
REMARK 921   NORMALIZED FREE ENERGY PREDICTED BY IDOCK:   -2.84 KCAL/MOL
REMARK 922        TOTAL FREE ENERGY PREDICTED BY IDOCK:   -6.34 KCAL/MOL
REMARK 923 INTER-LIGAND FREE ENERGY PREDICTED BY IDOCK:   -6.45 KCAL/MOL
REMARK 924 INTRA-LIGAND FREE ENERGY PREDICTED BY IDOCK:    0.11 KCAL/MOL
REMARK 927      BINDING AFFINITY PREDICTED BY RF-SCORE:    0.00 PKD
ROOT
HETATM    1  C   UNL     1     -10.534  14.888  69.454  1.00  0.00    -0.222 C  
HETATM    2  O   UNL     1      -9.133  14.636  69.365  1.00  0.00    -0.026 OA 
ENDROOT
BRANCH   2   3
HETATM    3  C   UNL     1      -8.337  15.723  69.106  1.00  0.00    -0.249 A  
HETATM    4  C   UNL     1      -6.951  15.682  69.329  1.00  0.00    -0.179 A  
HETATM    5  C   UNL     1      -6.141  16.774  69.016  1.00  0.00    -0.169 A  
HETATM    6  C   UNL     1      -6.708  17.933  68.503  1.00  0.00    -0.227 A  
HETATM    7  C   UNL     1      -8.089  18.004  68.326  1.00  0.00    -0.296 A  
HETATM    8  C   UNL     1      -8.919  16.916  68.632  1.00  0.00    -0.266 A  
BRANCH   8   9
HETATM    9  O   UNL     1     -10.242  17.192  68.383  1.00  0.00    -0.297 OA 
BRANCH   9  10
HETATM   10  C   UNL     1     -10.538  18.421  67.732  1.00  0.00    -0.391 C  
BRANCH  10  11
HETATM   11  C   UNL     1     -10.809  18.179  66.237  1.00  0.00     0.047 C  
BRANCH  11  12
HETATM   12  N   UNL     1     -10.122  16.995  65.692  1.00  0.00    -0.588 NA 
HETATM   13  H   UNL     1      -9.254  16.808  66.194  1.00  0.00     0.000 HD 
BRANCH  12  14
HETATM   14  C   UNL     1     -10.994  15.800  65.669  1.00  0.00    -0.243 C  
BRANCH  14  15
HETATM   15  C   UNL     1     -10.200  14.498  65.426  1.00  0.00    -0.389 C  
HETATM   16  O   UNL     1      -8.850  14.675  65.865  1.00  0.00    -0.409 OA 
HETATM   17  H   UNL     1      -8.362  13.874  65.716  1.00  0.00     0.000 HD 
BRANCH  15  18
HETATM   18  C   UNL     1     -10.863  13.327  66.163  1.00  0.00    -0.280 C  
BRANCH  18  19
HETATM   19  O   UNL     1     -10.136  12.120  65.958  1.00  0.00    -0.225 OA 
BRANCH  19  20
HETATM   20  C   UNL     1     -10.108  11.250  67.022  1.00  0.00    -0.206 A  
HETATM   21  C   UNL     1     -10.746  11.478  68.255  1.00  0.00    -0.247 A  
HETATM   22  C   UNL     1     -10.701  10.538  69.280  1.00  0.00    -0.269 A  
HETATM   23  C   UNL     1     -10.022   9.332  69.121  1.00  0.00    -0.181 A  
HETATM   24  C   UNL     1      -9.381   9.112  67.895  1.00  0.00    -0.137 A  
HETATM   25  C   UNL     1      -9.400  10.035  66.848  1.00  0.00    -0.188 A  
HETATM   26  C   UNL     1      -8.627   9.476  65.777  1.00  0.00    -0.152 A  
HETATM   27  C   UNL     1      -8.266   9.926  64.488  1.00  0.00    -0.162 A  
HETATM   28  C   UNL     1      -7.483   9.110  63.663  1.00  0.00    -0.106 A  
HETATM   29  C   UNL     1      -7.061   7.859  64.106  1.00  0.00    -0.075 A  
HETATM   30  C   UNL     1      -7.400   7.390  65.379  1.00  0.00    -0.072 A  
HETATM   31  C   UNL     1      -8.180   8.225  66.190  1.00  0.00    -0.119 A  
HETATM   32  N   UNL     1      -8.646   8.031  67.466  1.00  0.00    -0.126 NA 
HETATM   33  H   UNL     1      -8.470   7.195  68.023  1.00  0.00     0.000 HD 
ENDBRANCH  19  20
ENDBRANCH  18  19
ENDBRANCH  15  18
ENDBRANCH  14  15
ENDBRANCH  12  14
ENDBRANCH  11  12
ENDBRANCH  10  11
ENDBRANCH   9  10
ENDBRANCH   8   9
ENDBRANCH   2   3
TORSDOF 10
ENDMDL
MODEL      406
REMARK 921   NORMALIZED FREE ENERGY PREDICTED BY IDOCK:   -2.83 KCAL/MOL
REMARK 922        TOTAL FREE ENERGY PREDICTED BY IDOCK:   -6.34 KCAL/MOL
REMARK 923 INTER-LIGAND FREE ENERGY PREDICTED BY IDOCK:   -5.72 KCAL/MOL
REMARK 924 INTRA-LIGAND FREE ENERGY PREDICTED BY IDOCK:   -0.62 KCAL/MOL
REMARK 927      BINDING AFFINITY PREDICTED BY RF-SCORE:    0.00 PKD
ROOT
HETATM    1  C   UNL     1     -12.444  15.648  72.549  1.00  0.00    -0.428 C  
HETATM    2  O   UNL     1     -12.351  14.481  71.735  1.00  0.00    -0.335 OA 
ENDROOT
BRANCH   2   3
HETATM    3  C   UNL     1     -12.004  14.684  70.423  1.00  0.00    -0.311 A  
HETATM    4  C   UNL     1     -11.579  15.943  69.967  1.00  0.00    -0.346 A  
HETATM    5  C   UNL     1     -11.179  16.130  68.645  1.00  0.00    -0.369 A  
HETATM    6  C   UNL     1     -11.224  15.069  67.751  1.00  0.00    -0.327 A  
HETATM    7  C   UNL     1     -11.692  13.827  68.178  1.00  0.00    -0.392 A  
HETATM    8  C   UNL     1     -12.096  13.620  69.505  1.00  0.00    -0.314 A  
BRANCH   8   9
HETATM    9  O   UNL     1     -12.519  12.329  69.718  1.00  0.00    -0.056 OA 
BRANCH   9  10
HETATM   10  C   UNL     1     -11.523  11.316  69.755  1.00  0.00    -0.310 C  
BRANCH  10  11
HETATM   11  C   UNL     1     -11.508  10.536  68.430  1.00  0.00    -0.214 C  
BRANCH  11  12
HETATM   12  N   UNL     1     -10.460   9.501  68.360  1.00  0.00    -0.217 NA 
HETATM   13  H   UNL     1     -10.438   8.940  69.212  1.00  0.00     0.000 HD 
BRANCH  12  14
HETATM   14  C   UNL     1     -10.596   8.645  67.161  1.00  0.00    -0.234 C  
BRANCH  14  15
HETATM   15  C   UNL     1     -10.324   7.156  67.468  1.00  0.00    -0.236 C  
HETATM   16  O   UNL     1      -9.340   6.655  66.558  1.00  0.00    -0.157 OA 
HETATM   17  H   UNL     1      -9.172   5.739  66.747  1.00  0.00     0.000 HD 
BRANCH  15  18
HETATM   18  C   UNL     1      -9.860   6.989  68.920  1.00  0.00    -0.150 C  
BRANCH  18  19
HETATM   19  O   UNL     1      -8.521   6.507  68.974  1.00  0.00    -0.124 OA 
BRANCH  19  20
HETATM   20  C   UNL     1      -7.643   7.261  69.715  1.00  0.00    -0.098 A  
HETATM   21  C   UNL     1      -6.810   8.264  69.186  1.00  0.00    -0.051 A  
HETATM   22  C   UNL     1      -5.965   9.010  70.001  1.00  0.00    -0.031 A  
HETATM   23  C   UNL     1      -5.913   8.791  71.376  1.00  0.00    -0.052 A  
HETATM   24  C   UNL     1      -6.737   7.785  71.897  1.00  0.00    -0.056 A  
HETATM   25  C   UNL     1      -7.592   7.014  71.108  1.00  0.00    -0.086 A  
HETATM   26  C   UNL     1      -8.251   6.085  71.982  1.00  0.00    -0.107 A  
HETATM   27  C   UNL     1      -9.194   5.053  71.785  1.00  0.00    -0.171 A  
HETATM   28  C   UNL     1      -9.652   4.315  72.882  1.00  0.00    -0.159 A  
HETATM   29  C   UNL     1      -9.184   4.593  74.164  1.00  0.00    -0.116 A  
HETATM   30  C   UNL     1      -8.247   5.607  74.387  1.00  0.00    -0.106 A  
HETATM   31  C   UNL     1      -7.798   6.330  73.274  1.00  0.00    -0.099 A  
HETATM   32  N   UNL     1      -6.890   7.355  73.196  1.00  0.00    -0.064 NA 
HETATM   33  H   UNL     1      -6.392   7.747  73.996  1.00  0.00     0.000 HD 
ENDBRANCH  19  20
ENDBRANCH  18  19
ENDBRANCH  15  18
ENDBRANCH  14  15
ENDBRANCH  12  14
ENDBRANCH  11  12
ENDBRANCH  10  11
ENDBRANCH   9  10
ENDBRANCH   8   9
ENDBRANCH   2   3
TORSDOF 10
ENDMDL
MODEL      407
REMARK 921   NORMALIZED FREE ENERGY PREDICTED BY IDOCK:   -2.82 KCAL/MOL
REMARK 922        TOTAL FREE ENERGY PREDICTED BY IDOCK:   -6.31 KCAL/MOL
REMARK 923 INTER-LIGAND FREE ENERGY PREDICTED BY IDOCK:   -6.21 KCAL/MOL
REMARK 924 INTRA-LIGAND FREE ENERGY PREDICTED BY IDOCK:   -0.10 KCAL/MOL
REMARK 927      BINDING AFFINITY PREDICTED BY RF-SCORE:    0.00 PKD
ROOT
HETATM    1  C   UNL     1     -11.636  15.917  71.516  1.00  0.00    -0.465 C  
HETATM    2  O   UNL     1     -11.417  14.942  70.499  1.00  0.00    -0.258 OA 
ENDROOT
BRANCH   2   3
HETATM    3  C   UNL     1     -11.133  15.427  69.247  1.00  0.00    -0.280 A  
HETATM    4  C   UNL     1     -10.634  16.727  69.063  1.00  0.00    -0.343 A  
HETATM    5  C   UNL     1     -10.300  17.194  67.793  1.00  0.00    -0.347 A  
HETATM    6  C   UNL     1     -10.485  16.380  66.684  1.00  0.00    -0.274 A  
HETATM    7  C   UNL     1     -11.027  15.106  66.847  1.00  0.00    -0.323 A  
HETATM    8  C   UNL     1     -11.367  14.618  68.117  1.00  0.00    -0.302 A  
BRANCH   8   9
HETATM    9  O   UNL     1     -11.881  13.344  68.058  1.00  0.00    -0.337 OA 
BRANCH   9  10
HETATM   10  C   UNL     1     -11.705  12.518  69.201  1.00  0.00    -0.321 C  
BRANCH  10  11
HETATM   11  C   UNL     1     -10.610  11.471  68.937  1.00  0.00    -0.204 C  
BRANCH  11  12
HETATM   12  N   UNL     1      -9.892  11.669  67.664  1.00  0.00    -0.183 NA 
HETATM   13  H   UNL     1      -9.200  12.414  67.742  1.00  0.00     0.000 HD 
BRANCH  12  14
HETATM   14  C   UNL     1      -9.277  10.419  67.166  1.00  0.00    -0.143 C  
BRANCH  14  15
HETATM   15  C   UNL     1     -10.281   9.535  66.397  1.00  0.00    -0.232 C  
HETATM   16  O   UNL     1      -9.766   9.255  65.091  1.00  0.00    -0.456 OA 
HETATM   17  H   UNL     1     -10.384   8.711  64.618  1.00  0.00     0.000 HD 
BRANCH  15  18
HETATM   18  C   UNL     1     -10.545   8.235  67.168  1.00  0.00    -0.270 C  
BRANCH  18  19
HETATM   19  O   UNL     1      -9.842   7.144  66.582  1.00  0.00    -0.194 OA 
BRANCH  19  20
HETATM   20  C   UNL     1      -9.375   6.193  67.457  1.00  0.00    -0.113 A  
HETATM   21  C   UNL     1      -9.398   6.320  68.859  1.00  0.00    -0.128 A  
HETATM   22  C   UNL     1      -8.935   5.303  69.687  1.00  0.00    -0.133 A  
HETATM   23  C   UNL     1      -8.430   4.117  69.157  1.00  0.00    -0.098 A  
HETATM   24  C   UNL     1      -8.401   3.998  67.762  1.00  0.00    -0.094 A  
HETATM   25  C   UNL     1      -8.852   5.001  66.901  1.00  0.00    -0.106 A  
HETATM   26  C   UNL     1      -8.646   4.532  65.561  1.00  0.00    -0.123 A  
HETATM   27  C   UNL     1      -8.876   5.083  64.281  1.00  0.00    -0.066 A  
HETATM   28  C   UNL     1      -8.561   4.340  63.139  1.00  0.00    -0.108 A  
HETATM   29  C   UNL     1      -8.024   3.060  63.257  1.00  0.00    -0.069 A  
HETATM   30  C   UNL     1      -7.782   2.491  64.511  1.00  0.00    -0.076 A  
HETATM   31  C   UNL     1      -8.100   3.254  65.642  1.00  0.00    -0.090 A  
HETATM   32  N   UNL     1      -7.963   2.958  66.974  1.00  0.00    -0.075 NA 
HETATM   33  H   UNL     1      -7.584   2.082  67.334  1.00  0.00     0.000 HD 
ENDBRANCH  19  20
ENDBRANCH  18  19
ENDBRANCH  15  18
ENDBRANCH  14  15
ENDBRANCH  12  14
ENDBRANCH  11  12
ENDBRANCH  10  11
ENDBRANCH   9  10
ENDBRANCH   8   9
ENDBRANCH   2   3
TORSDOF 10
ENDMDL
MODEL      408
REMARK 921   NORMALIZED FREE ENERGY PREDICTED BY IDOCK:   -2.82 KCAL/MOL
REMARK 922        TOTAL FREE ENERGY PREDICTED BY IDOCK:   -6.31 KCAL/MOL
REMARK 923 INTER-LIGAND FREE ENERGY PREDICTED BY IDOCK:   -7.08 KCAL/MOL
REMARK 924 INTRA-LIGAND FREE ENERGY PREDICTED BY IDOCK:    0.76 KCAL/MOL
REMARK 927      BINDING AFFINITY PREDICTED BY RF-SCORE:    0.00 PKD
ROOT
HETATM    1  C   UNL     1     -13.298  11.115  71.719  1.00  0.00    -0.274 C  
HETATM    2  O   UNL     1     -12.628  10.262  70.792  1.00  0.00    -0.325 OA 
ENDROOT
BRANCH   2   3
HETATM    3  C   UNL     1     -12.376   8.983  71.219  1.00  0.00    -0.302 A  
HETATM    4  C   UNL     1     -13.416   8.057  71.404  1.00  0.00    -0.263 A  
HETATM    5  C   UNL     1     -13.148   6.744  71.789  1.00  0.00    -0.244 A  
HETATM    6  C   UNL     1     -11.839   6.343  72.021  1.00  0.00    -0.382 A  
HETATM    7  C   UNL     1     -10.803   7.266  71.890  1.00  0.00    -0.255 A  
HETATM    8  C   UNL     1     -11.053   8.590  71.501  1.00  0.00    -0.275 A  
BRANCH   8   9
HETATM    9  O   UNL     1      -9.898   9.332  71.430  1.00  0.00    -0.295 OA 
BRANCH   9  10
HETATM   10  C   UNL     1      -8.954   8.972  70.429  1.00  0.00    -0.205 C  
BRANCH  10  11
HETATM   11  C   UNL     1      -9.143   9.849  69.180  1.00  0.00    -0.173 C  
BRANCH  11  12
HETATM   12  N   UNL     1     -10.457   9.684  68.530  1.00  0.00    -0.205 NA 
HETATM   13  H   UNL     1     -11.212   9.708  69.215  1.00  0.00     0.000 HD 
BRANCH  12  14
HETATM   14  C   UNL     1     -10.679  10.676  67.456  1.00  0.00    -0.272 C  
BRANCH  14  15
HETATM   15  C   UNL     1     -11.292  11.991  67.986  1.00  0.00    -0.296 C  
HETATM   16  O   UNL     1     -10.879  12.194  69.341  1.00  0.00    -0.436 OA 
HETATM   17  H   UNL     1     -11.255  13.004  69.667  1.00  0.00     0.000 HD 
BRANCH  15  18
HETATM   18  C   UNL     1     -10.865  13.170  67.103  1.00  0.00    -0.257 C  
BRANCH  18  19
HETATM   19  O   UNL     1      -9.767  12.811  66.271  1.00  0.00    -0.259 OA 
BRANCH  19  20
HETATM   20  C   UNL     1      -8.520  12.944  66.836  1.00  0.00    -0.086 A  
HETATM   21  C   UNL     1      -7.521  11.954  66.805  1.00  0.00    -0.017 A  
HETATM   22  C   UNL     1      -6.269  12.169  67.373  1.00  0.00    -0.142 A  
HETATM   23  C   UNL     1      -5.958  13.377  67.993  1.00  0.00    -0.129 A  
HETATM   24  C   UNL     1      -6.958  14.357  68.029  1.00  0.00    -0.143 A  
HETATM   25  C   UNL     1      -8.226  14.173  67.476  1.00  0.00    -0.196 A  
HETATM   26  C   UNL     1      -8.974  15.373  67.723  1.00  0.00    -0.173 A  
HETATM   27  C   UNL     1     -10.293  15.785  67.434  1.00  0.00    -0.282 A  
HETATM   28  C   UNL     1     -10.721  17.060  67.819  1.00  0.00    -0.318 A  
HETATM   29  C   UNL     1      -9.854  17.924  68.484  1.00  0.00    -0.367 A  
HETATM   30  C   UNL     1      -8.544  17.540  68.787  1.00  0.00    -0.209 A  
HETATM   31  C   UNL     1      -8.137  16.258  68.397  1.00  0.00    -0.183 A  
HETATM   32  N   UNL     1      -6.934  15.623  68.569  1.00  0.00    -0.112 NA 
HETATM   33  H   UNL     1      -6.126  16.035  69.036  1.00  0.00     0.000 HD 
ENDBRANCH  19  20
ENDBRANCH  18  19
ENDBRANCH  15  18
ENDBRANCH  14  15
ENDBRANCH  12  14
ENDBRANCH  11  12
ENDBRANCH  10  11
ENDBRANCH   9  10
ENDBRANCH   8   9
ENDBRANCH   2   3
TORSDOF 10
ENDMDL
MODEL      409
REMARK 921   NORMALIZED FREE ENERGY PREDICTED BY IDOCK:   -2.81 KCAL/MOL
REMARK 922        TOTAL FREE ENERGY PREDICTED BY IDOCK:   -6.29 KCAL/MOL
REMARK 923 INTER-LIGAND FREE ENERGY PREDICTED BY IDOCK:   -6.58 KCAL/MOL
REMARK 924 INTRA-LIGAND FREE ENERGY PREDICTED BY IDOCK:    0.29 KCAL/MOL
REMARK 927      BINDING AFFINITY PREDICTED BY RF-SCORE:    0.00 PKD
ROOT
HETATM    1  C   UNL     1      -5.556   6.496  66.183  1.00  0.00    -0.014 C  
HETATM    2  O   UNL     1      -6.913   6.400  65.758  1.00  0.00    -0.058 OA 
ENDROOT
BRANCH   2   3
HETATM    3  C   UNL     1      -7.565   5.234  66.069  1.00  0.00    -0.087 A  
HETATM    4  C   UNL     1      -8.169   4.447  65.074  1.00  0.00    -0.104 A  
HETATM    5  C   UNL     1      -8.785   3.237  65.390  1.00  0.00    -0.124 A  
HETATM    6  C   UNL     1      -8.832   2.808  66.710  1.00  0.00    -0.154 A  
HETATM    7  C   UNL     1      -8.281   3.604  67.713  1.00  0.00    -0.092 A  
HETATM    8  C   UNL     1      -7.655   4.823  67.413  1.00  0.00    -0.086 A  
BRANCH   8   9
HETATM    9  O   UNL     1      -7.180   5.448  68.542  1.00  0.00    -0.070 OA 
BRANCH   9  10
HETATM   10  C   UNL     1      -8.140   5.997  69.434  1.00  0.00    -0.111 C  
BRANCH  10  11
HETATM   11  C   UNL     1      -9.111   6.915  68.671  1.00  0.00    -0.131 C  
BRANCH  11  12
HETATM   12  N   UNL     1      -9.079   8.319  69.119  1.00  0.00    -0.147 NA 
HETATM   13  H   UNL     1      -8.482   8.885  68.516  1.00  0.00     0.000 HD 
BRANCH  12  14
HETATM   14  C   UNL     1     -10.433   8.904  69.231  1.00  0.00    -0.224 C  
BRANCH  14  15
HETATM   15  C   UNL     1     -10.397  10.433  69.447  1.00  0.00    -0.237 C  
HETATM   16  O   UNL     1      -9.037  10.875  69.482  1.00  0.00    -0.401 OA 
HETATM   17  H   UNL     1      -9.014  11.816  69.615  1.00  0.00     0.000 HD 
BRANCH  15  18
HETATM   18  C   UNL     1     -11.174  11.146  68.334  1.00  0.00    -0.262 C  
BRANCH  18  19
HETATM   19  O   UNL     1     -12.099  12.082  68.878  1.00  0.00    -0.274 OA 
BRANCH  19  20
HETATM   20  C   UNL     1     -11.731  13.404  68.794  1.00  0.00    -0.340 A  
HETATM   21  C   UNL     1     -11.447  14.224  69.901  1.00  0.00    -0.301 A  
HETATM   22  C   UNL     1     -11.051  15.548  69.741  1.00  0.00    -0.300 A  
HETATM   23  C   UNL     1     -10.920  16.111  68.473  1.00  0.00    -0.338 A  
HETATM   24  C   UNL     1     -11.211  15.294  67.374  1.00  0.00    -0.311 A  
HETATM   25  C   UNL     1     -11.617  13.964  67.498  1.00  0.00    -0.392 A  
HETATM   26  C   UNL     1     -11.841  13.464  66.172  1.00  0.00    -0.427 A  
HETATM   27  C   UNL     1     -12.272  12.225  65.650  1.00  0.00    -0.203 A  
HETATM   28  C   UNL     1     -12.383  12.058  64.265  1.00  0.00    -0.401 A  
HETATM   29  C   UNL     1     -12.071  13.104  63.401  1.00  0.00    -0.558 A  
HETATM   30  C   UNL     1     -11.645  14.343  63.891  1.00  0.00     0.110 A  
HETATM   31  C   UNL     1     -11.546  14.491  65.281  1.00  0.00    -0.359 A  
HETATM   32  N   UNL     1     -11.171  15.578  66.028  1.00  0.00    -0.184 NA 
HETATM   33  H   UNL     1     -10.898  16.480  65.637  1.00  0.00     0.000 HD 
ENDBRANCH  19  20
ENDBRANCH  18  19
ENDBRANCH  15  18
ENDBRANCH  14  15
ENDBRANCH  12  14
ENDBRANCH  11  12
ENDBRANCH  10  11
ENDBRANCH   9  10
ENDBRANCH   8   9
ENDBRANCH   2   3
TORSDOF 10
ENDMDL
MODEL      410
REMARK 921   NORMALIZED FREE ENERGY PREDICTED BY IDOCK:   -2.78 KCAL/MOL
REMARK 922        TOTAL FREE ENERGY PREDICTED BY IDOCK:   -6.25 KCAL/MOL
REMARK 923 INTER-LIGAND FREE ENERGY PREDICTED BY IDOCK:   -5.55 KCAL/MOL
REMARK 924 INTRA-LIGAND FREE ENERGY PREDICTED BY IDOCK:   -0.70 KCAL/MOL
REMARK 927      BINDING AFFINITY PREDICTED BY RF-SCORE:    0.00 PKD
ROOT
HETATM    1  C   UNL     1     -12.336  12.659  66.617  1.00  0.00     0.213 C  
HETATM    2  O   UNL     1     -11.222  12.789  65.737  1.00  0.00    -0.291 OA 
ENDROOT
BRANCH   2   3
HETATM    3  C   UNL     1     -10.021  13.101  66.321  1.00  0.00    -0.285 A  
HETATM    4  C   UNL     1      -9.731  14.412  66.736  1.00  0.00    -0.278 A  
HETATM    5  C   UNL     1      -8.528  14.712  67.376  1.00  0.00    -0.219 A  
HETATM    6  C   UNL     1      -7.586  13.713  67.585  1.00  0.00    -0.186 A  
HETATM    7  C   UNL     1      -7.841  12.420  67.132  1.00  0.00    -0.138 A  
HETATM    8  C   UNL     1      -9.046  12.098  66.489  1.00  0.00    -0.199 A  
BRANCH   8   9
HETATM    9  O   UNL     1      -9.097  10.774  66.126  1.00  0.00    -0.164 OA 
BRANCH   9  10
HETATM   10  C   UNL     1      -9.250   9.819  67.168  1.00  0.00    -0.138 C  
BRANCH  10  11
HETATM   11  C   UNL     1     -10.460  10.181  68.047  1.00  0.00    -0.209 C  
BRANCH  11  12
HETATM   12  N   UNL     1     -10.108  10.499  69.443  1.00  0.00    -0.290 NA 
HETATM   13  H   UNL     1     -10.869  10.989  69.913  1.00  0.00     0.000 HD 
BRANCH  12  14
HETATM   14  C   UNL     1      -9.695   9.300  70.205  1.00  0.00    -0.218 C  
BRANCH  14  15
HETATM   15  C   UNL     1     -10.494   9.132  71.516  1.00  0.00    -0.352 C  
HETATM   16  O   UNL     1     -11.633   9.998  71.492  1.00  0.00    -0.353 OA 
HETATM   17  H   UNL     1     -12.125   9.895  72.299  1.00  0.00     0.000 HD 
BRANCH  15  18
HETATM   18  C   UNL     1     -10.925   7.671  71.692  1.00  0.00    -0.233 C  
BRANCH  18  19
HETATM   19  O   UNL     1      -9.887   6.903  72.292  1.00  0.00    -0.153 OA 
BRANCH  19  20
HETATM   20  C   UNL     1     -10.206   5.602  72.601  1.00  0.00    -0.185 A  
HETATM   21  C   UNL     1     -10.804   5.192  73.807  1.00  0.00    -0.345 A  
HETATM   22  C   UNL     1     -11.127   3.859  74.040  1.00  0.00    -0.161 A  
HETATM   23  C   UNL     1     -10.871   2.879  73.084  1.00  0.00    -0.236 A  
HETATM   24  C   UNL     1     -10.268   3.289  71.888  1.00  0.00     0.000 A  
HETATM   25  C   UNL     1      -9.924   4.616  71.624  1.00  0.00    -0.262 A  
HETATM   26  C   UNL     1      -9.316   4.645  70.324  1.00  0.00    -0.218 A  
HETATM   27  C   UNL     1      -8.754   5.664  69.525  1.00  0.00    -0.109 A  
HETATM   28  C   UNL     1      -8.235   5.351  68.265  1.00  0.00    -0.095 A  
HETATM   29  C   UNL     1      -8.270   4.040  67.794  1.00  0.00    -0.093 A  
HETATM   30  C   UNL     1      -8.816   3.010  68.566  1.00  0.00    -0.167 A  
HETATM   31  C   UNL     1      -9.326   3.345  69.827  1.00  0.00    -0.168 A  
HETATM   32  N   UNL     1      -9.902   2.551  70.786  1.00  0.00    -0.016 NA 
HETATM   33  H   UNL     1     -10.041   1.545  70.694  1.00  0.00     0.000 HD 
ENDBRANCH  19  20
ENDBRANCH  18  19
ENDBRANCH  15  18
ENDBRANCH  14  15
ENDBRANCH  12  14
ENDBRANCH  11  12
ENDBRANCH  10  11
ENDBRANCH   9  10
ENDBRANCH   8   9
ENDBRANCH   2   3
TORSDOF 10
ENDMDL
MODEL      411
REMARK 921   NORMALIZED FREE ENERGY PREDICTED BY IDOCK:   -2.74 KCAL/MOL
REMARK 922        TOTAL FREE ENERGY PREDICTED BY IDOCK:   -6.19 KCAL/MOL
REMARK 923 INTER-LIGAND FREE ENERGY PREDICTED BY IDOCK:   -4.90 KCAL/MOL
REMARK 924 INTRA-LIGAND FREE ENERGY PREDICTED BY IDOCK:   -1.29 KCAL/MOL
REMARK 927      BINDING AFFINITY PREDICTED BY RF-SCORE:    0.00 PKD
ROOT
HETATM    1  C   UNL     1     -12.234   6.828  71.572  1.00  0.00    -0.366 C  
HETATM    2  O   UNL     1     -11.779   5.928  72.580  1.00  0.00    -0.303 OA 
ENDROOT
BRANCH   2   3
HETATM    3  C   UNL     1     -10.496   6.120  73.028  1.00  0.00    -0.226 A  
HETATM    4  C   UNL     1      -9.948   7.408  73.141  1.00  0.00    -0.318 A  
HETATM    5  C   UNL     1      -8.661   7.598  73.645  1.00  0.00    -0.283 A  
HETATM    6  C   UNL     1      -7.894   6.503  74.018  1.00  0.00    -0.098 A  
HETATM    7  C   UNL     1      -8.407   5.217  73.862  1.00  0.00    -0.111 A  
HETATM    8  C   UNL     1      -9.700   5.006  73.359  1.00  0.00    -0.144 A  
BRANCH   8   9
HETATM    9  O   UNL     1     -10.012   3.669  73.288  1.00  0.00    -0.119 OA 
BRANCH   9  10
HETATM   10  C   UNL     1     -10.189   3.111  71.992  1.00  0.00    -0.037 C  
BRANCH  10  11
HETATM   11  C   UNL     1      -8.835   2.665  71.415  1.00  0.00    -0.074 C  
BRANCH  11  12
HETATM   12  N   UNL     1      -8.639   3.036  70.002  1.00  0.00    -0.057 NA 
HETATM   13  H   UNL     1      -9.350   2.612  69.407  1.00  0.00     0.000 HD 
BRANCH  12  14
HETATM   14  C   UNL     1      -8.585   4.502  69.809  1.00  0.00    -0.069 C  
BRANCH  14  15
HETATM   15  C   UNL     1      -8.300   4.891  68.342  1.00  0.00    -0.091 C  
HETATM   16  O   UNL     1      -8.575   3.774  67.492  1.00  0.00    -0.097 OA 
HETATM   17  H   UNL     1      -8.399   4.014  66.589  1.00  0.00     0.000 HD 
BRANCH  15  18
HETATM   18  C   UNL     1      -9.148   6.104  67.939  1.00  0.00    -0.117 C  
BRANCH  18  19
HETATM   19  O   UNL     1      -8.324   7.175  67.490  1.00  0.00    -0.115 OA 
BRANCH  19  20
HETATM   20  C   UNL     1      -8.102   8.181  68.399  1.00  0.00    -0.128 A  
HETATM   21  C   UNL     1      -7.528   7.995  69.671  1.00  0.00    -0.091 A  
HETATM   22  C   UNL     1      -7.305   9.066  70.530  1.00  0.00    -0.086 A  
HETATM   23  C   UNL     1      -7.642  10.367  70.161  1.00  0.00     0.064 A  
HETATM   24  C   UNL     1      -8.221  10.547  68.899  1.00  0.00    -0.141 A  
HETATM   25  C   UNL     1      -8.464   9.495  68.014  1.00  0.00    -0.119 A  
HETATM   26  C   UNL     1      -9.078  10.058  66.846  1.00  0.00    -0.157 A  
HETATM   27  C   UNL     1      -9.567   9.518  65.636  1.00  0.00    -0.346 A  
HETATM   28  C   UNL     1     -10.117  10.367  64.670  1.00  0.00    -0.378 A  
HETATM   29  C   UNL     1     -10.185  11.740  64.895  1.00  0.00    -0.315 A  
HETATM   30  C   UNL     1      -9.713  12.302  66.085  1.00  0.00    -0.256 A  
HETATM   31  C   UNL     1      -9.170  11.433  67.041  1.00  0.00    -0.169 A  
HETATM   32  N   UNL     1      -8.649  11.700  68.281  1.00  0.00    -0.157 NA 
HETATM   33  H   UNL     1      -8.587  12.631  68.693  1.00  0.00     0.000 HD 
ENDBRANCH  19  20
ENDBRANCH  18  19
ENDBRANCH  15  18
ENDBRANCH  14  15
ENDBRANCH  12  14
ENDBRANCH  11  12
ENDBRANCH  10  11
ENDBRANCH   9  10
ENDBRANCH   8   9
ENDBRANCH   2   3
TORSDOF 10
ENDMDL
MODEL      412
REMARK 921   NORMALIZED FREE ENERGY PREDICTED BY IDOCK:   -2.73 KCAL/MOL
REMARK 922        TOTAL FREE ENERGY PREDICTED BY IDOCK:   -6.17 KCAL/MOL
REMARK 923 INTER-LIGAND FREE ENERGY PREDICTED BY IDOCK:   -4.83 KCAL/MOL
REMARK 924 INTRA-LIGAND FREE ENERGY PREDICTED BY IDOCK:   -1.34 KCAL/MOL
REMARK 927      BINDING AFFINITY PREDICTED BY RF-SCORE:    0.00 PKD
ROOT
HETATM    1  C   UNL     1     -13.568   7.518  71.605  1.00  0.00    -0.368 C  
HETATM    2  O   UNL     1     -12.706   6.881  70.664  1.00  0.00    -0.226 OA 
ENDROOT
BRANCH   2   3
HETATM    3  C   UNL     1     -11.398   6.729  71.048  1.00  0.00    -0.309 A  
HETATM    4  C   UNL     1     -11.060   6.384  72.367  1.00  0.00    -0.303 A  
HETATM    5  C   UNL     1      -9.731   6.181  72.738  1.00  0.00    -0.165 A  
HETATM    6  C   UNL     1      -8.717   6.347  71.803  1.00  0.00    -0.132 A  
HETATM    7  C   UNL     1      -9.036   6.739  70.504  1.00  0.00    -0.152 A  
HETATM    8  C   UNL     1     -10.367   6.945  70.112  1.00  0.00    -0.199 A  
BRANCH   8   9
HETATM    9  O   UNL     1     -10.462   7.324  68.794  1.00  0.00    -0.197 OA 
BRANCH   9  10
HETATM   10  C   UNL     1     -11.258   6.512  67.940  1.00  0.00    -0.153 C  
BRANCH  10  11
HETATM   11  C   UNL     1     -10.467   6.138  66.675  1.00  0.00    -0.202 C  
BRANCH  11  12
HETATM   12  N   UNL     1     -11.102   5.081  65.866  1.00  0.00    -0.825 NA 
HETATM   13  H   UNL     1     -11.963   5.415  65.433  1.00  0.00     0.000 HD 
BRANCH  12  14
HETATM   14  C   UNL     1     -10.181   4.516  64.856  1.00  0.00    -0.024 C  
BRANCH  14  15
HETATM   15  C   UNL     1      -9.498   3.219  65.343  1.00  0.00    -0.119 C  
HETATM   16  O   UNL     1     -10.023   2.105  64.615  1.00  0.00    -0.341 OA 
HETATM   17  H   UNL     1      -9.603   1.306  64.914  1.00  0.00     0.000 HD 
BRANCH  15  18
HETATM   18  C   UNL     1      -7.978   3.319  65.164  1.00  0.00    -0.082 C  
BRANCH  18  19
HETATM   19  O   UNL     1      -7.544   4.672  65.250  1.00  0.00    -0.079 OA 
BRANCH  19  20
HETATM   20  C   UNL     1      -6.919   5.027  66.422  1.00  0.00    -0.067 A  
HETATM   21  C   UNL     1      -6.389   4.113  67.351  1.00  0.00    -0.037 A  
HETATM   22  C   UNL     1      -5.742   4.545  68.505  1.00  0.00    -0.017 A  
HETATM   23  C   UNL     1      -5.595   5.903  68.782  1.00  0.00    -0.011 A  
HETATM   24  C   UNL     1      -6.131   6.809  67.859  1.00  0.00    -0.032 A  
HETATM   25  C   UNL     1      -6.791   6.411  66.695  1.00  0.00    -0.066 A  
HETATM   26  C   UNL     1      -7.214   7.604  66.020  1.00  0.00    -0.070 A  
HETATM   27  C   UNL     1      -7.930   7.858  64.829  1.00  0.00    -0.140 A  
HETATM   28  C   UNL     1      -8.178   9.177  64.437  1.00  0.00    -0.158 A  
HETATM   29  C   UNL     1      -7.723  10.241  65.213  1.00  0.00    -0.144 A  
HETATM   30  C   UNL     1      -7.016  10.019  66.399  1.00  0.00    -0.101 A  
HETATM   31  C   UNL     1      -6.782   8.690  66.775  1.00  0.00    -0.069 A  
HETATM   32  N   UNL     1      -6.136   8.185  67.874  1.00  0.00    -0.046 NA 
HETATM   33  H   UNL     1      -5.714   8.755  68.608  1.00  0.00     0.000 HD 
ENDBRANCH  19  20
ENDBRANCH  18  19
ENDBRANCH  15  18
ENDBRANCH  14  15
ENDBRANCH  12  14
ENDBRANCH  11  12
ENDBRANCH  10  11
ENDBRANCH   9  10
ENDBRANCH   8   9
ENDBRANCH   2   3
TORSDOF 10
ENDMDL
MODEL      413
REMARK 921   NORMALIZED FREE ENERGY PREDICTED BY IDOCK:   -2.72 KCAL/MOL
REMARK 922        TOTAL FREE ENERGY PREDICTED BY IDOCK:   -6.16 KCAL/MOL
REMARK 923 INTER-LIGAND FREE ENERGY PREDICTED BY IDOCK:   -5.69 KCAL/MOL
REMARK 924 INTRA-LIGAND FREE ENERGY PREDICTED BY IDOCK:   -0.47 KCAL/MOL
REMARK 927      BINDING AFFINITY PREDICTED BY RF-SCORE:    0.00 PKD
ROOT
HETATM    1  C   UNL     1      -7.510  12.128  66.576  1.00  0.00     0.317 C  
HETATM    2  O   UNL     1      -8.755  11.577  66.151  1.00  0.00    -0.186 OA 
ENDROOT
BRANCH   2   3
HETATM    3  C   UNL     1      -9.605  11.163  67.145  1.00  0.00    -0.173 A  
HETATM    4  C   UNL     1      -9.185  10.257  68.133  1.00  0.00    -0.137 A  
HETATM    5  C   UNL     1     -10.039   9.879  69.169  1.00  0.00    -0.210 A  
HETATM    6  C   UNL     1     -11.333  10.379  69.218  1.00  0.00    -0.296 A  
HETATM    7  C   UNL     1     -11.778  11.239  68.216  1.00  0.00    -0.344 A  
HETATM    8  C   UNL     1     -10.933  11.633  67.167  1.00  0.00    -0.280 A  
BRANCH   8   9
HETATM    9  O   UNL     1     -11.564  12.482  66.289  1.00  0.00    -0.351 OA 
BRANCH   9  10
HETATM   10  C   UNL     1     -11.213  13.859  66.352  1.00  0.00    -0.315 C  
BRANCH  10  11
HETATM   11  C   UNL     1     -10.946  14.403  64.938  1.00  0.00    -0.406 C  
BRANCH  11  12
HETATM   12  N   UNL     1     -11.128  15.861  64.817  1.00  0.00    -0.604 NA 
HETATM   13  H   UNL     1     -11.950  16.174  65.335  1.00  0.00     0.000 HD 
BRANCH  12  14
HETATM   14  C   UNL     1      -9.922  16.614  65.225  1.00  0.00     0.279 C  
BRANCH  14  15
HETATM   15  C   UNL     1     -10.267  17.985  65.848  1.00  0.00    -0.229 C  
HETATM   16  O   UNL     1     -11.186  18.675  64.996  1.00  0.00    -0.322 OA 
HETATM   17  H   UNL     1     -11.398  19.519  65.379  1.00  0.00     0.000 HD 
BRANCH  15  18
HETATM   18  C   UNL     1     -10.859  17.798  67.250  1.00  0.00    -0.155 C  
BRANCH  18  19
HETATM   19  O   UNL     1      -9.830  17.588  68.212  1.00  0.00    -0.287 OA 
BRANCH  19  20
HETATM   20  C   UNL     1      -8.625  18.191  67.941  1.00  0.00    -0.254 A  
HETATM   21  C   UNL     1      -8.482  19.494  67.429  1.00  0.00    -0.336 A  
HETATM   22  C   UNL     1      -7.227  20.052  67.206  1.00  0.00    -0.286 A  
HETATM   23  C   UNL     1      -6.063  19.338  67.482  1.00  0.00    -0.202 A  
HETATM   24  C   UNL     1      -6.209  18.038  67.982  1.00  0.00    -0.175 A  
HETATM   25  C   UNL     1      -7.452  17.445  68.213  1.00  0.00    -0.227 A  
HETATM   26  C   UNL     1      -7.203  16.118  68.700  1.00  0.00    -0.160 A  
HETATM   27  C   UNL     1      -8.033  15.042  69.084  1.00  0.00    -0.195 A  
HETATM   28  C   UNL     1      -7.457  13.849  69.532  1.00  0.00     0.284 A  
HETATM   29  C   UNL     1      -6.072  13.717  69.602  1.00  0.00    -0.120 A  
HETATM   30  C   UNL     1      -5.227  14.765  69.223  1.00  0.00    -0.089 A  
HETATM   31  C   UNL     1      -5.824  15.949  68.773  1.00  0.00    -0.101 A  
HETATM   32  N   UNL     1      -5.251  17.116  68.336  1.00  0.00    -0.126 NA 
HETATM   33  H   UNL     1      -4.245  17.279  68.280  1.00  0.00     0.000 HD 
ENDBRANCH  19  20
ENDBRANCH  18  19
ENDBRANCH  15  18
ENDBRANCH  14  15
ENDBRANCH  12  14
ENDBRANCH  11  12
ENDBRANCH  10  11
ENDBRANCH   9  10
ENDBRANCH   8   9
ENDBRANCH   2   3
TORSDOF 10
ENDMDL
MODEL      414
REMARK 921   NORMALIZED FREE ENERGY PREDICTED BY IDOCK:   -2.71 KCAL/MOL
REMARK 922        TOTAL FREE ENERGY PREDICTED BY IDOCK:   -6.14 KCAL/MOL
REMARK 923 INTER-LIGAND FREE ENERGY PREDICTED BY IDOCK:   -5.21 KCAL/MOL
REMARK 924 INTRA-LIGAND FREE ENERGY PREDICTED BY IDOCK:   -0.93 KCAL/MOL
REMARK 927      BINDING AFFINITY PREDICTED BY RF-SCORE:    0.00 PKD
ROOT
HETATM    1  C   UNL     1     -11.160  15.599  67.594  1.00  0.00    -0.305 C  
HETATM    2  O   UNL     1     -10.991  14.300  67.030  1.00  0.00    -0.293 OA 
ENDROOT
BRANCH   2   3
HETATM    3  C   UNL     1     -11.244  13.240  67.864  1.00  0.00    -0.272 A  
HETATM    4  C   UNL     1     -11.637  13.439  69.198  1.00  0.00    -0.365 A  
HETATM    5  C   UNL     1     -11.942  12.358  70.025  1.00  0.00    -0.372 A  
HETATM    6  C   UNL     1     -11.832  11.062  69.539  1.00  0.00    -0.404 A  
HETATM    7  C   UNL     1     -11.395  10.850  68.233  1.00  0.00    -0.374 A  
HETATM    8  C   UNL     1     -11.086  11.924  67.386  1.00  0.00    -0.279 A  
BRANCH   8   9
HETATM    9  O   UNL     1     -10.678  11.499  66.144  1.00  0.00    -0.259 OA 
BRANCH   9  10
HETATM   10  C   UNL     1      -9.323  11.089  66.010  1.00  0.00    -0.201 C  
BRANCH  10  11
HETATM   11  C   UNL     1      -9.092  10.461  64.626  1.00  0.00    -0.222 C  
BRANCH  11  12
HETATM   12  N   UNL     1      -7.719  10.633  64.115  1.00  0.00    -0.358 NA 
HETATM   13  H   UNL     1      -7.108  11.031  64.828  1.00  0.00     0.000 HD 
BRANCH  12  14
HETATM   14  C   UNL     1      -7.160   9.374  63.575  1.00  0.00    -0.097 C  
BRANCH  14  15
HETATM   15  C   UNL     1      -8.086   8.164  63.824  1.00  0.00    -0.112 C  
HETATM   16  O   UNL     1      -8.785   7.844  62.617  1.00  0.00    -0.411 OA 
HETATM   17  H   UNL     1      -9.355   7.099  62.770  1.00  0.00     0.000 HD 
BRANCH  15  18
HETATM   18  C   UNL     1      -7.270   6.962  64.316  1.00  0.00    -0.067 C  
BRANCH  18  19
HETATM   19  O   UNL     1      -6.431   7.329  65.407  1.00  0.00    -0.043 OA 
BRANCH  19  20
HETATM   20  C   UNL     1      -7.010   7.270  66.652  1.00  0.00    -0.073 A  
HETATM   21  C   UNL     1      -7.673   8.343  67.276  1.00  0.00    -0.098 A  
HETATM   22  C   UNL     1      -8.263   8.204  68.528  1.00  0.00    -0.125 A  
HETATM   23  C   UNL     1      -8.219   6.990  69.212  1.00  0.00    -0.125 A  
HETATM   24  C   UNL     1      -7.551   5.927  68.592  1.00  0.00    -0.090 A  
HETATM   25  C   UNL     1      -6.944   6.034  67.340  1.00  0.00    -0.069 A  
HETATM   26  C   UNL     1      -6.350   4.760  67.048  1.00  0.00    -0.037 A  
HETATM   27  C   UNL     1      -5.594   4.254  65.968  1.00  0.00    -0.014 A  
HETATM   28  C   UNL     1      -5.158   2.925  65.990  1.00  0.00    -0.008 A  
HETATM   29  C   UNL     1      -5.465   2.100  67.069  1.00  0.00    -0.017 A  
HETATM   30  C   UNL     1      -6.208   2.576  68.154  1.00  0.00    -0.028 A  
HETATM   31  C   UNL     1      -6.631   3.911  68.114  1.00  0.00    -0.042 A  
HETATM   32  N   UNL     1      -7.352   4.636  69.028  1.00  0.00    -0.053 NA 
HETATM   33  H   UNL     1      -7.696   4.268  69.915  1.00  0.00     0.000 HD 
ENDBRANCH  19  20
ENDBRANCH  18  19
ENDBRANCH  15  18
ENDBRANCH  14  15
ENDBRANCH  12  14
ENDBRANCH  11  12
ENDBRANCH  10  11
ENDBRANCH   9  10
ENDBRANCH   8   9
ENDBRANCH   2   3
TORSDOF 10
ENDMDL
MODEL      415
REMARK 921   NORMALIZED FREE ENERGY PREDICTED BY IDOCK:   -2.55 KCAL/MOL
REMARK 922        TOTAL FREE ENERGY PREDICTED BY IDOCK:   -5.88 KCAL/MOL
REMARK 923 INTER-LIGAND FREE ENERGY PREDICTED BY IDOCK:   -5.71 KCAL/MOL
REMARK 924 INTRA-LIGAND FREE ENERGY PREDICTED BY IDOCK:   -0.17 KCAL/MOL
REMARK 927      BINDING AFFINITY PREDICTED BY RF-SCORE:    0.00 PKD
ROOT
HETATM    1  C   UNL     1      -8.362  18.491  66.246  1.00  0.00    -0.213 C  
HETATM    2  O   UNL     1      -8.724  17.697  67.374  1.00  0.00    -0.229 OA 
ENDROOT
BRANCH   2   3
HETATM    3  C   UNL     1      -7.724  16.939  67.928  1.00  0.00    -0.173 A  
HETATM    4  C   UNL     1      -6.553  17.531  68.430  1.00  0.00    -0.190 A  
HETATM    5  C   UNL     1      -5.562  16.759  69.037  1.00  0.00    -0.137 A  
HETATM    6  C   UNL     1      -5.714  15.382  69.126  1.00  0.00    -0.100 A  
HETATM    7  C   UNL     1      -6.848  14.777  68.586  1.00  0.00    -0.103 A  
HETATM    8  C   UNL     1      -7.856  15.537  67.974  1.00  0.00    -0.126 A  
BRANCH   8   9
HETATM    9  O   UNL     1      -8.884  14.750  67.512  1.00  0.00    -0.175 OA 
BRANCH   9  10
HETATM   10  C   UNL     1      -9.379  15.028  66.208  1.00  0.00    -0.307 C  
BRANCH  10  11
HETATM   11  C   UNL     1     -10.849  15.475  66.282  1.00  0.00    -0.283 C  
BRANCH  11  12
HETATM   12  N   UNL     1     -11.811  14.423  65.909  1.00  0.00    -0.374 NA 
HETATM   13  H   UNL     1     -12.633  14.820  65.452  1.00  0.00     0.000 HD 
BRANCH  12  14
HETATM   14  C   UNL     1     -11.195  13.368  65.075  1.00  0.00    -0.317 C  
BRANCH  14  15
HETATM   15  C   UNL     1     -11.259  11.978  65.744  1.00  0.00    -0.334 C  
HETATM   16  O   UNL     1     -11.593  10.993  64.761  1.00  0.00     0.216 OA 
HETATM   17  H   UNL     1     -11.632  10.137  65.173  1.00  0.00     0.000 HD 
BRANCH  15  18
HETATM   18  C   UNL     1      -9.919  11.647  66.413  1.00  0.00    -0.206 C  
BRANCH  18  19
HETATM   19  O   UNL     1      -9.861  10.274  66.784  1.00  0.00    -0.182 OA 
BRANCH  19  20
HETATM   20  C   UNL     1     -10.462   9.950  67.977  1.00  0.00    -0.222 A  
HETATM   21  C   UNL     1     -11.171  10.858  68.785  1.00  0.00    -0.329 A  
HETATM   22  C   UNL     1     -11.781  10.454  69.968  1.00  0.00    -0.366 A  
HETATM   23  C   UNL     1     -11.712   9.130  70.397  1.00  0.00    -0.124 A  
HETATM   24  C   UNL     1     -10.997   8.231  69.595  1.00  0.00    -0.086 A  
HETATM   25  C   UNL     1     -10.369   8.604  68.406  1.00  0.00    -0.239 A  
HETATM   26  C   UNL     1      -9.728   7.432  67.881  1.00  0.00    -0.166 A  
HETATM   27  C   UNL     1      -8.936   7.173  66.741  1.00  0.00    -0.151 A  
HETATM   28  C   UNL     1      -8.457   5.879  66.509  1.00  0.00    -0.113 A  
HETATM   29  C   UNL     1      -8.759   4.846  67.393  1.00  0.00    -0.103 A  
HETATM   30  C   UNL     1      -9.538   5.075  68.532  1.00  0.00    -0.200 A  
HETATM   31  C   UNL     1     -10.003   6.379  68.748  1.00  0.00    -0.147 A  
HETATM   32  N   UNL     1     -10.765   6.886  69.769  1.00  0.00    -0.232 NA 
HETATM   33  H   UNL     1     -11.115   6.337  70.555  1.00  0.00     0.000 HD 
ENDBRANCH  19  20
ENDBRANCH  18  19
ENDBRANCH  15  18
ENDBRANCH  14  15
ENDBRANCH  12  14
ENDBRANCH  11  12
ENDBRANCH  10  11
ENDBRANCH   9  10
ENDBRANCH   8   9
ENDBRANCH   2   3
TORSDOF 10
ENDMDL
MODEL      416
REMARK 921   NORMALIZED FREE ENERGY PREDICTED BY IDOCK:   -2.51 KCAL/MOL
REMARK 922        TOTAL FREE ENERGY PREDICTED BY IDOCK:   -5.83 KCAL/MOL
REMARK 923 INTER-LIGAND FREE ENERGY PREDICTED BY IDOCK:   -5.08 KCAL/MOL
REMARK 924 INTRA-LIGAND FREE ENERGY PREDICTED BY IDOCK:   -0.74 KCAL/MOL
REMARK 927      BINDING AFFINITY PREDICTED BY RF-SCORE:    0.00 PKD
ROOT
HETATM    1  C   UNL     1     -10.441   7.216  72.467  1.00  0.00    -0.223 C  
HETATM    2  O   UNL     1     -10.128   5.830  72.579  1.00  0.00    -0.176 OA 
ENDROOT
BRANCH   2   3
HETATM    3  C   UNL     1      -8.821   5.483  72.346  1.00  0.00    -0.135 A  
HETATM    4  C   UNL     1      -7.821   5.725  73.302  1.00  0.00    -0.106 A  
HETATM    5  C   UNL     1      -6.504   5.325  73.080  1.00  0.00    -0.065 A  
HETATM    6  C   UNL     1      -6.161   4.701  71.888  1.00  0.00    -0.021 A  
HETATM    7  C   UNL     1      -7.133   4.501  70.911  1.00  0.00    -0.037 A  
HETATM    8  C   UNL     1      -8.464   4.895  71.117  1.00  0.00    -0.118 A  
BRANCH   8   9
HETATM    9  O   UNL     1      -9.260   4.606  70.034  1.00  0.00    -0.105 OA 
BRANCH   9  10
HETATM   10  C   UNL     1      -9.792   5.705  69.306  1.00  0.00    -0.174 C  
BRANCH  10  11
HETATM   11  C   UNL     1      -9.167   5.766  67.903  1.00  0.00    -0.108 C  
BRANCH  11  12
HETATM   12  N   UNL     1      -7.993   6.654  67.812  1.00  0.00    -0.111 NA 
HETATM   13  H   UNL     1      -7.395   6.561  68.633  1.00  0.00     0.000 HD 
BRANCH  12  14
HETATM   14  C   UNL     1      -7.224   6.443  66.566  1.00  0.00    -0.073 C  
BRANCH  14  15
HETATM   15  C   UNL     1      -7.838   7.190  65.362  1.00  0.00    -0.119 C  
HETATM   16  O   UNL     1      -8.725   6.314  64.660  1.00  0.00    -0.347 OA 
HETATM   17  H   UNL     1      -9.103   6.774  63.920  1.00  0.00     0.000 HD 
BRANCH  15  18
HETATM   18  C   UNL     1      -8.577   8.447  65.838  1.00  0.00    -0.158 C  
BRANCH  18  19
HETATM   19  O   UNL     1      -7.732   9.591  65.770  1.00  0.00    -0.098 OA 
BRANCH  19  20
HETATM   20  C   UNL     1      -7.818  10.461  66.831  1.00  0.00    -0.114 A  
HETATM   21  C   UNL     1      -6.984  10.422  67.964  1.00  0.00    -0.078 A  
HETATM   22  C   UNL     1      -7.108  11.355  68.989  1.00  0.00    -0.117 A  
HETATM   23  C   UNL     1      -8.064  12.367  68.929  1.00  0.00     0.180 A  
HETATM   24  C   UNL     1      -8.898  12.397  67.804  1.00  0.00    -0.176 A  
HETATM   25  C   UNL     1      -8.805  11.474  66.761  1.00  0.00    -0.183 A  
HETATM   26  C   UNL     1      -9.825  11.809  65.808  1.00  0.00    -0.267 A  
HETATM   27  C   UNL     1     -10.242  11.251  64.580  1.00  0.00    -0.370 A  
HETATM   28  C   UNL     1     -11.297  11.840  63.874  1.00  0.00    -0.494 A  
HETATM   29  C   UNL     1     -11.935  12.972  64.374  1.00  0.00    -0.457 A  
HETATM   30  C   UNL     1     -11.546  13.543  65.590  1.00  0.00    -0.343 A  
HETATM   31  C   UNL     1     -10.491  12.934  66.283  1.00  0.00    -0.270 A  
HETATM   32  N   UNL     1      -9.915  13.267  67.483  1.00  0.00    -0.220 NA 
HETATM   33  H   UNL     1     -10.204  14.055  68.062  1.00  0.00     0.000 HD 
ENDBRANCH  19  20
ENDBRANCH  18  19
ENDBRANCH  15  18
ENDBRANCH  14  15
ENDBRANCH  12  14
ENDBRANCH  11  12
ENDBRANCH  10  11
ENDBRANCH   9  10
ENDBRANCH   8   9
ENDBRANCH   2   3
TORSDOF 10
ENDMDL
MODEL      417
REMARK 921   NORMALIZED FREE ENERGY PREDICTED BY IDOCK:   -2.47 KCAL/MOL
REMARK 922        TOTAL FREE ENERGY PREDICTED BY IDOCK:   -5.76 KCAL/MOL
REMARK 923 INTER-LIGAND FREE ENERGY PREDICTED BY IDOCK:   -5.75 KCAL/MOL
REMARK 924 INTRA-LIGAND FREE ENERGY PREDICTED BY IDOCK:   -0.01 KCAL/MOL
REMARK 927      BINDING AFFINITY PREDICTED BY RF-SCORE:    0.00 PKD
ROOT
HETATM    1  C   UNL     1      -7.958   9.126  70.008  1.00  0.00    -0.113 C  
HETATM    2  O   UNL     1      -8.012   7.748  69.647  1.00  0.00    -0.111 OA 
ENDROOT
BRANCH   2   3
HETATM    3  C   UNL     1      -8.543   6.896  70.582  1.00  0.00    -0.141 A  
HETATM    4  C   UNL     1      -8.286   5.516  70.541  1.00  0.00    -0.116 A  
HETATM    5  C   UNL     1      -8.788   4.663  71.524  1.00  0.00    -0.149 A  
HETATM    6  C   UNL     1      -9.576   5.173  72.547  1.00  0.00    -0.173 A  
HETATM    7  C   UNL     1      -9.880   6.533  72.570  1.00  0.00    -0.176 A  
HETATM    8  C   UNL     1      -9.383   7.406  71.592  1.00  0.00    -0.149 A  
BRANCH   8   9
HETATM    9  O   UNL     1      -9.798   8.700  71.799  1.00  0.00    -0.238 OA 
BRANCH   9  10
HETATM   10  C   UNL     1     -11.191   8.914  71.984  1.00  0.00    -0.352 C  
BRANCH  10  11
HETATM   11  C   UNL     1     -11.849   9.311  70.651  1.00  0.00    -0.192 C  
BRANCH  11  12
HETATM   12  N   UNL     1     -11.046  10.249  69.846  1.00  0.00    -0.283 NA 
HETATM   13  H   UNL     1     -10.142   9.844  69.602  1.00  0.00     0.000 HD 
BRANCH  12  14
HETATM   14  C   UNL     1     -11.766  10.713  68.640  1.00  0.00    -0.158 C  
BRANCH  14  15
HETATM   15  C   UNL     1     -10.881  11.591  67.729  1.00  0.00    -0.221 C  
HETATM   16  O   UNL     1     -11.664  12.665  67.198  1.00  0.00    -0.347 OA 
HETATM   17  H   UNL     1     -11.119  13.206  66.638  1.00  0.00     0.000 HD 
BRANCH  15  18
HETATM   18  C   UNL     1      -9.679  12.130  68.515  1.00  0.00    -0.149 C  
BRANCH  18  19
HETATM   19  O   UNL     1      -9.391  13.475  68.145  1.00  0.00    -0.203 OA 
BRANCH  19  20
HETATM   20  C   UNL     1      -8.068  13.843  68.210  1.00  0.00    -0.150 A  
HETATM   21  C   UNL     1      -7.017  12.980  68.571  1.00  0.00    -0.102 A  
HETATM   22  C   UNL     1      -5.695  13.413  68.587  1.00  0.00    -0.084 A  
HETATM   23  C   UNL     1      -5.363  14.723  68.244  1.00  0.00    -0.113 A  
HETATM   24  C   UNL     1      -6.413  15.581  67.895  1.00  0.00    -0.154 A  
HETATM   25  C   UNL     1      -7.750  15.181  67.874  1.00  0.00    -0.145 A  
HETATM   26  C   UNL     1      -8.528  16.326  67.493  1.00  0.00    -0.183 A  
HETATM   27  C   UNL     1      -9.909  16.560  67.319  1.00  0.00    -0.254 A  
HETATM   28  C   UNL     1     -10.353  17.827  66.924  1.00  0.00    -0.344 A  
HETATM   29  C   UNL     1      -9.441  18.856  66.701  1.00  0.00    -0.357 A  
HETATM   30  C   UNL     1      -8.068  18.653  66.871  1.00  0.00    -0.256 A  
HETATM   31  C   UNL     1      -7.646  17.378  67.272  1.00  0.00    -0.192 A  
HETATM   32  N   UNL     1      -6.383  16.905  67.520  1.00  0.00    -0.143 NA 
HETATM   33  H   UNL     1      -5.531  17.462  67.439  1.00  0.00     0.000 HD 
ENDBRANCH  19  20
ENDBRANCH  18  19
ENDBRANCH  15  18
ENDBRANCH  14  15
ENDBRANCH  12  14
ENDBRANCH  11  12
ENDBRANCH  10  11
ENDBRANCH   9  10
ENDBRANCH   8   9
ENDBRANCH   2   3
TORSDOF 10
ENDMDL
MODEL      418
REMARK 921   NORMALIZED FREE ENERGY PREDICTED BY IDOCK:   -2.45 KCAL/MOL
REMARK 922        TOTAL FREE ENERGY PREDICTED BY IDOCK:   -5.74 KCAL/MOL
REMARK 923 INTER-LIGAND FREE ENERGY PREDICTED BY IDOCK:   -3.51 KCAL/MOL
REMARK 924 INTRA-LIGAND FREE ENERGY PREDICTED BY IDOCK:   -2.22 KCAL/MOL
REMARK 927      BINDING AFFINITY PREDICTED BY RF-SCORE:    0.00 PKD
ROOT
HETATM    1  C   UNL     1     -11.734   6.829  68.040  1.00  0.00     0.991 C  
HETATM    2  O   UNL     1     -10.805   6.889  69.121  1.00  0.00    -0.233 OA 
ENDROOT
BRANCH   2   3
HETATM    3  C   UNL     1     -11.122   7.746  70.144  1.00  0.00    -0.209 A  
HETATM    4  C   UNL     1     -12.305   7.592  70.886  1.00  0.00    -0.198 A  
HETATM    5  C   UNL     1     -12.595   8.435  71.958  1.00  0.00    -0.400 A  
HETATM    6  C   UNL     1     -11.722   9.463  72.287  1.00  0.00     0.063 A  
HETATM    7  C   UNL     1     -10.570   9.659  71.527  1.00  0.00    -0.063 A  
HETATM    8  C   UNL     1     -10.260   8.819  70.447  1.00  0.00    -0.197 A  
BRANCH   8   9
HETATM    9  O   UNL     1      -9.083   9.181  69.835  1.00  0.00    -0.155 OA 
BRANCH   9  10
HETATM   10  C   UNL     1      -7.876   8.690  70.404  1.00  0.00    -0.091 C  
BRANCH  10  11
HETATM   11  C   UNL     1      -6.683   9.536  69.931  1.00  0.00    -0.063 C  
BRANCH  11  12
HETATM   12  N   UNL     1      -7.047  10.596  68.973  1.00  0.00    -0.077 NA 
HETATM   13  H   UNL     1      -7.234  11.478  69.452  1.00  0.00     0.000 HD 
BRANCH  12  14
HETATM   14  C   UNL     1      -6.030  10.770  67.913  1.00  0.00    -0.042 C  
BRANCH  14  15
HETATM   15  C   UNL     1      -6.648  10.769  66.498  1.00  0.00    -0.119 C  
HETATM   16  O   UNL     1      -5.931   9.852  65.667  1.00  0.00    -0.063 OA 
HETATM   17  H   UNL     1      -6.312   9.851  64.796  1.00  0.00     0.000 HD 
BRANCH  15  18
HETATM   18  C   UNL     1      -8.134  10.394  66.568  1.00  0.00    -0.122 C  
BRANCH  18  19
HETATM   19  O   UNL     1      -8.957  11.533  66.341  1.00  0.00    -0.190 OA 
BRANCH  19  20
HETATM   20  C   UNL     1     -10.049  11.657  67.167  1.00  0.00    -0.204 A  
HETATM   21  C   UNL     1     -11.087  10.712  67.263  1.00  0.00    -0.313 A  
HETATM   22  C   UNL     1     -12.149  10.888  68.144  1.00  0.00     0.260 A  
HETATM   23  C   UNL     1     -12.223  12.010  68.967  1.00  0.00    -0.078 A  
HETATM   24  C   UNL     1     -11.193  12.953  68.862  1.00  0.00    -0.279 A  
HETATM   25  C   UNL     1     -10.116  12.811  67.985  1.00  0.00    -0.230 A  
HETATM   26  C   UNL     1      -9.286  13.971  68.143  1.00  0.00    -0.196 A  
HETATM   27  C   UNL     1      -8.090  14.413  67.536  1.00  0.00    -0.204 A  
HETATM   28  C   UNL     1      -7.517  15.626  67.934  1.00  0.00    -0.147 A  
HETATM   29  C   UNL     1      -8.119  16.398  68.925  1.00  0.00    -0.236 A  
HETATM   30  C   UNL     1      -9.306  15.987  69.540  1.00  0.00    -0.146 A  
HETATM   31  C   UNL     1      -9.865  14.771  69.123  1.00  0.00    -0.164 A  
HETATM   32  N   UNL     1     -11.009  14.138  69.537  1.00  0.00    -0.410 NA 
HETATM   33  H   UNL     1     -11.641  14.498  70.252  1.00  0.00     0.000 HD 
ENDBRANCH  19  20
ENDBRANCH  18  19
ENDBRANCH  15  18
ENDBRANCH  14  15
ENDBRANCH  12  14
ENDBRANCH  11  12
ENDBRANCH  10  11
ENDBRANCH   9  10
ENDBRANCH   8   9
ENDBRANCH   2   3
TORSDOF 10
ENDMDL
MODEL      419
REMARK 921   NORMALIZED FREE ENERGY PREDICTED BY IDOCK:   -2.43 KCAL/MOL
REMARK 922        TOTAL FREE ENERGY PREDICTED BY IDOCK:   -5.69 KCAL/MOL
REMARK 923 INTER-LIGAND FREE ENERGY PREDICTED BY IDOCK:   -5.04 KCAL/MOL
REMARK 924 INTRA-LIGAND FREE ENERGY PREDICTED BY IDOCK:   -0.66 KCAL/MOL
REMARK 927      BINDING AFFINITY PREDICTED BY RF-SCORE:    0.00 PKD
ROOT
HETATM    1  C   UNL     1      -8.251  13.545  67.435  1.00  0.00    -0.181 C  
HETATM    2  O   UNL     1      -8.796  14.064  66.224  1.00  0.00    -0.023 OA 
ENDROOT
BRANCH   2   3
HETATM    3  C   UNL     1     -10.139  13.860  66.027  1.00  0.00    -0.313 A  
HETATM    4  C   UNL     1     -11.100  14.567  66.767  1.00  0.00    -0.325 A  
HETATM    5  C   UNL     1     -12.463  14.392  66.527  1.00  0.00    -0.151 A  
HETATM    6  C   UNL     1     -12.885  13.487  65.562  1.00  0.00    -0.406 A  
HETATM    7  C   UNL     1     -11.942  12.741  64.857  1.00  0.00    -0.451 A  
HETATM    8  C   UNL     1     -10.568  12.906  65.083  1.00  0.00    -0.302 A  
BRANCH   8   9
HETATM    9  O   UNL     1      -9.813  12.080  64.285  1.00  0.00    -0.243 OA 
BRANCH   9  10
HETATM   10  C   UNL     1     -10.138  10.696  64.290  1.00  0.00    -0.343 C  
BRANCH  10  11
HETATM   11  C   UNL     1      -8.900   9.857  63.931  1.00  0.00    -0.227 C  
BRANCH  11  12
HETATM   12  N   UNL     1      -8.924   8.492  64.486  1.00  0.00    -0.388 NA 
HETATM   13  H   UNL     1      -8.161   7.928  64.112  1.00  0.00     0.000 HD 
BRANCH  12  14
HETATM   14  C   UNL     1      -8.918   8.486  65.965  1.00  0.00    -0.184 C  
BRANCH  14  15
HETATM   15  C   UNL     1      -9.709   7.296  66.552  1.00  0.00    -0.140 C  
HETATM   16  O   UNL     1      -9.461   6.127  65.765  1.00  0.00    -0.367 OA 
HETATM   17  H   UNL     1      -9.948   5.395  66.127  1.00  0.00     0.000 HD 
BRANCH  15  18
HETATM   18  C   UNL     1      -9.310   7.063  68.015  1.00  0.00    -0.127 C  
BRANCH  18  19
HETATM   19  O   UNL     1      -8.045   6.416  68.100  1.00  0.00    -0.111 OA 
BRANCH  19  20
HETATM   20  C   UNL     1      -8.048   5.172  68.686  1.00  0.00    -0.086 A  
HETATM   21  C   UNL     1      -8.553   4.006  68.080  1.00  0.00    -0.111 A  
HETATM   22  C   UNL     1      -8.496   2.773  68.721  1.00  0.00    -0.097 A  
HETATM   23  C   UNL     1      -7.935   2.646  69.991  1.00  0.00    -0.053 A  
HETATM   24  C   UNL     1      -7.442   3.810  70.594  1.00  0.00    -0.041 A  
HETATM   25  C   UNL     1      -7.488   5.064  69.982  1.00  0.00    -0.060 A  
HETATM   26  C   UNL     1      -6.916   6.005  70.903  1.00  0.00    -0.067 A  
HETATM   27  C   UNL     1      -6.701   7.400  70.875  1.00  0.00    -0.044 A  
HETATM   28  C   UNL     1      -6.094   8.030  71.966  1.00  0.00    -0.043 A  
HETATM   29  C   UNL     1      -5.701   7.290  73.079  1.00  0.00    -0.045 A  
HETATM   30  C   UNL     1      -5.905   5.908  73.135  1.00  0.00    -0.037 A  
HETATM   31  C   UNL     1      -6.519   5.298  72.033  1.00  0.00    -0.043 A  
HETATM   32  N   UNL     1      -6.847   3.983  71.823  1.00  0.00    -0.029 NA 
HETATM   33  H   UNL     1      -6.673   3.231  72.490  1.00  0.00     0.000 HD 
ENDBRANCH  19  20
ENDBRANCH  18  19
ENDBRANCH  15  18
ENDBRANCH  14  15
ENDBRANCH  12  14
ENDBRANCH  11  12
ENDBRANCH  10  11
ENDBRANCH   9  10
ENDBRANCH   8   9
ENDBRANCH   2   3
TORSDOF 10
ENDMDL
MODEL      420
REMARK 921   NORMALIZED FREE ENERGY PREDICTED BY IDOCK:   -2.24 KCAL/MOL
REMARK 922        TOTAL FREE ENERGY PREDICTED BY IDOCK:   -5.40 KCAL/MOL
REMARK 923 INTER-LIGAND FREE ENERGY PREDICTED BY IDOCK:   -5.62 KCAL/MOL
REMARK 924 INTRA-LIGAND FREE ENERGY PREDICTED BY IDOCK:    0.22 KCAL/MOL
REMARK 927      BINDING AFFINITY PREDICTED BY RF-SCORE:    0.00 PKD
ROOT
HETATM    1  C   UNL     1      -8.362  18.491  66.246  1.00  0.00    -0.213 C  
HETATM    2  O   UNL     1      -8.724  17.697  67.374  1.00  0.00    -0.229 OA 
ENDROOT
BRANCH   2   3
HETATM    3  C   UNL     1      -7.724  16.939  67.928  1.00  0.00    -0.173 A  
HETATM    4  C   UNL     1      -6.553  17.531  68.430  1.00  0.00    -0.190 A  
HETATM    5  C   UNL     1      -5.562  16.759  69.037  1.00  0.00    -0.137 A  
HETATM    6  C   UNL     1      -5.714  15.382  69.126  1.00  0.00    -0.100 A  
HETATM    7  C   UNL     1      -6.848  14.777  68.586  1.00  0.00    -0.103 A  
HETATM    8  C   UNL     1      -7.856  15.537  67.974  1.00  0.00    -0.126 A  
BRANCH   8   9
HETATM    9  O   UNL     1      -8.884  14.750  67.512  1.00  0.00    -0.175 OA 
BRANCH   9  10
HETATM   10  C   UNL     1      -9.786  15.338  66.583  1.00  0.00    -0.252 C  
BRANCH  10  11
HETATM   11  C   UNL     1     -11.200  15.404  67.185  1.00  0.00    -0.256 C  
BRANCH  11  12
HETATM   12  N   UNL     1     -12.110  14.358  66.682  1.00  0.00    -0.409 NA 
HETATM   13  H   UNL     1     -13.070  14.698  66.632  1.00  0.00     0.000 HD 
BRANCH  12  14
HETATM   14  C   UNL     1     -11.670  13.809  65.381  1.00  0.00    -0.335 C  
BRANCH  14  15
HETATM   15  C   UNL     1     -11.371  12.295  65.453  1.00  0.00    -0.343 C  
HETATM   16  O   UNL     1     -11.883  11.654  64.280  1.00  0.00    -0.250 OA 
HETATM   17  H   UNL     1     -11.699  10.723  64.324  1.00  0.00     0.000 HD 
BRANCH  15  18
HETATM   18  C   UNL     1      -9.862  12.057  65.589  1.00  0.00    -0.243 C  
BRANCH  18  19
HETATM   19  O   UNL     1      -9.542  10.687  65.372  1.00  0.00    -0.199 OA 
BRANCH  19  20
HETATM   20  C   UNL     1      -9.705   9.856  66.455  1.00  0.00    -0.212 A  
HETATM   21  C   UNL     1     -10.224  10.259  67.699  1.00  0.00    -0.247 A  
HETATM   22  C   UNL     1     -10.389   9.356  68.744  1.00  0.00    -0.230 A  
HETATM   23  C   UNL     1     -10.046   8.013  68.595  1.00  0.00    -0.212 A  
HETATM   24  C   UNL     1      -9.521   7.617  67.358  1.00  0.00    -0.143 A  
HETATM   25  C   UNL     1      -9.337   8.498  66.291  1.00  0.00    -0.287 A  
HETATM   26  C   UNL     1      -8.766   7.742  65.213  1.00  0.00    -0.004 A  
HETATM   27  C   UNL     1      -8.342   8.064  63.905  1.00  0.00     0.036 A  
HETATM   28  C   UNL     1      -7.820   7.062  63.080  1.00  0.00    -0.107 A  
HETATM   29  C   UNL     1      -7.718   5.751  63.540  1.00  0.00    -0.093 A  
HETATM   30  C   UNL     1      -8.126   5.405  64.832  1.00  0.00    -0.122 A  
HETATM   31  C   UNL     1      -8.641   6.425  65.643  1.00  0.00    -0.133 A  
HETATM   32  N   UNL     1      -9.101   6.377  66.935  1.00  0.00    -0.129 NA 
HETATM   33  H   UNL     1      -9.127   5.533  67.507  1.00  0.00     0.000 HD 
ENDBRANCH  19  20
ENDBRANCH  18  19
ENDBRANCH  15  18
ENDBRANCH  14  15
ENDBRANCH  12  14
ENDBRANCH  11  12
ENDBRANCH  10  11
ENDBRANCH   9  10
ENDBRANCH   8   9
ENDBRANCH   2   3
TORSDOF 10
ENDMDL
MODEL      421
REMARK 921   NORMALIZED FREE ENERGY PREDICTED BY IDOCK:   -2.24 KCAL/MOL
REMARK 922        TOTAL FREE ENERGY PREDICTED BY IDOCK:   -5.39 KCAL/MOL
REMARK 923 INTER-LIGAND FREE ENERGY PREDICTED BY IDOCK:   -5.14 KCAL/MOL
REMARK 924 INTRA-LIGAND FREE ENERGY PREDICTED BY IDOCK:   -0.25 KCAL/MOL
REMARK 927      BINDING AFFINITY PREDICTED BY RF-SCORE:    0.00 PKD
ROOT
HETATM    1  C   UNL     1     -12.232  14.491  68.497  1.00  0.00    -0.128 C  
HETATM    2  O   UNL     1     -11.644  15.484  67.660  1.00  0.00    -0.274 OA 
ENDROOT
BRANCH   2   3
HETATM    3  C   UNL     1     -10.278  15.600  67.724  1.00  0.00    -0.252 A  
HETATM    4  C   UNL     1      -9.666  16.593  68.506  1.00  0.00    -0.244 A  
HETATM    5  C   UNL     1      -8.278  16.673  68.608  1.00  0.00    -0.245 A  
HETATM    6  C   UNL     1      -7.479  15.778  67.908  1.00  0.00    -0.147 A  
HETATM    7  C   UNL     1      -8.073  14.820  67.089  1.00  0.00    -0.226 A  
HETATM    8  C   UNL     1      -9.468  14.723  66.976  1.00  0.00    -0.231 A  
BRANCH   8   9
HETATM    9  O   UNL     1      -9.846  13.714  66.122  1.00  0.00    -0.293 OA 
BRANCH   9  10
HETATM   10  C   UNL     1      -9.260  12.435  66.328  1.00  0.00    -0.150 C  
BRANCH  10  11
HETATM   11  C   UNL     1      -9.665  11.880  67.704  1.00  0.00    -0.185 C  
BRANCH  11  12
HETATM   12  N   UNL     1     -10.977  11.206  67.711  1.00  0.00    -0.241 NA 
HETATM   13  H   UNL     1     -11.663  11.728  67.166  1.00  0.00     0.000 HD 
BRANCH  12  14
HETATM   14  C   UNL     1     -10.889   9.802  67.255  1.00  0.00    -0.177 C  
BRANCH  14  15
HETATM   15  C   UNL     1     -10.321   8.864  68.342  1.00  0.00    -0.200 C  
HETATM   16  O   UNL     1     -11.388   8.402  69.175  1.00  0.00    -0.346 OA 
HETATM   17  H   UNL     1     -11.038   7.824  69.844  1.00  0.00     0.000 HD 
BRANCH  15  18
HETATM   18  C   UNL     1      -9.585   7.684  67.694  1.00  0.00    -0.145 C  
BRANCH  18  19
HETATM   19  O   UNL     1     -10.304   6.470  67.884  1.00  0.00    -0.153 OA 
BRANCH  19  20
HETATM   20  C   UNL     1      -9.834   5.646  68.880  1.00  0.00    -0.147 A  
HETATM   21  C   UNL     1     -10.312   5.641  70.203  1.00  0.00    -0.341 A  
HETATM   22  C   UNL     1      -9.810   4.758  71.153  1.00  0.00    -0.260 A  
HETATM   23  C   UNL     1      -8.812   3.841  70.827  1.00  0.00    -0.137 A  
HETATM   24  C   UNL     1      -8.332   3.856  69.511  1.00  0.00    -0.056 A  
HETATM   25  C   UNL     1      -8.809   4.732  68.534  1.00  0.00    -0.119 A  
HETATM   26  C   UNL     1      -8.072   4.467  67.332  1.00  0.00    -0.100 A  
HETATM   27  C   UNL     1      -8.078   5.023  66.034  1.00  0.00    -0.108 A  
HETATM   28  C   UNL     1      -7.213   4.516  65.059  1.00  0.00    -0.067 A  
HETATM   29  C   UNL     1      -6.347   3.467  65.361  1.00  0.00    -0.032 A  
HETATM   30  C   UNL     1      -6.316   2.901  66.639  1.00  0.00    -0.028 A  
HETATM   31  C   UNL     1      -7.188   3.427  67.602  1.00  0.00    -0.058 A  
HETATM   32  N   UNL     1      -7.364   3.079  68.917  1.00  0.00    -0.048 NA 
HETATM   33  H   UNL     1      -6.844   2.341  69.392  1.00  0.00     0.000 HD 
ENDBRANCH  19  20
ENDBRANCH  18  19
ENDBRANCH  15  18
ENDBRANCH  14  15
ENDBRANCH  12  14
ENDBRANCH  11  12
ENDBRANCH  10  11
ENDBRANCH   9  10
ENDBRANCH   8   9
ENDBRANCH   2   3
TORSDOF 10
ENDMDL
MODEL      422
REMARK 921   NORMALIZED FREE ENERGY PREDICTED BY IDOCK:   -2.17 KCAL/MOL
REMARK 922        TOTAL FREE ENERGY PREDICTED BY IDOCK:   -5.29 KCAL/MOL
REMARK 923 INTER-LIGAND FREE ENERGY PREDICTED BY IDOCK:   -3.75 KCAL/MOL
REMARK 924 INTRA-LIGAND FREE ENERGY PREDICTED BY IDOCK:   -1.53 KCAL/MOL
REMARK 927      BINDING AFFINITY PREDICTED BY RF-SCORE:    0.00 PKD
ROOT
HETATM    1  C   UNL     1      -6.027   4.562  68.904  1.00  0.00    -0.026 C  
HETATM    2  O   UNL     1      -5.454   4.833  70.181  1.00  0.00    -0.007 OA 
ENDROOT
BRANCH   2   3
HETATM    3  C   UNL     1      -6.295   5.375  71.120  1.00  0.00    -0.034 A  
HETATM    4  C   UNL     1      -7.367   4.639  71.651  1.00  0.00    -0.069 A  
HETATM    5  C   UNL     1      -8.187   5.179  72.642  1.00  0.00    -0.113 A  
HETATM    6  C   UNL     1      -7.966   6.472  73.096  1.00  0.00    -0.103 A  
HETATM    7  C   UNL     1      -6.938   7.231  72.540  1.00  0.00    -0.067 A  
HETATM    8  C   UNL     1      -6.101   6.704  71.545  1.00  0.00    -0.037 A  
BRANCH   8   9
HETATM    9  O   UNL     1      -5.153   7.613  71.136  1.00  0.00    -0.026 OA 
BRANCH   9  10
HETATM   10  C   UNL     1      -5.572   8.962  70.977  1.00  0.00    -0.037 C  
BRANCH  10  11
HETATM   11  C   UNL     1      -5.139   9.495  69.601  1.00  0.00    -0.034 C  
BRANCH  11  12
HETATM   12  N   UNL     1      -5.368   8.545  68.496  1.00  0.00    -0.033 NA 
HETATM   13  H   UNL     1      -5.617   7.621  68.849  1.00  0.00     0.000 HD 
BRANCH  12  14
HETATM   14  C   UNL     1      -6.377   9.037  67.532  1.00  0.00    -0.063 C  
BRANCH  14  15
HETATM   15  C   UNL     1      -7.597   8.097  67.427  1.00  0.00    -0.101 C  
HETATM   16  O   UNL     1      -7.759   7.389  68.660  1.00  0.00    -0.114 OA 
HETATM   17  H   UNL     1      -8.510   6.810  68.596  1.00  0.00     0.000 HD 
BRANCH  15  18
HETATM   18  C   UNL     1      -8.860   8.900  67.091  1.00  0.00    -0.123 C  
BRANCH  18  19
HETATM   19  O   UNL     1      -9.862   8.712  68.084  1.00  0.00    -0.155 OA 
BRANCH  19  20
HETATM   20  C   UNL     1     -10.548   9.841  68.464  1.00  0.00    -0.221 A  
HETATM   21  C   UNL     1     -10.389  11.108  67.872  1.00  0.00    -0.211 A  
HETATM   22  C   UNL     1     -11.140  12.203  68.288  1.00  0.00    -0.288 A  
HETATM   23  C   UNL     1     -12.081  12.084  69.309  1.00  0.00    -0.249 A  
HETATM   24  C   UNL     1     -12.230  10.823  69.902  1.00  0.00    -0.313 A  
HETATM   25  C   UNL     1     -11.490   9.705  69.513  1.00  0.00     0.002 A  
HETATM   26  C   UNL     1     -11.900   8.615  70.351  1.00  0.00     0.066 A  
HETATM   27  C   UNL     1     -11.514   7.261  70.459  1.00  0.00    -0.310 A  
HETATM   28  C   UNL     1     -12.133   6.437  71.405  1.00  0.00    -0.257 A  
HETATM   29  C   UNL     1     -13.126   6.944  72.239  1.00  0.00     0.098 A  
HETATM   30  C   UNL     1     -13.525   8.282  72.157  1.00  0.00    -0.301 A  
HETATM   31  C   UNL     1     -12.889   9.091  71.206  1.00  0.00    -0.245 A  
HETATM   32  N   UNL     1     -13.068  10.419  70.916  1.00  0.00    -0.382 NA 
HETATM   33  H   UNL     1     -13.734  11.029  71.391  1.00  0.00     0.000 HD 
ENDBRANCH  19  20
ENDBRANCH  18  19
ENDBRANCH  15  18
ENDBRANCH  14  15
ENDBRANCH  12  14
ENDBRANCH  11  12
ENDBRANCH  10  11
ENDBRANCH   9  10
ENDBRANCH   8   9
ENDBRANCH   2   3
TORSDOF 10
ENDMDL
MODEL      423
REMARK 921   NORMALIZED FREE ENERGY PREDICTED BY IDOCK:   -2.12 KCAL/MOL
REMARK 922        TOTAL FREE ENERGY PREDICTED BY IDOCK:   -5.21 KCAL/MOL
REMARK 923 INTER-LIGAND FREE ENERGY PREDICTED BY IDOCK:   -5.38 KCAL/MOL
REMARK 924 INTRA-LIGAND FREE ENERGY PREDICTED BY IDOCK:    0.18 KCAL/MOL
REMARK 927      BINDING AFFINITY PREDICTED BY RF-SCORE:    0.00 PKD
ROOT
HETATM    1  C   UNL     1      -8.331  18.541  66.283  1.00  0.00    -0.213 C  
HETATM    2  O   UNL     1      -8.533  17.813  67.492  1.00  0.00    -0.223 OA 
ENDROOT
BRANCH   2   3
HETATM    3  C   UNL     1      -7.412  17.271  68.068  1.00  0.00    -0.194 A  
HETATM    4  C   UNL     1      -6.325  18.077  68.447  1.00  0.00    -0.196 A  
HETATM    5  C   UNL     1      -5.210  17.527  69.078  1.00  0.00    -0.159 A  
HETATM    6  C   UNL     1      -5.151  16.160  69.314  1.00  0.00    -0.110 A  
HETATM    7  C   UNL     1      -6.200  15.343  68.896  1.00  0.00    -0.098 A  
HETATM    8  C   UNL     1      -7.331  15.878  68.263  1.00  0.00    -0.123 A  
BRANCH   8   9
HETATM    9  O   UNL     1      -8.246  14.906  67.935  1.00  0.00    -0.131 OA 
BRANCH   9  10
HETATM   10  C   UNL     1      -9.218  15.233  66.950  1.00  0.00    -0.234 C  
BRANCH  10  11
HETATM   11  C   UNL     1     -10.631  15.156  67.552  1.00  0.00    -0.269 C  
BRANCH  11  12
HETATM   12  N   UNL     1     -11.314  13.873  67.305  1.00  0.00    -0.309 NA 
HETATM   13  H   UNL     1     -12.305  14.015  67.107  1.00  0.00     0.000 HD 
BRANCH  12  14
HETATM   14  C   UNL     1     -10.663  13.087  66.235  1.00  0.00    -0.276 C  
BRANCH  14  15
HETATM   15  C   UNL     1     -10.120  11.735  66.746  1.00  0.00    -0.209 C  
HETATM   16  O   UNL     1      -9.672  11.883  68.097  1.00  0.00    -0.183 OA 
HETATM   17  H   UNL     1      -9.337  11.051  68.412  1.00  0.00     0.000 HD 
BRANCH  15  18
HETATM   18  C   UNL     1     -11.204  10.654  66.647  1.00  0.00     0.148 C  
BRANCH  18  19
HETATM   19  O   UNL     1     -10.851   9.508  67.414  1.00  0.00    -0.269 OA 
BRANCH  19  20
HETATM   20  C   UNL     1      -9.981   8.630  66.812  1.00  0.00    -0.273 A  
HETATM   21  C   UNL     1      -9.304   8.880  65.604  1.00  0.00    -0.259 A  
HETATM   22  C   UNL     1      -8.414   7.957  65.066  1.00  0.00    -0.072 A  
HETATM   23  C   UNL     1      -8.159   6.745  65.707  1.00  0.00    -0.123 A  
HETATM   24  C   UNL     1      -8.842   6.496  66.903  1.00  0.00    -0.120 A  
HETATM   25  C   UNL     1      -9.746   7.397  67.468  1.00  0.00    -0.186 A  
HETATM   26  C   UNL     1     -10.255   6.791  68.666  1.00  0.00    -0.184 A  
HETATM   27  C   UNL     1     -11.194   7.187  69.643  1.00  0.00    -0.161 A  
HETATM   28  C   UNL     1     -11.469   6.341  70.723  1.00  0.00    -0.383 A  
HETATM   29  C   UNL     1     -10.821   5.113  70.839  1.00  0.00    -0.037 A  
HETATM   30  C   UNL     1      -9.890   4.694  69.884  1.00  0.00    -0.296 A  
HETATM   31  C   UNL     1      -9.634   5.555  68.808  1.00  0.00    -0.135 A  
HETATM   32  N   UNL     1      -8.791   5.401  67.737  1.00  0.00    -0.106 NA 
HETATM   33  H   UNL     1      -8.203   4.583  67.578  1.00  0.00     0.000 HD 
ENDBRANCH  19  20
ENDBRANCH  18  19
ENDBRANCH  15  18
ENDBRANCH  14  15
ENDBRANCH  12  14
ENDBRANCH  11  12
ENDBRANCH  10  11
ENDBRANCH   9  10
ENDBRANCH   8   9
ENDBRANCH   2   3
TORSDOF 10
ENDMDL
MODEL      424
REMARK 921   NORMALIZED FREE ENERGY PREDICTED BY IDOCK:   -1.86 KCAL/MOL
REMARK 922        TOTAL FREE ENERGY PREDICTED BY IDOCK:   -4.80 KCAL/MOL
REMARK 923 INTER-LIGAND FREE ENERGY PREDICTED BY IDOCK:   -5.70 KCAL/MOL
REMARK 924 INTRA-LIGAND FREE ENERGY PREDICTED BY IDOCK:    0.90 KCAL/MOL
REMARK 927      BINDING AFFINITY PREDICTED BY RF-SCORE:    0.00 PKD
ROOT
HETATM    1  C   UNL     1     -10.834  11.030  68.204  1.00  0.00    -0.226 C  
HETATM    2  O   UNL     1     -11.914  11.656  67.513  1.00  0.00    -0.622 OA 
ENDROOT
BRANCH   2   3
HETATM    3  C   UNL     1     -11.573  12.642  66.622  1.00  0.00    -0.381 A  
HETATM    4  C   UNL     1     -12.403  12.962  65.535  1.00  0.00    -0.517 A  
HETATM    5  C   UNL     1     -12.075  14.000  64.663  1.00  0.00    -0.462 A  
HETATM    6  C   UNL     1     -10.899  14.715  64.847  1.00  0.00    -0.436 A  
HETATM    7  C   UNL     1     -10.042  14.373  65.892  1.00  0.00    -0.344 A  
HETATM    8  C   UNL     1     -10.356  13.334  66.781  1.00  0.00    -0.257 A  
BRANCH   8   9
HETATM    9  O   UNL     1      -9.382  13.162  67.735  1.00  0.00    -0.190 OA 
BRANCH   9  10
HETATM   10  C   UNL     1      -8.108  12.712  67.291  1.00  0.00    -0.178 C  
BRANCH  10  11
HETATM   11  C   UNL     1      -8.210  11.274  66.755  1.00  0.00    -0.158 C  
BRANCH  11  12
HETATM   12  N   UNL     1      -8.201  11.185  65.284  1.00  0.00    -0.367 NA 
HETATM   13  H   UNL     1      -7.253  11.267  64.915  1.00  0.00     0.000 HD 
BRANCH  12  14
HETATM   14  C   UNL     1      -8.860   9.955  64.791  1.00  0.00    -0.202 C  
BRANCH  14  15
HETATM   15  C   UNL     1      -7.954   8.711  64.920  1.00  0.00    -0.138 C  
HETATM   16  O   UNL     1      -6.614   9.126  65.204  1.00  0.00    -0.071 OA 
HETATM   17  H   UNL     1      -6.057   8.360  65.283  1.00  0.00     0.000 HD 
BRANCH  15  18
HETATM   18  C   UNL     1      -8.481   7.782  66.021  1.00  0.00    -0.139 C  
BRANCH  18  19
HETATM   19  O   UNL     1      -7.561   6.727  66.281  1.00  0.00    -0.082 OA 
BRANCH  19  20
HETATM   20  C   UNL     1      -8.073   5.454  66.201  1.00  0.00    -0.106 A  
HETATM   21  C   UNL     1      -8.978   5.019  65.216  1.00  0.00    -0.151 A  
HETATM   22  C   UNL     1      -9.433   3.704  65.178  1.00  0.00    -0.162 A  
HETATM   23  C   UNL     1      -9.005   2.768  66.117  1.00  0.00    -0.145 A  
HETATM   24  C   UNL     1      -8.111   3.207  67.101  1.00  0.00    -0.082 A  
HETATM   25  C   UNL     1      -7.639   4.519  67.172  1.00  0.00    -0.086 A  
HETATM   26  C   UNL     1      -6.769   4.594  68.311  1.00  0.00    -0.050 A  
HETATM   27  C   UNL     1      -6.020   5.632  68.907  1.00  0.00    -0.024 A  
HETATM   28  C   UNL     1      -5.246   5.365  70.042  1.00  0.00    -0.004 A  
HETATM   29  C   UNL     1      -5.210   4.083  70.585  1.00  0.00    -0.004 A  
HETATM   30  C   UNL     1      -5.946   3.037  70.018  1.00  0.00    -0.023 A  
HETATM   31  C   UNL     1      -6.718   3.328  68.885  1.00  0.00    -0.040 A  
HETATM   32  N   UNL     1      -7.532   2.514  68.140  1.00  0.00    -0.055 NA 
HETATM   33  H   UNL     1      -7.689   1.524  68.331  1.00  0.00     0.000 HD 
ENDBRANCH  19  20
ENDBRANCH  18  19
ENDBRANCH  15  18
ENDBRANCH  14  15
ENDBRANCH  12  14
ENDBRANCH  11  12
ENDBRANCH  10  11
ENDBRANCH   9  10
ENDBRANCH   8   9
ENDBRANCH   2   3
TORSDOF 10
ENDMDL
MODEL      425
REMARK 921   NORMALIZED FREE ENERGY PREDICTED BY IDOCK:   -1.84 KCAL/MOL
REMARK 922        TOTAL FREE ENERGY PREDICTED BY IDOCK:   -4.76 KCAL/MOL
REMARK 923 INTER-LIGAND FREE ENERGY PREDICTED BY IDOCK:   -5.28 KCAL/MOL
REMARK 924 INTRA-LIGAND FREE ENERGY PREDICTED BY IDOCK:    0.53 KCAL/MOL
REMARK 927      BINDING AFFINITY PREDICTED BY RF-SCORE:    0.00 PKD
ROOT
HETATM    1  C   UNL     1      -7.984  13.168  69.196  1.00  0.00     0.427 C  
HETATM    2  O   UNL     1      -8.255  13.771  67.932  1.00  0.00    -0.139 OA 
ENDROOT
BRANCH   2   3
HETATM    3  C   UNL     1      -9.353  13.298  67.258  1.00  0.00    -0.226 A  
HETATM    4  C   UNL     1     -10.651  13.723  67.590  1.00  0.00    -0.244 A  
HETATM    5  C   UNL     1     -11.757  13.278  66.867  1.00  0.00    -0.437 A  
HETATM    6  C   UNL     1     -11.587  12.380  65.822  1.00  0.00    -0.449 A  
HETATM    7  C   UNL     1     -10.311  11.912  65.516  1.00  0.00    -0.303 A  
HETATM    8  C   UNL     1      -9.185  12.351  66.230  1.00  0.00    -0.150 A  
BRANCH   8   9
HETATM    9  O   UNL     1      -8.027  11.771  65.769  1.00  0.00     0.336 OA 
BRANCH   9  10
HETATM   10  C   UNL     1      -8.089  10.400  65.397  1.00  0.00    -0.152 C  
BRANCH  10  11
HETATM   11  C   UNL     1      -8.741   9.574  66.518  1.00  0.00    -0.134 C  
BRANCH  11  12
HETATM   12  N   UNL     1      -9.665   8.533  66.031  1.00  0.00    -0.451 NA 
HETATM   13  H   UNL     1      -9.156   7.712  65.703  1.00  0.00     0.000 HD 
BRANCH  12  14
HETATM   14  C   UNL     1     -10.679   8.163  67.043  1.00  0.00    -0.177 C  
BRANCH  14  15
HETATM   15  C   UNL     1     -10.825   6.634  67.197  1.00  0.00    -0.401 C  
HETATM   16  O   UNL     1     -10.281   5.986  66.043  1.00  0.00    -0.406 OA 
HETATM   17  H   UNL     1     -10.371   5.044  66.138  1.00  0.00     0.000 HD 
BRANCH  15  18
HETATM   18  C   UNL     1     -10.117   6.159  68.473  1.00  0.00    -0.162 C  
BRANCH  18  19
HETATM   19  O   UNL     1     -10.917   6.414  69.623  1.00  0.00    -0.284 OA 
BRANCH  19  20
HETATM   20  C   UNL     1     -10.234   6.555  70.807  1.00  0.00    -0.187 A  
HETATM   21  C   UNL     1     -10.247   7.716  71.602  1.00  0.00    -0.217 A  
HETATM   22  C   UNL     1      -9.554   7.778  72.807  1.00  0.00    -0.281 A  
HETATM   23  C   UNL     1      -8.820   6.689  73.272  1.00  0.00    -0.136 A  
HETATM   24  C   UNL     1      -8.802   5.538  72.474  1.00  0.00    -0.130 A  
HETATM   25  C   UNL     1      -9.480   5.443  71.257  1.00  0.00    -0.191 A  
HETATM   26  C   UNL     1      -9.212   4.138  70.725  1.00  0.00    -0.197 A  
HETATM   27  C   UNL     1      -9.588   3.464  69.542  1.00  0.00    -0.151 A  
HETATM   28  C   UNL     1      -9.149   2.154  69.322  1.00  0.00    -0.178 A  
HETATM   29  C   UNL     1      -8.346   1.512  70.261  1.00  0.00    -0.063 A  
HETATM   30  C   UNL     1      -7.955   2.157  71.438  1.00  0.00    -0.040 A  
HETATM   31  C   UNL     1      -8.402   3.470  71.637  1.00  0.00    -0.066 A  
HETATM   32  N   UNL     1      -8.169   4.333  72.678  1.00  0.00    -0.096 NA 
HETATM   33  H   UNL     1      -7.602   4.111  73.496  1.00  0.00     0.000 HD 
ENDBRANCH  19  20
ENDBRANCH  18  19
ENDBRANCH  15  18
ENDBRANCH  14  15
ENDBRANCH  12  14
ENDBRANCH  11  12
ENDBRANCH  10  11
ENDBRANCH   9  10
ENDBRANCH   8   9
ENDBRANCH   2   3
TORSDOF 10
ENDMDL
MODEL      426
REMARK 921   NORMALIZED FREE ENERGY PREDICTED BY IDOCK:   -1.60 KCAL/MOL
REMARK 922        TOTAL FREE ENERGY PREDICTED BY IDOCK:   -4.38 KCAL/MOL
REMARK 923 INTER-LIGAND FREE ENERGY PREDICTED BY IDOCK:   -4.86 KCAL/MOL
REMARK 924 INTRA-LIGAND FREE ENERGY PREDICTED BY IDOCK:    0.48 KCAL/MOL
REMARK 927      BINDING AFFINITY PREDICTED BY RF-SCORE:    0.00 PKD
ROOT
HETATM    1  C   UNL     1      -9.760  10.091  66.653  1.00  0.00    -0.194 C  
HETATM    2  O   UNL     1     -10.181   9.005  65.831  1.00  0.00    -0.165 OA 
ENDROOT
BRANCH   2   3
HETATM    3  C   UNL     1      -9.451   7.848  65.936  1.00  0.00     0.070 A  
HETATM    4  C   UNL     1      -8.301   7.638  65.158  1.00  0.00    -0.100 A  
HETATM    5  C   UNL     1      -7.535   6.482  65.306  1.00  0.00    -0.082 A  
HETATM    6  C   UNL     1      -7.923   5.506  66.214  1.00  0.00    -0.105 A  
HETATM    7  C   UNL     1      -9.091   5.679  66.955  1.00  0.00    -0.116 A  
HETATM    8  C   UNL     1      -9.872   6.836  66.821  1.00  0.00    -0.178 A  
BRANCH   8   9
HETATM    9  O   UNL     1     -10.976   6.809  67.641  1.00  0.00    -0.273 OA 
BRANCH   9  10
HETATM   10  C   UNL     1     -10.761   6.489  69.009  1.00  0.00    -0.278 C  
BRANCH  10  11
HETATM   11  C   UNL     1      -9.831   7.529  69.658  1.00  0.00    -0.180 C  
BRANCH  11  12
HETATM   12  N   UNL     1     -10.514   8.774  70.055  1.00  0.00    -0.207 NA 
HETATM   13  H   UNL     1     -11.049   8.643  70.914  1.00  0.00     0.000 HD 
BRANCH  12  14
HETATM   14  C   UNL     1      -9.578   9.913  70.177  1.00  0.00    -0.185 C  
BRANCH  14  15
HETATM   15  C   UNL     1      -8.102   9.478  70.046  1.00  0.00    -0.167 C  
HETATM   16  O   UNL     1      -7.962   8.603  68.923  1.00  0.00    -0.109 OA 
HETATM   17  H   UNL     1      -7.054   8.336  68.843  1.00  0.00     0.000 HD 
BRANCH  15  18
HETATM   18  C   UNL     1      -7.198  10.708  69.895  1.00  0.00    -0.102 C  
BRANCH  18  19
HETATM   19  O   UNL     1      -7.525  11.438  68.717  1.00  0.00    -0.111 OA 
BRANCH  19  20
HETATM   20  C   UNL     1      -6.992  12.702  68.630  1.00  0.00    -0.091 A  
HETATM   21  C   UNL     1      -5.615  12.992  68.665  1.00  0.00    -0.069 A  
HETATM   22  C   UNL     1      -5.144  14.295  68.541  1.00  0.00    -0.100 A  
HETATM   23  C   UNL     1      -6.022  15.365  68.376  1.00  0.00    -0.105 A  
HETATM   24  C   UNL     1      -7.392  15.073  68.351  1.00  0.00    -0.112 A  
HETATM   25  C   UNL     1      -7.899  13.779  68.478  1.00  0.00    -0.132 A  
HETATM   26  C   UNL     1      -9.330  13.878  68.426  1.00  0.00    -0.201 A  
HETATM   27  C   UNL     1     -10.383  12.942  68.518  1.00  0.00    -0.239 A  
HETATM   28  C   UNL     1     -11.708  13.378  68.419  1.00  0.00    -0.390 A  
HETATM   29  C   UNL     1     -11.994  14.729  68.230  1.00  0.00    -0.258 A  
HETATM   30  C   UNL     1     -10.972  15.678  68.140  1.00  0.00    -0.314 A  
HETATM   31  C   UNL     1      -9.651  15.220  68.246  1.00  0.00    -0.206 A  
HETATM   32  N   UNL     1      -8.470  15.916  68.205  1.00  0.00    -0.167 NA 
HETATM   33  H   UNL     1      -8.400  16.927  68.083  1.00  0.00     0.000 HD 
ENDBRANCH  19  20
ENDBRANCH  18  19
ENDBRANCH  15  18
ENDBRANCH  14  15
ENDBRANCH  12  14
ENDBRANCH  11  12
ENDBRANCH  10  11
ENDBRANCH   9  10
ENDBRANCH   8   9
ENDBRANCH   2   3
TORSDOF 10
ENDMDL
MODEL      427
REMARK 921   NORMALIZED FREE ENERGY PREDICTED BY IDOCK:   -1.53 KCAL/MOL
REMARK 922        TOTAL FREE ENERGY PREDICTED BY IDOCK:   -4.26 KCAL/MOL
REMARK 923 INTER-LIGAND FREE ENERGY PREDICTED BY IDOCK:   -4.42 KCAL/MOL
REMARK 924 INTRA-LIGAND FREE ENERGY PREDICTED BY IDOCK:    0.15 KCAL/MOL
REMARK 927      BINDING AFFINITY PREDICTED BY RF-SCORE:    0.00 PKD
ROOT
HETATM    1  C   UNL     1      -8.791  18.588  66.175  1.00  0.00    -0.111 C  
HETATM    2  O   UNL     1      -9.281  17.789  67.250  1.00  0.00    -0.247 OA 
ENDROOT
BRANCH   2   3
HETATM    3  C   UNL     1      -8.334  17.159  68.017  1.00  0.00    -0.218 A  
HETATM    4  C   UNL     1      -7.284  17.875  68.614  1.00  0.00    -0.272 A  
HETATM    5  C   UNL     1      -6.354  17.236  69.434  1.00  0.00    -0.244 A  
HETATM    6  C   UNL     1      -6.444  15.867  69.648  1.00  0.00    -0.186 A  
HETATM    7  C   UNL     1      -7.452  15.137  69.021  1.00  0.00    -0.161 A  
HETATM    8  C   UNL     1      -8.397  15.762  68.195  1.00  0.00    -0.160 A  
BRANCH   8   9
HETATM    9  O   UNL     1      -9.302  14.866  67.678  1.00  0.00    -0.188 OA 
BRANCH   9  10
HETATM   10  C   UNL     1     -10.556  15.381  67.250  1.00  0.00    -0.294 C  
BRANCH  10  11
HETATM   11  C   UNL     1     -11.695  14.768  68.083  1.00  0.00    -0.325 C  
BRANCH  11  12
HETATM   12  N   UNL     1     -11.985  13.361  67.750  1.00  0.00    -0.347 NA 
HETATM   13  H   UNL     1     -12.985  13.212  67.619  1.00  0.00     0.000 HD 
BRANCH  12  14
HETATM   14  C   UNL     1     -11.217  12.892  66.575  1.00  0.00    -0.302 C  
BRANCH  14  15
HETATM   15  C   UNL     1     -10.152  11.839  66.952  1.00  0.00    -0.207 C  
HETATM   16  O   UNL     1     -10.643  10.533  66.634  1.00  0.00    -0.241 OA 
HETATM   17  H   UNL     1      -9.987   9.885  66.865  1.00  0.00     0.000 HD 
BRANCH  15  18
HETATM   18  C   UNL     1      -8.839  12.123  66.211  1.00  0.00    -0.040 C  
BRANCH  18  19
HETATM   19  O   UNL     1      -8.099  10.924  66.010  1.00  0.00    -0.159 OA 
BRANCH  19  20
HETATM   20  C   UNL     1      -7.187  10.611  66.990  1.00  0.00    -0.101 A  
HETATM   21  C   UNL     1      -6.780  11.491  68.009  1.00  0.00    -0.059 A  
HETATM   22  C   UNL     1      -5.873  11.098  68.988  1.00  0.00    -0.040 A  
HETATM   23  C   UNL     1      -5.334   9.812  68.995  1.00  0.00    -0.036 A  
HETATM   24  C   UNL     1      -5.736   8.942  67.973  1.00  0.00    -0.039 A  
HETATM   25  C   UNL     1      -6.638   9.306  66.973  1.00  0.00    -0.068 A  
HETATM   26  C   UNL     1      -6.786   8.173  66.105  1.00  0.00    -0.058 A  
HETATM   27  C   UNL     1      -7.527   7.928  64.928  1.00  0.00    -0.082 A  
HETATM   28  C   UNL     1      -7.453   6.674  64.311  1.00  0.00    -0.096 A  
HETATM   29  C   UNL     1      -6.655   5.669  64.850  1.00  0.00    -0.042 A  
HETATM   30  C   UNL     1      -5.907   5.885  66.012  1.00  0.00    -0.027 A  
HETATM   31  C   UNL     1      -5.992   7.149  66.611  1.00  0.00    -0.035 A  
HETATM   32  N   UNL     1      -5.371   7.637  67.733  1.00  0.00    -0.029 NA 
HETATM   33  H   UNL     1      -4.724   7.103  68.312  1.00  0.00     0.000 HD 
ENDBRANCH  19  20
ENDBRANCH  18  19
ENDBRANCH  15  18
ENDBRANCH  14  15
ENDBRANCH  12  14
ENDBRANCH  11  12
ENDBRANCH  10  11
ENDBRANCH   9  10
ENDBRANCH   8   9
ENDBRANCH   2   3
TORSDOF 10
ENDMDL
MODEL      428
REMARK 921   NORMALIZED FREE ENERGY PREDICTED BY IDOCK:   -1.41 KCAL/MOL
REMARK 922        TOTAL FREE ENERGY PREDICTED BY IDOCK:   -4.08 KCAL/MOL
REMARK 923 INTER-LIGAND FREE ENERGY PREDICTED BY IDOCK:   -4.04 KCAL/MOL
REMARK 924 INTRA-LIGAND FREE ENERGY PREDICTED BY IDOCK:   -0.04 KCAL/MOL
REMARK 927      BINDING AFFINITY PREDICTED BY RF-SCORE:    0.00 PKD
ROOT
HETATM    1  C   UNL     1      -8.337  18.553  66.283  1.00  0.00    -0.213 C  
HETATM    2  O   UNL     1      -8.677  17.766  67.422  1.00  0.00    -0.231 OA 
ENDROOT
BRANCH   2   3
HETATM    3  C   UNL     1      -7.630  17.187  68.093  1.00  0.00    -0.208 A  
HETATM    4  C   UNL     1      -6.646  17.968  68.722  1.00  0.00    -0.233 A  
HETATM    5  C   UNL     1      -5.613  17.374  69.446  1.00  0.00    -0.201 A  
HETATM    6  C   UNL     1      -5.531  15.990  69.529  1.00  0.00    -0.122 A  
HETATM    7  C   UNL     1      -6.471  15.204  68.866  1.00  0.00    -0.098 A  
HETATM    8  C   UNL     1      -7.520  15.783  68.136  1.00  0.00    -0.124 A  
BRANCH   8   9
HETATM    9  O   UNL     1      -8.334  14.835  67.564  1.00  0.00    -0.158 OA 
BRANCH   9  10
HETATM   10  C   UNL     1      -9.132  15.243  66.460  1.00  0.00    -0.300 C  
BRANCH  10  11
HETATM   11  C   UNL     1     -10.621  15.010  66.765  1.00  0.00    -0.301 C  
BRANCH  11  12
HETATM   12  N   UNL     1     -11.157  13.761  66.194  1.00  0.00    -0.295 NA 
HETATM   13  H   UNL     1     -12.090  13.904  65.805  1.00  0.00     0.000 HD 
BRANCH  12  14
HETATM   14  C   UNL     1     -10.247  13.166  65.191  1.00  0.00    -0.284 C  
BRANCH  14  15
HETATM   15  C   UNL     1      -9.793  11.742  65.581  1.00  0.00    -0.237 C  
HETATM   16  O   UNL     1      -9.783  11.621  67.006  1.00  0.00    -0.184 OA 
HETATM   17  H   UNL     1      -9.504  10.744  67.246  1.00  0.00     0.000 HD 
BRANCH  15  18
HETATM   18  C   UNL     1     -10.723  10.697  64.951  1.00  0.00    -0.002 C  
BRANCH  18  19
HETATM   19  O   UNL     1     -10.245   9.379  65.195  1.00  0.00     0.164 OA 
BRANCH  19  20
HETATM   20  C   UNL     1      -9.186   8.972  64.418  1.00  0.00     0.276 A  
HETATM   21  C   UNL     1      -8.903   9.471  63.133  1.00  0.00    -0.239 A  
HETATM   22  C   UNL     1      -7.795   9.034  62.413  1.00  0.00    -0.123 A  
HETATM   23  C   UNL     1      -6.922   8.085  62.942  1.00  0.00    -0.086 A  
HETATM   24  C   UNL     1      -7.212   7.585  64.217  1.00  0.00    -0.079 A  
HETATM   25  C   UNL     1      -8.318   7.996  64.964  1.00  0.00    -0.121 A  
HETATM   26  C   UNL     1      -8.296   7.256  66.194  1.00  0.00    -0.133 A  
HETATM   27  C   UNL     1      -9.137   7.210  67.327  1.00  0.00    -0.130 A  
HETATM   28  C   UNL     1      -8.820   6.360  68.392  1.00  0.00    -0.119 A  
HETATM   29  C   UNL     1      -7.681   5.560  68.340  1.00  0.00    -0.085 A  
HETATM   30  C   UNL     1      -6.832   5.582  67.229  1.00  0.00    -0.060 A  
HETATM   31  C   UNL     1      -7.171   6.438  66.172  1.00  0.00    -0.072 A  
HETATM   32  N   UNL     1      -6.539   6.653  64.974  1.00  0.00    -0.045 NA 
HETATM   33  H   UNL     1      -5.681   6.184  64.682  1.00  0.00     0.000 HD 
ENDBRANCH  19  20
ENDBRANCH  18  19
ENDBRANCH  15  18
ENDBRANCH  14  15
ENDBRANCH  12  14
ENDBRANCH  11  12
ENDBRANCH  10  11
ENDBRANCH   9  10
ENDBRANCH   8   9
ENDBRANCH   2   3
TORSDOF 10
ENDMDL
MODEL      429
REMARK 921   NORMALIZED FREE ENERGY PREDICTED BY IDOCK:   -1.36 KCAL/MOL
REMARK 922        TOTAL FREE ENERGY PREDICTED BY IDOCK:   -4.00 KCAL/MOL
REMARK 923 INTER-LIGAND FREE ENERGY PREDICTED BY IDOCK:   -4.27 KCAL/MOL
REMARK 924 INTRA-LIGAND FREE ENERGY PREDICTED BY IDOCK:    0.28 KCAL/MOL
REMARK 927      BINDING AFFINITY PREDICTED BY RF-SCORE:    0.00 PKD
ROOT
HETATM    1  C   UNL     1      -7.976  13.187  69.206  1.00  0.00     0.596 C  
HETATM    2  O   UNL     1      -8.233  13.747  67.920  1.00  0.00    -0.139 OA 
ENDROOT
BRANCH   2   3
HETATM    3  C   UNL     1      -9.309  13.235  67.240  1.00  0.00    -0.226 A  
HETATM    4  C   UNL     1     -10.616  13.675  67.505  1.00  0.00    -0.243 A  
HETATM    5  C   UNL     1     -11.700  13.187  66.775  1.00  0.00    -0.439 A  
HETATM    6  C   UNL     1     -11.497  12.232  65.788  1.00  0.00    -0.417 A  
HETATM    7  C   UNL     1     -10.211  11.750  65.550  1.00  0.00    -0.291 A  
HETATM    8  C   UNL     1      -9.108  12.230  66.272  1.00  0.00    -0.125 A  
BRANCH   8   9
HETATM    9  O   UNL     1      -7.936  11.627  65.883  1.00  0.00     0.150 OA 
BRANCH   9  10
HETATM   10  C   UNL     1      -7.963  10.219  65.688  1.00  0.00    -0.150 C  
BRANCH  10  11
HETATM   11  C   UNL     1      -8.581   9.525  66.914  1.00  0.00    -0.128 C  
BRANCH  11  12
HETATM   12  N   UNL     1      -9.445   8.378  66.576  1.00  0.00    -0.202 NA 
HETATM   13  H   UNL     1      -8.891   7.541  66.394  1.00  0.00     0.000 HD 
BRANCH  12  14
HETATM   14  C   UNL     1     -10.472   8.125  67.611  1.00  0.00    -0.231 C  
BRANCH  14  15
HETATM   15  C   UNL     1     -10.493   6.651  68.069  1.00  0.00    -0.216 C  
HETATM   16  O   UNL     1      -9.832   5.840  67.093  1.00  0.00    -0.126 OA 
HETATM   17  H   UNL     1      -9.845   4.932  67.375  1.00  0.00     0.000 HD 
BRANCH  15  18
HETATM   18  C   UNL     1      -9.820   6.510  69.440  1.00  0.00    -0.146 C  
BRANCH  18  19
HETATM   19  O   UNL     1      -9.604   7.786  70.033  1.00  0.00    -0.161 OA 
BRANCH  19  20
HETATM   20  C   UNL     1      -8.547   7.868  70.909  1.00  0.00    -0.128 A  
HETATM   21  C   UNL     1      -7.454   8.741  70.760  1.00  0.00    -0.087 A  
HETATM   22  C   UNL     1      -6.431   8.792  71.702  1.00  0.00    -0.075 A  
HETATM   23  C   UNL     1      -6.454   7.977  72.832  1.00  0.00    -0.082 A  
HETATM   24  C   UNL     1      -7.539   7.103  72.972  1.00  0.00    -0.079 A  
HETATM   25  C   UNL     1      -8.578   7.022  72.044  1.00  0.00    -0.123 A  
HETATM   26  C   UNL     1      -9.485   6.013  72.511  1.00  0.00    -0.153 A  
HETATM   27  C   UNL     1     -10.688   5.467  72.013  1.00  0.00    -0.293 A  
HETATM   28  C   UNL     1     -11.349   4.469  72.736  1.00  0.00    -0.067 A  
HETATM   29  C   UNL     1     -10.827   4.011  73.944  1.00  0.00    -0.316 A  
HETATM   30  C   UNL     1      -9.635   4.530  74.459  1.00  0.00    -0.153 A  
HETATM   31  C   UNL     1      -8.987   5.526  73.716  1.00  0.00    -0.124 A  
HETATM   32  N   UNL     1      -7.818   6.196  73.970  1.00  0.00    -0.100 NA 
HETATM   33  H   UNL     1      -7.232   6.043  74.790  1.00  0.00     0.000 HD 
ENDBRANCH  19  20
ENDBRANCH  18  19
ENDBRANCH  15  18
ENDBRANCH  14  15
ENDBRANCH  12  14
ENDBRANCH  11  12
ENDBRANCH  10  11
ENDBRANCH   9  10
ENDBRANCH   8   9
ENDBRANCH   2   3
TORSDOF 10
ENDMDL
MODEL      430
REMARK 921   NORMALIZED FREE ENERGY PREDICTED BY IDOCK:   -1.30 KCAL/MOL
REMARK 922        TOTAL FREE ENERGY PREDICTED BY IDOCK:   -3.90 KCAL/MOL
REMARK 923 INTER-LIGAND FREE ENERGY PREDICTED BY IDOCK:   -5.08 KCAL/MOL
REMARK 924 INTRA-LIGAND FREE ENERGY PREDICTED BY IDOCK:    1.17 KCAL/MOL
REMARK 927      BINDING AFFINITY PREDICTED BY RF-SCORE:    0.00 PKD
ROOT
HETATM    1  C   UNL     1     -10.630  13.875  69.356  1.00  0.00     0.051 C  
HETATM    2  O   UNL     1      -9.218  13.684  69.385  1.00  0.00     0.530 OA 
ENDROOT
BRANCH   2   3
HETATM    3  C   UNL     1      -8.451  14.805  69.191  1.00  0.00    -0.096 A  
HETATM    4  C   UNL     1      -7.065  14.790  69.422  1.00  0.00    -0.170 A  
HETATM    5  C   UNL     1      -6.284  15.919  69.174  1.00  0.00    -0.140 A  
HETATM    6  C   UNL     1      -6.879  17.087  68.717  1.00  0.00    -0.199 A  
HETATM    7  C   UNL     1      -8.260  17.130  68.533  1.00  0.00    -0.261 A  
HETATM    8  C   UNL     1      -9.062  16.004  68.774  1.00  0.00    -0.222 A  
BRANCH   8   9
HETATM    9  O   UNL     1     -10.391  16.257  68.529  1.00  0.00    -0.239 OA 
BRANCH   9  10
HETATM   10  C   UNL     1     -10.705  17.442  67.808  1.00  0.00    -0.332 C  
BRANCH  10  11
HETATM   11  C   UNL     1     -10.691  17.162  66.296  1.00  0.00    -0.079 C  
BRANCH  11  12
HETATM   12  N   UNL     1      -9.880  15.991  65.914  1.00  0.00    -0.328 NA 
HETATM   13  H   UNL     1      -9.122  15.835  66.579  1.00  0.00     0.000 HD 
BRANCH  12  14
HETATM   14  C   UNL     1     -10.700  14.772  65.742  1.00  0.00    -0.326 C  
BRANCH  14  15
HETATM   15  C   UNL     1      -9.839  13.496  65.620  1.00  0.00    -0.167 C  
HETATM   16  O   UNL     1      -8.665  13.637  66.426  1.00  0.00    -0.443 OA 
HETATM   17  H   UNL     1      -8.134  12.852  66.351  1.00  0.00     0.000 HD 
BRANCH  15  18
HETATM   18  C   UNL     1     -10.648  12.266  66.047  1.00  0.00    -0.254 C  
BRANCH  18  19
HETATM   19  O   UNL     1      -9.826  11.104  66.083  1.00  0.00    -0.210 OA 
BRANCH  19  20
HETATM   20  C   UNL     1      -9.430  10.613  64.862  1.00  0.00    -0.243 A  
HETATM   21  C   UNL     1      -9.694  11.236  63.628  1.00  0.00    -0.351 A  
HETATM   22  C   UNL     1      -9.237  10.697  62.430  1.00  0.00    -0.300 A  
HETATM   23  C   UNL     1      -8.497   9.517  62.408  1.00  0.00    -0.191 A  
HETATM   24  C   UNL     1      -8.244   8.895  63.637  1.00  0.00    -0.172 A  
HETATM   25  C   UNL     1      -8.692   9.404  64.857  1.00  0.00    -0.220 A  
HETATM   26  C   UNL     1      -8.263   8.493  65.880  1.00  0.00    -0.125 A  
HETATM   27  C   UNL     1      -8.420   8.447  67.282  1.00  0.00    -0.124 A  
HETATM   28  C   UNL     1      -7.855   7.393  68.008  1.00  0.00    -0.118 A  
HETATM   29  C   UNL     1      -7.138   6.392  67.356  1.00  0.00    -0.077 A  
HETATM   30  C   UNL     1      -6.970   6.411  65.968  1.00  0.00    -0.062 A  
HETATM   31  C   UNL     1      -7.549   7.473  65.260  1.00  0.00    -0.097 A  
HETATM   32  N   UNL     1      -7.553   7.737  63.914  1.00  0.00    -0.111 NA 
HETATM   33  H   UNL     1      -7.103   7.151  63.210  1.00  0.00     0.000 HD 
ENDBRANCH  19  20
ENDBRANCH  18  19
ENDBRANCH  15  18
ENDBRANCH  14  15
ENDBRANCH  12  14
ENDBRANCH  11  12
ENDBRANCH  10  11
ENDBRANCH   9  10
ENDBRANCH   8   9
ENDBRANCH   2   3
TORSDOF 10
ENDMDL
MODEL      431
REMARK 921   NORMALIZED FREE ENERGY PREDICTED BY IDOCK:   -0.30 KCAL/MOL
REMARK 922        TOTAL FREE ENERGY PREDICTED BY IDOCK:   -2.31 KCAL/MOL
REMARK 923 INTER-LIGAND FREE ENERGY PREDICTED BY IDOCK:   -2.73 KCAL/MOL
REMARK 924 INTRA-LIGAND FREE ENERGY PREDICTED BY IDOCK:    0.41 KCAL/MOL
REMARK 927      BINDING AFFINITY PREDICTED BY RF-SCORE:    0.00 PKD
ROOT
HETATM    1  C   UNL     1      -7.239  11.060  69.531  1.00  0.00    -0.090 C  
HETATM    2  O   UNL     1      -6.065  10.283  69.301  1.00  0.00    -0.037 OA 
ENDROOT
BRANCH   2   3
HETATM    3  C   UNL     1      -6.129   8.964  69.673  1.00  0.00    -0.039 A  
HETATM    4  C   UNL     1      -5.214   8.021  69.177  1.00  0.00    -0.026 A  
HETATM    5  C   UNL     1      -5.253   6.693  69.599  1.00  0.00    -0.014 A  
HETATM    6  C   UNL     1      -6.224   6.281  70.502  1.00  0.00    -0.035 A  
HETATM    7  C   UNL     1      -7.169   7.195  70.963  1.00  0.00    -0.074 A  
HETATM    8  C   UNL     1      -7.144   8.536  70.551  1.00  0.00    -0.041 A  
BRANCH   8   9
HETATM    9  O   UNL     1      -8.158   9.268  71.122  1.00  0.00    -0.298 OA 
BRANCH   9  10
HETATM   10  C   UNL     1      -9.454   8.683  71.136  1.00  0.00    -0.215 C  
BRANCH  10  11
HETATM   11  C   UNL     1      -9.990   8.546  69.701  1.00  0.00    -0.192 C  
BRANCH  11  12
HETATM   12  N   UNL     1     -10.378   9.828  69.085  1.00  0.00    -0.200 NA 
HETATM   13  H   UNL     1      -9.777  10.054  68.293  1.00  0.00     0.000 HD 
BRANCH  12  14
HETATM   14  C   UNL     1     -11.805   9.856  68.697  1.00  0.00     0.661 C  
BRANCH  14  15
HETATM   15  C   UNL     1     -12.696  10.508  69.776  1.00  0.00     0.136 C  
HETATM   16  O   UNL     1     -13.796   9.642  70.072  1.00  0.00     0.149 OA 
HETATM   17  H   UNL     1     -14.344  10.043  70.736  1.00  0.00     0.000 HD 
BRANCH  15  18
HETATM   18  C   UNL     1     -11.875  10.798  71.039  1.00  0.00    -0.247 C  
BRANCH  18  19
HETATM   19  O   UNL     1     -11.345  12.119  71.010  1.00  0.00     1.161 OA 
BRANCH  19  20
HETATM   20  C   UNL     1     -12.247  13.131  71.238  1.00  0.00     0.026 A  
HETATM   21  C   UNL     1     -13.457  12.977  71.940  1.00  0.00    -0.498 A  
HETATM   22  C   UNL     1     -14.311  14.054  72.160  1.00  0.00    -0.577 A  
HETATM   23  C   UNL     1     -13.996  15.328  71.692  1.00  0.00    -0.627 A  
HETATM   24  C   UNL     1     -12.795  15.475  70.986  1.00  0.00    -0.482 A  
HETATM   25  C   UNL     1     -11.919  14.416  70.742  1.00  0.00    -0.391 A  
HETATM   26  C   UNL     1     -10.822  14.941  69.981  1.00  0.00    -0.202 A  
HETATM   27  C   UNL     1      -9.653  14.377  69.425  1.00  0.00     0.210 A  
HETATM   28  C   UNL     1      -8.757  15.190  68.724  1.00  0.00    -0.194 A  
HETATM   29  C   UNL     1      -9.009  16.551  68.573  1.00  0.00    -0.231 A  
HETATM   30  C   UNL     1     -10.160  17.136  69.109  1.00  0.00    -0.254 A  
HETATM   31  C   UNL     1     -11.048  16.303  69.804  1.00  0.00    -0.337 A  
HETATM   32  N   UNL     1     -12.239  16.597  70.415  1.00  0.00     0.230 NA 
HETATM   33  H   UNL     1     -12.659  17.527  70.444  1.00  0.00     0.000 HD 
ENDBRANCH  19  20
ENDBRANCH  18  19
ENDBRANCH  15  18
ENDBRANCH  14  15
ENDBRANCH  12  14
ENDBRANCH  11  12
ENDBRANCH  10  11
ENDBRANCH   9  10
ENDBRANCH   8   9
ENDBRANCH   2   3
TORSDOF 10
ENDMDL
MODEL      432
REMARK 921   NORMALIZED FREE ENERGY PREDICTED BY IDOCK:   -0.06 KCAL/MOL
REMARK 922        TOTAL FREE ENERGY PREDICTED BY IDOCK:   -1.95 KCAL/MOL
REMARK 923 INTER-LIGAND FREE ENERGY PREDICTED BY IDOCK:   -3.56 KCAL/MOL
REMARK 924 INTRA-LIGAND FREE ENERGY PREDICTED BY IDOCK:    1.61 KCAL/MOL
REMARK 927      BINDING AFFINITY PREDICTED BY RF-SCORE:    0.00 PKD
ROOT
HETATM    1  C   UNL     1      -6.784   6.822  63.737  1.00  0.00    -0.049 C  
HETATM    2  O   UNL     1      -7.724   6.251  64.645  1.00  0.00    -0.091 OA 
ENDROOT
BRANCH   2   3
HETATM    3  C   UNL     1      -8.263   5.044  64.280  1.00  0.00    -0.128 A  
HETATM    4  C   UNL     1      -9.091   4.926  63.151  1.00  0.00     0.017 A  
HETATM    5  C   UNL     1      -9.594   3.687  62.756  1.00  0.00    -0.110 A  
HETATM    6  C   UNL     1      -9.301   2.551  63.498  1.00  0.00    -0.100 A  
HETATM    7  C   UNL     1      -8.522   2.663  64.649  1.00  0.00    -0.089 A  
HETATM    8  C   UNL     1      -8.005   3.900  65.061  1.00  0.00    -0.093 A  
BRANCH   8   9
HETATM    9  O   UNL     1      -7.266   3.790  66.214  1.00  0.00    -0.063 OA 
BRANCH   9  10
HETATM   10  C   UNL     1      -6.414   4.879  66.547  1.00  0.00    -0.041 C  
BRANCH  10  11
HETATM   11  C   UNL     1      -7.131   5.838  67.513  1.00  0.00    -0.074 C  
BRANCH  11  12
HETATM   12  N   UNL     1      -7.692   5.174  68.704  1.00  0.00    -0.078 NA 
HETATM   13  H   UNL     1      -8.239   5.827  69.266  1.00  0.00     0.000 HD 
BRANCH  12  14
HETATM   14  C   UNL     1      -8.483   3.974  68.358  1.00  0.00    -0.092 C  
BRANCH  14  15
HETATM   15  C   UNL     1      -8.888   3.157  69.604  1.00  0.00    -0.086 C  
HETATM   16  O   UNL     1      -7.712   2.646  70.240  1.00  0.00    -0.043 OA 
HETATM   17  H   UNL     1      -7.961   2.144  71.007  1.00  0.00     0.000 HD 
BRANCH  15  18
HETATM   18  C   UNL     1      -9.696   4.030  70.573  1.00  0.00    -0.188 C  
BRANCH  18  19
HETATM   19  O   UNL     1      -9.998   5.292  69.988  1.00  0.00    -0.201 OA 
BRANCH  19  20
HETATM   20  C   UNL     1     -10.773   6.134  70.750  1.00  0.00    -0.266 A  
HETATM   21  C   UNL     1     -12.162   6.297  70.597  1.00  0.00     0.198 A  
HETATM   22  C   UNL     1     -12.889   7.146  71.426  1.00  0.00    -0.431 A  
HETATM   23  C   UNL     1     -12.265   7.869  72.441  1.00  0.00    -0.295 A  
HETATM   24  C   UNL     1     -10.880   7.711  72.584  1.00  0.00    -0.340 A  
HETATM   25  C   UNL     1     -10.120   6.872  71.768  1.00  0.00    -0.198 A  
HETATM   26  C   UNL     1      -8.755   6.987  72.198  1.00  0.00    -0.133 A  
HETATM   27  C   UNL     1      -7.538   6.418  71.764  1.00  0.00    -0.095 A  
HETATM   28  C   UNL     1      -6.348   6.743  72.423  1.00  0.00    -0.053 A  
HETATM   29  C   UNL     1      -6.356   7.624  73.502  1.00  0.00    -0.067 A  
HETATM   30  C   UNL     1      -7.546   8.206  73.949  1.00  0.00    -0.229 A  
HETATM   31  C   UNL     1      -8.727   7.870  73.273  1.00  0.00    -0.236 A  
HETATM   32  N   UNL     1     -10.015   8.291  73.484  1.00  0.00     0.097 NA 
HETATM   33  H   UNL     1     -10.295   8.948  74.212  1.00  0.00     0.000 HD 
ENDBRANCH  19  20
ENDBRANCH  18  19
ENDBRANCH  15  18
ENDBRANCH  14  15
ENDBRANCH  12  14
ENDBRANCH  11  12
ENDBRANCH  10  11
ENDBRANCH   9  10
ENDBRANCH   8   9
ENDBRANCH   2   3
TORSDOF 10
ENDMDL
MODEL      433
REMARK 921   NORMALIZED FREE ENERGY PREDICTED BY IDOCK:    0.80 KCAL/MOL
REMARK 922        TOTAL FREE ENERGY PREDICTED BY IDOCK:   -0.58 KCAL/MOL
REMARK 923 INTER-LIGAND FREE ENERGY PREDICTED BY IDOCK:    0.86 KCAL/MOL
REMARK 924 INTRA-LIGAND FREE ENERGY PREDICTED BY IDOCK:   -1.44 KCAL/MOL
REMARK 927      BINDING AFFINITY PREDICTED BY RF-SCORE:    0.00 PKD
ROOT
HETATM    1  C   UNL     1      -6.482  12.874  69.377  1.00  0.00    -0.091 C  
HETATM    2  O   UNL     1      -7.201  11.649  69.503  1.00  0.00    -0.029 OA 
ENDROOT
BRANCH   2   3
HETATM    3  C   UNL     1      -6.920  10.894  70.614  1.00  0.00     0.903 A  
HETATM    4  C   UNL     1      -5.687  11.003  71.278  1.00  0.00     0.168 A  
HETATM    5  C   UNL     1      -5.429  10.270  72.436  1.00  0.00     0.319 A  
HETATM    6  C   UNL     1      -6.387   9.396  72.932  1.00  0.00     0.467 A  
HETATM    7  C   UNL     1      -7.594   9.241  72.253  1.00  0.00     0.755 A  
HETATM    8  C   UNL     1      -7.874   9.972  71.089  1.00  0.00     1.319 A  
BRANCH   8   9
HETATM    9  O   UNL     1      -9.115   9.672  70.579  1.00  0.00    -0.242 OA 
BRANCH   9  10
HETATM   10  C   UNL     1      -9.182   8.660  69.582  1.00  0.00    -0.157 C  
BRANCH  10  11
HETATM   11  C   UNL     1     -10.450   7.811  69.771  1.00  0.00    -0.233 C  
BRANCH  11  12
HETATM   12  N   UNL     1     -10.216   6.359  69.667  1.00  0.00    -0.180 NA 
HETATM   13  H   UNL     1     -10.895   5.836  70.220  1.00  0.00     0.000 HD 
BRANCH  12  14
HETATM   14  C   UNL     1     -10.197   5.893  68.264  1.00  0.00    -0.184 C  
BRANCH  14  15
HETATM   15  C   UNL     1      -9.045   4.902  67.989  1.00  0.00    -0.114 C  
HETATM   16  O   UNL     1      -9.342   3.645  68.607  1.00  0.00    -0.149 OA 
HETATM   17  H   UNL     1      -8.633   3.035  68.437  1.00  0.00     0.000 HD 
BRANCH  15  18
HETATM   18  C   UNL     1      -8.840   4.731  66.479  1.00  0.00    -0.111 C  
BRANCH  18  19
HETATM   19  O   UNL     1      -8.869   5.991  65.816  1.00  0.00    -0.156 OA 
BRANCH  19  20
HETATM   20  C   UNL     1      -7.645   6.572  65.582  1.00  0.00    -0.086 A  
HETATM   21  C   UNL     1      -6.458   5.859  65.331  1.00  0.00    -0.042 A  
HETATM   22  C   UNL     1      -5.259   6.514  65.072  1.00  0.00    -0.021 A  
HETATM   23  C   UNL     1      -5.189   7.906  65.051  1.00  0.00    -0.029 A  
HETATM   24  C   UNL     1      -6.370   8.612  65.309  1.00  0.00    -0.056 A  
HETATM   25  C   UNL     1      -7.589   7.987  65.578  1.00  0.00    -0.085 A  
HETATM   26  C   UNL     1      -8.554   9.024  65.810  1.00  0.00    -0.180 A  
HETATM   27  C   UNL     1      -9.926   9.032  66.142  1.00  0.00    -0.311 A  
HETATM   28  C   UNL     1     -10.595  10.251  66.296  1.00  0.00    -0.150 A  
HETATM   29  C   UNL     1      -9.916  11.454  66.124  1.00  0.00    -0.265 A  
HETATM   30  C   UNL     1      -8.556  11.476  65.799  1.00  0.00     0.059 A  
HETATM   31  C   UNL     1      -7.904  10.244  65.654  1.00  0.00    -0.151 A  
HETATM   32  N   UNL     1      -6.595   9.969  65.355  1.00  0.00    -0.103 NA 
HETATM   33  H   UNL     1      -5.880  10.678  65.187  1.00  0.00     0.000 HD 
ENDBRANCH  19  20
ENDBRANCH  18  19
ENDBRANCH  15  18
ENDBRANCH  14  15
ENDBRANCH  12  14
ENDBRANCH  11  12
ENDBRANCH  10  11
ENDBRANCH   9  10
ENDBRANCH   8   9
ENDBRANCH   2   3
TORSDOF 10
ENDMDL
MODEL      434
REMARK 921   NORMALIZED FREE ENERGY PREDICTED BY IDOCK:    1.58 KCAL/MOL
REMARK 922        TOTAL FREE ENERGY PREDICTED BY IDOCK:    0.66 KCAL/MOL
REMARK 923 INTER-LIGAND FREE ENERGY PREDICTED BY IDOCK:    0.30 KCAL/MOL
REMARK 924 INTRA-LIGAND FREE ENERGY PREDICTED BY IDOCK:    0.37 KCAL/MOL
REMARK 927      BINDING AFFINITY PREDICTED BY RF-SCORE:    0.00 PKD
ROOT
HETATM    1  C   UNL     1      -7.920  13.848  69.440  1.00  0.00     0.441 C  
HETATM    2  O   UNL     1      -7.949  14.534  68.190  1.00  0.00    -0.117 OA 
ENDROOT
BRANCH   2   3
HETATM    3  C   UNL     1      -8.849  14.070  67.265  1.00  0.00    -0.218 A  
HETATM    4  C   UNL     1     -10.214  14.392  67.348  1.00  0.00    -0.247 A  
HETATM    5  C   UNL     1     -11.114  13.959  66.376  1.00  0.00    -0.309 A  
HETATM    6  C   UNL     1     -10.670  13.173  65.321  1.00  0.00    -0.318 A  
HETATM    7  C   UNL     1      -9.328  12.804  65.254  1.00  0.00     0.361 A  
HETATM    8  C   UNL     1      -8.406  13.233  66.221  1.00  0.00     0.836 A  
BRANCH   8   9
HETATM    9  O   UNL     1      -7.140  12.761  65.970  1.00  0.00     1.640 OA 
BRANCH   9  10
HETATM   10  C   UNL     1      -7.011  11.379  65.657  1.00  0.00     0.607 C  
BRANCH  10  11
HETATM   11  C   UNL     1      -7.771  10.528  66.688  1.00  0.00    -0.123 C  
BRANCH  11  12
HETATM   12  N   UNL     1      -8.447   9.353  66.108  1.00  0.00    -0.118 NA 
HETATM   13  H   UNL     1      -7.806   8.565  66.019  1.00  0.00     0.000 HD 
BRANCH  12  14
HETATM   14  C   UNL     1      -9.659   8.972  66.867  1.00  0.00    -0.185 C  
BRANCH  14  15
HETATM   15  C   UNL     1      -9.668   7.475  67.245  1.00  0.00    -0.167 C  
HETATM   16  O   UNL     1      -8.719   6.774  66.436  1.00  0.00    -0.127 OA 
HETATM   17  H   UNL     1      -8.724   5.852  66.669  1.00  0.00     0.000 HD 
BRANCH  15  18
HETATM   18  C   UNL     1      -9.346   7.301  68.735  1.00  0.00    -0.143 C  
BRANCH  18  19
HETATM   19  O   UNL     1      -9.009   5.950  69.029  1.00  0.00    -0.121 OA 
BRANCH  19  20
HETATM   20  C   UNL     1      -9.200   5.555  70.331  1.00  0.00    -0.151 A  
HETATM   21  C   UNL     1     -10.038   4.496  70.728  1.00  0.00    -0.233 A  
HETATM   22  C   UNL     1     -10.162   4.131  72.065  1.00  0.00    -0.200 A  
HETATM   23  C   UNL     1      -9.457   4.802  73.063  1.00  0.00    -0.146 A  
HETATM   24  C   UNL     1      -8.631   5.861  72.664  1.00  0.00    -0.119 A  
HETATM   25  C   UNL     1      -8.488   6.257  71.334  1.00  0.00    -0.127 A  
HETATM   26  C   UNL     1      -7.587   7.374  71.320  1.00  0.00    -0.082 A  
HETATM   27  C   UNL     1      -7.073   8.209  70.303  1.00  0.00    -0.047 A  
HETATM   28  C   UNL     1      -6.183   9.236  70.634  1.00  0.00    -0.060 A  
HETATM   29  C   UNL     1      -5.800   9.438  71.958  1.00  0.00     0.010 A  
HETATM   30  C   UNL     1      -6.297   8.630  72.985  1.00  0.00    -0.071 A  
HETATM   31  C   UNL     1      -7.191   7.611  72.633  1.00  0.00    -0.079 A  
HETATM   32  N   UNL     1      -7.833   6.689  73.420  1.00  0.00    -0.091 NA 
HETATM   33  H   UNL     1      -7.732   6.626  74.433  1.00  0.00     0.000 HD 
ENDBRANCH  19  20
ENDBRANCH  18  19
ENDBRANCH  15  18
ENDBRANCH  14  15
ENDBRANCH  12  14
ENDBRANCH  11  12
ENDBRANCH  10  11
ENDBRANCH   9  10
ENDBRANCH   8   9
ENDBRANCH   2   3
TORSDOF 10
ENDMDL
MODEL      435
REMARK 921   NORMALIZED FREE ENERGY PREDICTED BY IDOCK:    2.35 KCAL/MOL
REMARK 922        TOTAL FREE ENERGY PREDICTED BY IDOCK:    1.88 KCAL/MOL
REMARK 923 INTER-LIGAND FREE ENERGY PREDICTED BY IDOCK:   -1.30 KCAL/MOL
REMARK 924 INTRA-LIGAND FREE ENERGY PREDICTED BY IDOCK:    3.18 KCAL/MOL
REMARK 927      BINDING AFFINITY PREDICTED BY RF-SCORE:    0.00 PKD
ROOT
HETATM    1  C   UNL     1      -6.754  12.205  68.816  1.00  0.00    -0.088 C  
HETATM    2  O   UNL     1      -5.735  11.319  68.356  1.00  0.00    -0.043 OA 
ENDROOT
BRANCH   2   3
HETATM    3  C   UNL     1      -5.911   9.990  68.649  1.00  0.00    -0.041 A  
HETATM    4  C   UNL     1      -5.145   8.996  68.019  1.00  0.00    -0.034 A  
HETATM    5  C   UNL     1      -5.293   7.652  68.358  1.00  0.00    -0.027 A  
HETATM    6  C   UNL     1      -6.230   7.277  69.313  1.00  0.00    -0.035 A  
HETATM    7  C   UNL     1      -7.032   8.249  69.908  1.00  0.00    -0.044 A  
HETATM    8  C   UNL     1      -6.895   9.606  69.582  1.00  0.00    -0.067 A  
BRANCH   8   9
HETATM    9  O   UNL     1      -7.777  10.395  70.282  1.00  0.00    -0.144 OA 
BRANCH   9  10
HETATM   10  C   UNL     1      -9.112   9.922  70.410  1.00  0.00     0.037 C  
BRANCH  10  11
HETATM   11  C   UNL     1      -9.571   9.263  69.098  1.00  0.00    -0.161 C  
BRANCH  11  12
HETATM   12  N   UNL     1      -9.865  10.225  68.020  1.00  0.00    -0.149 NA 
HETATM   13  H   UNL     1      -9.496   9.901  67.126  1.00  0.00     0.000 HD 
BRANCH  12  14
HETATM   14  C   UNL     1     -11.308  10.534  67.922  1.00  0.00    -0.222 C  
BRANCH  14  15
HETATM   15  C   UNL     1     -11.794  11.446  69.070  1.00  0.00    -0.348 C  
HETATM   16  O   UNL     1     -12.750  10.739  69.866  1.00  0.00    -0.409 OA 
HETATM   17  H   UNL     1     -13.048  11.300  70.572  1.00  0.00     0.000 HD 
BRANCH  15  18
HETATM   18  C   UNL     1     -10.605  11.904  69.924  1.00  0.00     0.809 C  
BRANCH  18  19
HETATM   19  O   UNL     1     -10.068  13.128  69.434  1.00  0.00     0.346 OA 
BRANCH  19  20
HETATM   20  C   UNL     1     -10.937  14.193  69.406  1.00  0.00    -0.179 A  
HETATM   21  C   UNL     1     -12.231  14.181  69.958  1.00  0.00    -0.418 A  
HETATM   22  C   UNL     1     -13.047  15.308  69.919  1.00  0.00     0.209 A  
HETATM   23  C   UNL     1     -12.609  16.494  69.332  1.00  0.00     1.855 A  
HETATM   24  C   UNL     1     -11.323  16.499  68.776  1.00  0.00    -0.221 A  
HETATM   25  C   UNL     1     -10.481  15.385  68.792  1.00  0.00    -0.231 A  
HETATM   26  C   UNL     1      -9.271  15.761  68.118  1.00  0.00    -0.189 A  
HETATM   27  C   UNL     1      -8.074  15.083  67.799  1.00  0.00    -0.160 A  
HETATM   28  C   UNL     1      -7.055  15.759  67.120  1.00  0.00    -0.225 A  
HETATM   29  C   UNL     1      -7.214  17.095  66.758  1.00  0.00    -0.260 A  
HETATM   30  C   UNL     1      -8.390  17.789  67.057  1.00  0.00    -0.242 A  
HETATM   31  C   UNL     1      -9.400  17.092  67.734  1.00  0.00    -0.237 A  
HETATM   32  N   UNL     1     -10.641  17.511  68.140  1.00  0.00    -0.378 NA 
HETATM   33  H   UNL     1     -11.011  18.450  67.990  1.00  0.00     0.000 HD 
ENDBRANCH  19  20
ENDBRANCH  18  19
ENDBRANCH  15  18
ENDBRANCH  14  15
ENDBRANCH  12  14
ENDBRANCH  11  12
ENDBRANCH  10  11
ENDBRANCH   9  10
ENDBRANCH   8   9
ENDBRANCH   2   3
TORSDOF 10
ENDMDL
MODEL      436
REMARK 921   NORMALIZED FREE ENERGY PREDICTED BY IDOCK:    2.54 KCAL/MOL
REMARK 922        TOTAL FREE ENERGY PREDICTED BY IDOCK:    2.17 KCAL/MOL
REMARK 923 INTER-LIGAND FREE ENERGY PREDICTED BY IDOCK:   -2.48 KCAL/MOL
REMARK 924 INTRA-LIGAND FREE ENERGY PREDICTED BY IDOCK:    4.65 KCAL/MOL
REMARK 927      BINDING AFFINITY PREDICTED BY RF-SCORE:    0.00 PKD
ROOT
HETATM    1  C   UNL     1      -6.372   6.205  62.913  1.00  0.00    -0.026 C  
HETATM    2  O   UNL     1      -7.280   5.757  63.918  1.00  0.00    -0.050 OA 
ENDROOT
BRANCH   2   3
HETATM    3  C   UNL     1      -8.037   4.657  63.603  1.00  0.00    -0.101 A  
HETATM    4  C   UNL     1      -9.275   4.785  62.952  1.00  0.00    -0.020 A  
HETATM    5  C   UNL     1     -10.015   3.660  62.590  1.00  0.00    -0.137 A  
HETATM    6  C   UNL     1      -9.542   2.391  62.897  1.00  0.00    -0.090 A  
HETATM    7  C   UNL     1      -8.340   2.252  63.589  1.00  0.00    -0.081 A  
HETATM    8  C   UNL     1      -7.581   3.372  63.959  1.00  0.00    -0.075 A  
BRANCH   8   9
HETATM    9  O   UNL     1      -6.434   3.017  64.628  1.00  0.00    -0.026 OA 
BRANCH   9  10
HETATM   10  C   UNL     1      -5.445   4.024  64.802  1.00  0.00    -0.013 C  
BRANCH  10  11
HETATM   11  C   UNL     1      -5.891   5.025  65.881  1.00  0.00    -0.018 C  
BRANCH  11  12
HETATM   12  N   UNL     1      -6.463   4.391  67.083  1.00  0.00    -0.041 NA 
HETATM   13  H   UNL     1      -7.110   5.019  67.559  1.00  0.00     0.000 HD 
BRANCH  12  14
HETATM   14  C   UNL     1      -7.104   3.093  66.781  1.00  0.00    -0.054 C  
BRANCH  14  15
HETATM   15  C   UNL     1      -7.381   2.264  68.054  1.00  0.00    -0.048 C  
HETATM   16  O   UNL     1      -6.143   1.965  68.706  1.00  0.00    -0.023 OA 
HETATM   17  H   UNL     1      -6.314   1.455  69.489  1.00  0.00     0.000 HD 
BRANCH  15  18
HETATM   18  C   UNL     1      -8.320   3.032  68.994  1.00  0.00    -0.060 C  
BRANCH  18  19
HETATM   19  O   UNL     1      -8.229   4.434  68.768  1.00  0.00    -0.079 OA 
BRANCH  19  20
HETATM   20  C   UNL     1      -8.955   5.227  69.626  1.00  0.00    -0.107 A  
HETATM   21  C   UNL     1     -10.160   5.870  69.291  1.00  0.00    -0.251 A  
HETATM   22  C   UNL     1     -10.858   6.634  70.221  1.00  0.00    -0.321 A  
HETATM   23  C   UNL     1     -10.387   6.790  71.523  1.00  0.00    -0.228 A  
HETATM   24  C   UNL     1      -9.182   6.155  71.850  1.00  0.00    -0.147 A  
HETATM   25  C   UNL     1      -8.453   5.387  70.941  1.00  0.00    -0.119 A  
HETATM   26  C   UNL     1      -7.280   4.922  71.625  1.00  0.00    -0.066 A  
HETATM   27  C   UNL     1      -6.169   4.137  71.246  1.00  0.00    -0.015 A  
HETATM   28  C   UNL     1      -5.170   3.853  72.183  1.00  0.00     0.000 A  
HETATM   29  C   UNL     1      -5.265   4.339  73.485  1.00  0.00    -0.007 A  
HETATM   30  C   UNL     1      -6.351   5.123  73.886  1.00  0.00    -0.066 A  
HETATM   31  C   UNL     1      -7.338   5.400  72.931  1.00  0.00    -0.092 A  
HETATM   32  N   UNL     1      -8.489   6.137  73.039  1.00  0.00    -0.119 NA 
HETATM   33  H   UNL     1      -8.792   6.611  73.891  1.00  0.00     0.000 HD 
ENDBRANCH  19  20
ENDBRANCH  18  19
ENDBRANCH  15  18
ENDBRANCH  14  15
ENDBRANCH  12  14
ENDBRANCH  11  12
ENDBRANCH  10  11
ENDBRANCH   9  10
ENDBRANCH   8   9
ENDBRANCH   2   3
TORSDOF 10
ENDMDL
MODEL      437
REMARK 921   NORMALIZED FREE ENERGY PREDICTED BY IDOCK:    3.71 KCAL/MOL
REMARK 922        TOTAL FREE ENERGY PREDICTED BY IDOCK:    4.04 KCAL/MOL
REMARK 923 INTER-LIGAND FREE ENERGY PREDICTED BY IDOCK:    3.81 KCAL/MOL
REMARK 924 INTRA-LIGAND FREE ENERGY PREDICTED BY IDOCK:    0.23 KCAL/MOL
REMARK 927      BINDING AFFINITY PREDICTED BY RF-SCORE:    0.00 PKD
ROOT
HETATM    1  C   UNL     1      -6.476  12.922  62.382  1.00  0.00     6.792 C  
HETATM    2  O   UNL     1      -7.364  12.254  63.276  1.00  0.00     3.257 OA 
ENDROOT
BRANCH   2   3
HETATM    3  C   UNL     1      -7.701  10.966  62.946  1.00  0.00     0.129 A  
HETATM    4  C   UNL     1      -6.718   9.978  62.766  1.00  0.00    -0.124 A  
HETATM    5  C   UNL     1      -7.070   8.659  62.481  1.00  0.00    -0.097 A  
HETATM    6  C   UNL     1      -8.408   8.313  62.343  1.00  0.00    -0.160 A  
HETATM    7  C   UNL     1      -9.390   9.295  62.468  1.00  0.00     0.252 A  
HETATM    8  C   UNL     1      -9.055  10.626  62.758  1.00  0.00    -0.294 A  
BRANCH   8   9
HETATM    9  O   UNL     1     -10.167  11.429  62.841  1.00  0.00    -0.272 OA 
BRANCH   9  10
HETATM   10  C   UNL     1     -11.077  11.173  63.903  1.00  0.00    -0.091 C  
BRANCH  10  11
HETATM   11  C   UNL     1     -10.537  11.759  65.219  1.00  0.00    -0.278 C  
BRANCH  11  12
HETATM   12  N   UNL     1     -11.580  12.329  66.089  1.00  0.00    -0.401 NA 
HETATM   13  H   UNL     1     -11.373  12.159  67.074  1.00  0.00     0.000 HD 
BRANCH  12  14
HETATM   14  C   UNL     1     -11.801  13.769  65.832  1.00  0.00    -0.383 C  
BRANCH  14  15
HETATM   15  C   UNL     1     -11.108  14.248  64.537  1.00  0.00    -0.312 C  
HETATM   16  O   UNL     1     -11.964  13.994  63.419  1.00  0.00    -0.801 OA 
HETATM   17  H   UNL     1     -11.538  14.288  62.622  1.00  0.00     0.000 HD 
BRANCH  15  18
HETATM   18  C   UNL     1     -10.770  15.741  64.636  1.00  0.00    -0.109 C  
BRANCH  18  19
HETATM   19  O   UNL     1      -9.411  15.930  65.016  1.00  0.00    -0.081 OA 
BRANCH  19  20
HETATM   20  C   UNL     1      -9.107  15.626  66.322  1.00  0.00    -0.341 A  
HETATM   21  C   UNL     1      -8.725  14.349  66.775  1.00  0.00    -0.187 A  
HETATM   22  C   UNL     1      -8.402  14.119  68.108  1.00  0.00    -0.161 A  
HETATM   23  C   UNL     1      -8.445  15.148  69.047  1.00  0.00    -0.214 A  
HETATM   24  C   UNL     1      -8.834  16.415  68.594  1.00  0.00    -0.234 A  
HETATM   25  C   UNL     1      -9.171  16.680  67.265  1.00  0.00    -0.228 A  
HETATM   26  C   UNL     1      -9.532  18.066  67.189  1.00  0.00    -0.264 A  
HETATM   27  C   UNL     1      -9.975  18.910  66.147  1.00  0.00    -0.395 A  
HETATM   28  C   UNL     1     -10.244  20.257  66.412  1.00  0.00    -0.463 A  
HETATM   29  C   UNL     1     -10.077  20.770  67.696  1.00  0.00    -0.206 A  
HETATM   30  C   UNL     1      -9.644  19.956  68.748  1.00  0.00    -0.310 A  
HETATM   31  C   UNL     1      -9.385  18.609  68.462  1.00  0.00    -0.346 A  
HETATM   32  N   UNL     1      -8.966  17.597  69.286  1.00  0.00     0.133 NA 
HETATM   33  H   UNL     1      -8.776  17.705  70.283  1.00  0.00     0.000 HD 
ENDBRANCH  19  20
ENDBRANCH  18  19
ENDBRANCH  15  18
ENDBRANCH  14  15
ENDBRANCH  12  14
ENDBRANCH  11  12
ENDBRANCH  10  11
ENDBRANCH   9  10
ENDBRANCH   8   9
ENDBRANCH   2   3
TORSDOF 10
ENDMDL
MODEL      438
REMARK 921   NORMALIZED FREE ENERGY PREDICTED BY IDOCK:    3.76 KCAL/MOL
REMARK 922        TOTAL FREE ENERGY PREDICTED BY IDOCK:    4.12 KCAL/MOL
REMARK 923 INTER-LIGAND FREE ENERGY PREDICTED BY IDOCK:   -0.35 KCAL/MOL
REMARK 924 INTRA-LIGAND FREE ENERGY PREDICTED BY IDOCK:    4.47 KCAL/MOL
REMARK 927      BINDING AFFINITY PREDICTED BY RF-SCORE:    0.00 PKD
ROOT
HETATM    1  C   UNL     1      -8.018  13.949  69.799  1.00  0.00     0.952 C  
HETATM    2  O   UNL     1      -7.645  13.579  68.473  1.00  0.00    -0.123 OA 
ENDROOT
BRANCH   2   3
HETATM    3  C   UNL     1      -7.965  12.302  68.087  1.00  0.00    -0.155 A  
HETATM    4  C   UNL     1      -9.083  12.043  67.276  1.00  0.00    -0.178 A  
HETATM    5  C   UNL     1      -9.373  10.749  66.846  1.00  0.00    -0.179 A  
HETATM    6  C   UNL     1      -8.567   9.690  67.242  1.00  0.00    -0.132 A  
HETATM    7  C   UNL     1      -7.485   9.927  68.088  1.00  0.00    -0.080 A  
HETATM    8  C   UNL     1      -7.176  11.222  68.529  1.00  0.00    -0.094 A  
BRANCH   8   9
HETATM    9  O   UNL     1      -6.074  11.236  69.350  1.00  0.00    -0.058 OA 
BRANCH   9  10
HETATM   10  C   UNL     1      -5.993  10.225  70.347  1.00  0.00    -0.096 C  
BRANCH  10  11
HETATM   11  C   UNL     1      -7.314  10.144  71.130  1.00  0.00     1.112 C  
BRANCH  11  12
HETATM   12  N   UNL     1      -8.331   9.286  70.495  1.00  0.00    -0.191 NA 
HETATM   13  H   UNL     1      -7.898   8.564  69.919  1.00  0.00     0.000 HD 
BRANCH  12  14
HETATM   14  C   UNL     1      -9.263   8.696  71.480  1.00  0.00    -0.246 C  
BRANCH  14  15
HETATM   15  C   UNL     1      -9.263   7.152  71.438  1.00  0.00    -0.150 C  
HETATM   16  O   UNL     1      -9.302   6.714  70.076  1.00  0.00    -0.157 OA 
HETATM   17  H   UNL     1      -9.302   5.764  70.050  1.00  0.00     0.000 HD 
BRANCH  15  18
HETATM   18  C   UNL     1      -8.022   6.602  72.151  1.00  0.00    -0.097 C  
BRANCH  18  19
HETATM   19  O   UNL     1      -6.829   7.057  71.522  1.00  0.00    -0.062 OA 
BRANCH  19  20
HETATM   20  C   UNL     1      -6.618   6.605  70.240  1.00  0.00    -0.045 A  
HETATM   21  C   UNL     1      -6.468   7.438  69.116  1.00  0.00    -0.040 A  
HETATM   22  C   UNL     1      -6.227   6.911  67.850  1.00  0.00    -0.034 A  
HETATM   23  C   UNL     1      -6.126   5.536  67.651  1.00  0.00    -0.026 A  
HETATM   24  C   UNL     1      -6.285   4.711  68.771  1.00  0.00    -0.031 A  
HETATM   25  C   UNL     1      -6.533   5.204  70.053  1.00  0.00    -0.035 A  
HETATM   26  C   UNL     1      -6.657   4.072  70.926  1.00  0.00    -0.031 A  
HETATM   27  C   UNL     1      -6.923   3.919  72.304  1.00  0.00    -0.049 A  
HETATM   28  C   UNL     1      -6.972   2.637  72.862  1.00  0.00    -0.027 A  
HETATM   29  C   UNL     1      -6.760   1.513  72.067  1.00  0.00    -0.015 A  
HETATM   30  C   UNL     1      -6.499   1.635  70.699  1.00  0.00    -0.024 A  
HETATM   31  C   UNL     1      -6.459   2.927  70.159  1.00  0.00    -0.029 A  
HETATM   32  N   UNL     1      -6.239   3.339  68.870  1.00  0.00    -0.028 NA 
HETATM   33  H   UNL     1      -6.064   2.710  68.085  1.00  0.00     0.000 HD 
ENDBRANCH  19  20
ENDBRANCH  18  19
ENDBRANCH  15  18
ENDBRANCH  14  15
ENDBRANCH  12  14
ENDBRANCH  11  12
ENDBRANCH  10  11
ENDBRANCH   9  10
ENDBRANCH   8   9
ENDBRANCH   2   3
TORSDOF 10
ENDMDL
MODEL      439
REMARK 921   NORMALIZED FREE ENERGY PREDICTED BY IDOCK:    4.15 KCAL/MOL
REMARK 922        TOTAL FREE ENERGY PREDICTED BY IDOCK:    4.73 KCAL/MOL
REMARK 923 INTER-LIGAND FREE ENERGY PREDICTED BY IDOCK:    0.53 KCAL/MOL
REMARK 924 INTRA-LIGAND FREE ENERGY PREDICTED BY IDOCK:    4.20 KCAL/MOL
REMARK 927      BINDING AFFINITY PREDICTED BY RF-SCORE:    0.00 PKD
ROOT
HETATM    1  C   UNL     1      -6.780  12.232  68.824  1.00  0.00    -0.089 C  
HETATM    2  O   UNL     1      -5.761  11.358  68.344  1.00  0.00    -0.046 OA 
ENDROOT
BRANCH   2   3
HETATM    3  C   UNL     1      -5.904  10.030  68.658  1.00  0.00    -0.041 A  
HETATM    4  C   UNL     1      -5.160   9.039  67.995  1.00  0.00    -0.034 A  
HETATM    5  C   UNL     1      -5.274   7.697  68.355  1.00  0.00    -0.026 A  
HETATM    6  C   UNL     1      -6.153   7.320  69.361  1.00  0.00    -0.030 A  
HETATM    7  C   UNL     1      -6.934   8.288  69.991  1.00  0.00    -0.043 A  
HETATM    8  C   UNL     1      -6.831   9.644  69.645  1.00  0.00    -0.067 A  
BRANCH   8   9
HETATM    9  O   UNL     1      -7.684  10.428  70.385  1.00  0.00    -0.125 OA 
BRANCH   9  10
HETATM   10  C   UNL     1      -8.974   9.900  70.667  1.00  0.00     0.328 C  
BRANCH  10  11
HETATM   11  C   UNL     1      -9.491   9.091  69.465  1.00  0.00    -0.164 C  
BRANCH  11  12
HETATM   12  N   UNL     1      -9.963   9.925  68.345  1.00  0.00    -0.154 NA 
HETATM   13  H   UNL     1      -9.640   9.558  67.450  1.00  0.00     0.000 HD 
BRANCH  12  14
HETATM   14  C   UNL     1     -11.433  10.095  68.352  1.00  0.00    -0.015 C  
BRANCH  14  15
HETATM   15  C   UNL     1     -11.919  10.957  69.538  1.00  0.00    -0.330 C  
HETATM   16  O   UNL     1     -12.783  10.177  70.369  1.00  0.00    -0.508 OA 
HETATM   17  H   UNL     1     -13.082  10.707  71.099  1.00  0.00     0.000 HD 
BRANCH  15  18
HETATM   18  C   UNL     1     -10.721  11.483  70.339  1.00  0.00     1.350 C  
BRANCH  18  19
HETATM   19  O   UNL     1     -10.271  12.731  69.821  1.00  0.00     0.871 OA 
BRANCH  19  20
HETATM   20  C   UNL     1     -11.247  13.675  69.604  1.00  0.00    -0.085 A  
HETATM   21  C   UNL     1     -11.879  14.416  70.619  1.00  0.00    -0.361 A  
HETATM   22  C   UNL     1     -12.839  15.379  70.324  1.00  0.00    -0.277 A  
HETATM   23  C   UNL     1     -13.210  15.645  69.007  1.00  0.00     2.029 A  
HETATM   24  C   UNL     1     -12.585  14.899  68.001  1.00  0.00     0.764 A  
HETATM   25  C   UNL     1     -11.622  13.922  68.261  1.00  0.00    -0.372 A  
HETATM   26  C   UNL     1     -11.232  13.364  66.998  1.00  0.00    -0.328 A  
HETATM   27  C   UNL     1     -10.333  12.348  66.609  1.00  0.00    -0.245 A  
HETATM   28  C   UNL     1     -10.176  12.043  65.252  1.00  0.00    -0.304 A  
HETATM   29  C   UNL     1     -10.901  12.735  64.285  1.00  0.00    -0.419 A  
HETATM   30  C   UNL     1     -11.802  13.743  64.643  1.00  0.00    -0.427 A  
HETATM   31  C   UNL     1     -11.947  14.030  66.007  1.00  0.00    -0.416 A  
HETATM   32  N   UNL     1     -12.752  14.945  66.635  1.00  0.00     0.099 NA 
HETATM   33  H   UNL     1     -13.392  15.577  66.154  1.00  0.00     0.000 HD 
ENDBRANCH  19  20
ENDBRANCH  18  19
ENDBRANCH  15  18
ENDBRANCH  14  15
ENDBRANCH  12  14
ENDBRANCH  11  12
ENDBRANCH  10  11
ENDBRANCH   9  10
ENDBRANCH   8   9
ENDBRANCH   2   3
TORSDOF 10
ENDMDL
MODEL      440
REMARK 921   NORMALIZED FREE ENERGY PREDICTED BY IDOCK:    4.38 KCAL/MOL
REMARK 922        TOTAL FREE ENERGY PREDICTED BY IDOCK:    5.09 KCAL/MOL
REMARK 923 INTER-LIGAND FREE ENERGY PREDICTED BY IDOCK:    0.07 KCAL/MOL
REMARK 924 INTRA-LIGAND FREE ENERGY PREDICTED BY IDOCK:    5.02 KCAL/MOL
REMARK 927      BINDING AFFINITY PREDICTED BY RF-SCORE:    0.00 PKD
ROOT
HETATM    1  C   UNL     1      -8.243  13.669  70.668  1.00  0.00     4.409 C  
HETATM    2  O   UNL     1      -8.364  14.490  69.509  1.00  0.00     0.071 OA 
ENDROOT
BRANCH   2   3
HETATM    3  C   UNL     1      -9.323  14.118  68.601  1.00  0.00    -0.152 A  
HETATM    4  C   UNL     1     -10.679  14.426  68.803  1.00  0.00    -0.258 A  
HETATM    5  C   UNL     1     -11.641  14.090  67.852  1.00  0.00    -0.377 A  
HETATM    6  C   UNL     1     -11.268  13.415  66.697  1.00  0.00    -0.330 A  
HETATM    7  C   UNL     1      -9.934  13.058  66.509  1.00  0.00    -0.262 A  
HETATM    8  C   UNL     1      -8.951  13.390  67.453  1.00  0.00    -0.215 A  
BRANCH   8   9
HETATM    9  O   UNL     1      -7.705  12.949  67.076  1.00  0.00    -0.097 OA 
BRANCH   9  10
HETATM   10  C   UNL     1      -7.507  11.542  67.007  1.00  0.00    -0.151 C  
BRANCH  10  11
HETATM   11  C   UNL     1      -7.819  10.895  68.367  1.00  0.00    -0.123 C  
BRANCH  11  12
HETATM   12  N   UNL     1      -9.222  11.052  68.793  1.00  0.00    -0.229 NA 
HETATM   13  H   UNL     1      -9.852  11.058  67.992  1.00  0.00     0.000 HD 
BRANCH  12  14
HETATM   14  C   UNL     1      -9.626  10.029  69.782  1.00  0.00    -0.216 C  
BRANCH  14  15
HETATM   15  C   UNL     1      -9.810   8.635  69.144  1.00  0.00    -0.185 C  
HETATM   16  O   UNL     1     -10.993   8.633  68.340  1.00  0.00    -0.447 OA 
HETATM   17  H   UNL     1     -11.106   7.775  67.947  1.00  0.00     0.000 HD 
BRANCH  15  18
HETATM   18  C   UNL     1      -8.580   8.268  68.304  1.00  0.00    -0.133 C  
BRANCH  18  19
HETATM   19  O   UNL     1      -8.965   7.791  67.019  1.00  0.00    -0.123 OA 
BRANCH  19  20
HETATM   20  C   UNL     1      -9.189   6.438  66.927  1.00  0.00    -0.135 A  
HETATM   21  C   UNL     1      -9.972   5.825  65.931  1.00  0.00     0.097 A  
HETATM   22  C   UNL     1     -10.131   4.444  65.880  1.00  0.00    -0.262 A  
HETATM   23  C   UNL     1      -9.517   3.614  66.817  1.00  0.00    -0.203 A  
HETATM   24  C   UNL     1      -8.746   4.228  67.811  1.00  0.00    -0.106 A  
HETATM   25  C   UNL     1      -8.570   5.610  67.895  1.00  0.00    -0.101 A  
HETATM   26  C   UNL     1      -7.745   5.863  69.042  1.00  0.00    -0.091 A  
HETATM   27  C   UNL     1      -7.242   7.033  69.651  1.00  0.00    -0.080 A  
HETATM   28  C   UNL     1      -6.436   6.930  70.791  1.00  0.00    -0.048 A  
HETATM   29  C   UNL     1      -6.128   5.681  71.325  1.00  0.00    -0.033 A  
HETATM   30  C   UNL     1      -6.615   4.506  70.745  1.00  0.00    -0.034 A  
HETATM   31  C   UNL     1      -7.424   4.632  69.607  1.00  0.00    -0.052 A  
HETATM   32  N   UNL     1      -8.038   3.668  68.850  1.00  0.00    -0.061 NA 
HETATM   33  H   UNL     1      -7.979   2.666  69.033  1.00  0.00     0.000 HD 
ENDBRANCH  19  20
ENDBRANCH  18  19
ENDBRANCH  15  18
ENDBRANCH  14  15
ENDBRANCH  12  14
ENDBRANCH  11  12
ENDBRANCH  10  11
ENDBRANCH   9  10
ENDBRANCH   8   9
ENDBRANCH   2   3
TORSDOF 10
ENDMDL
MODEL      441
REMARK 921   NORMALIZED FREE ENERGY PREDICTED BY IDOCK:    4.58 KCAL/MOL
REMARK 922        TOTAL FREE ENERGY PREDICTED BY IDOCK:    5.41 KCAL/MOL
REMARK 923 INTER-LIGAND FREE ENERGY PREDICTED BY IDOCK:   -3.47 KCAL/MOL
REMARK 924 INTRA-LIGAND FREE ENERGY PREDICTED BY IDOCK:    8.88 KCAL/MOL
REMARK 927      BINDING AFFINITY PREDICTED BY RF-SCORE:    0.00 PKD
ROOT
HETATM    1  C   UNL     1     -13.034  10.467  72.068  1.00  0.00    -0.385 C  
HETATM    2  O   UNL     1     -13.239   9.244  71.364  1.00  0.00    -0.345 OA 
ENDROOT
BRANCH   2   3
HETATM    3  C   UNL     1     -12.394   8.212  71.684  1.00  0.00    -0.314 A  
HETATM    4  C   UNL     1     -12.838   7.110  72.433  1.00  0.00     0.185 A  
HETATM    5  C   UNL     1     -11.987   6.041  72.711  1.00  0.00     0.001 A  
HETATM    6  C   UNL     1     -10.671   6.070  72.269  1.00  0.00    -0.272 A  
HETATM    7  C   UNL     1     -10.204   7.180  71.568  1.00  0.00    -0.210 A  
HETATM    8  C   UNL     1     -11.046   8.264  71.277  1.00  0.00    -0.251 A  
BRANCH   8   9
HETATM    9  O   UNL     1     -10.391   9.251  70.579  1.00  0.00    -0.216 OA 
BRANCH   9  10
HETATM   10  C   UNL     1      -9.075   8.962  70.125  1.00  0.00    -0.176 C  
BRANCH  10  11
HETATM   11  C   UNL     1      -9.110   8.482  68.664  1.00  0.00    -0.139 C  
BRANCH  11  12
HETATM   12  N   UNL     1      -8.256   7.310  68.401  1.00  0.00    -0.124 NA 
HETATM   13  H   UNL     1      -7.832   6.962  69.262  1.00  0.00     0.000 HD 
BRANCH  12  14
HETATM   14  C   UNL     1      -8.981   6.234  67.690  1.00  0.00    -0.115 C  
BRANCH  14  15
HETATM   15  C   UNL     1     -10.232   6.757  66.952  1.00  0.00    -0.231 C  
HETATM   16  O   UNL     1     -11.029   7.528  67.856  1.00  0.00    -0.467 OA 
HETATM   17  H   UNL     1     -11.799   7.851  67.401  1.00  0.00     0.000 HD 
BRANCH  15  18
HETATM   18  C   UNL     1      -9.819   7.598  65.737  1.00  0.00     0.669 C  
BRANCH  18  19
HETATM   19  O   UNL     1      -8.830   8.558  66.095  1.00  0.00    -0.146 OA 
BRANCH  19  20
HETATM   20  C   UNL     1      -7.644   8.481  65.403  1.00  0.00    -0.088 A  
HETATM   21  C   UNL     1      -6.751   9.554  65.231  1.00  0.00    -0.083 A  
HETATM   22  C   UNL     1      -5.552   9.397  64.543  1.00  0.00    -0.068 A  
HETATM   23  C   UNL     1      -5.191   8.166  63.998  1.00  0.00    -0.041 A  
HETATM   24  C   UNL     1      -6.087   7.103  64.164  1.00  0.00    -0.037 A  
HETATM   25  C   UNL     1      -7.300   7.227  64.843  1.00  0.00    -0.080 A  
HETATM   26  C   UNL     1      -7.947   5.947  64.790  1.00  0.00    -0.126 A  
HETATM   27  C   UNL     1      -9.180   5.449  65.265  1.00  0.00    -0.009 A  
HETATM   28  C   UNL     1      -9.518   4.110  65.045  1.00  0.00    -0.173 A  
HETATM   29  C   UNL     1      -8.646   3.265  64.361  1.00  0.00    -0.093 A  
HETATM   30  C   UNL     1      -7.421   3.732  63.876  1.00  0.00    -0.062 A  
HETATM   31  C   UNL     1      -7.104   5.078  64.103  1.00  0.00    -0.050 A  
HETATM   32  N   UNL     1      -5.995   5.797  63.738  1.00  0.00    -0.024 NA 
HETATM   33  H   UNL     1      -5.205   5.415  63.218  1.00  0.00     0.000 HD 
ENDBRANCH  19  20
ENDBRANCH  18  19
ENDBRANCH  15  18
ENDBRANCH  14  15
ENDBRANCH  12  14
ENDBRANCH  11  12
ENDBRANCH  10  11
ENDBRANCH   9  10
ENDBRANCH   8   9
ENDBRANCH   2   3
TORSDOF 10
ENDMDL
MODEL      442
REMARK 921   NORMALIZED FREE ENERGY PREDICTED BY IDOCK:    5.85 KCAL/MOL
REMARK 922        TOTAL FREE ENERGY PREDICTED BY IDOCK:    7.43 KCAL/MOL
REMARK 923 INTER-LIGAND FREE ENERGY PREDICTED BY IDOCK:   -4.17 KCAL/MOL
REMARK 924 INTRA-LIGAND FREE ENERGY PREDICTED BY IDOCK:   11.60 KCAL/MOL
REMARK 927      BINDING AFFINITY PREDICTED BY RF-SCORE:    0.00 PKD
ROOT
HETATM    1  C   UNL     1      -9.433  10.556  66.689  1.00  0.00    -0.168 C  
HETATM    2  O   UNL     1      -9.816   9.360  66.014  1.00  0.00    -0.269 OA 
ENDROOT
BRANCH   2   3
HETATM    3  C   UNL     1      -9.071   8.242  66.292  1.00  0.00    -0.188 A  
HETATM    4  C   UNL     1      -7.736   8.131  65.871  1.00  0.00    -0.091 A  
HETATM    5  C   UNL     1      -6.969   7.014  66.201  1.00  0.00    -0.065 A  
HETATM    6  C   UNL     1      -7.534   5.978  66.933  1.00  0.00    -0.084 A  
HETATM    7  C   UNL     1      -8.872   6.052  67.313  1.00  0.00    -0.107 A  
HETATM    8  C   UNL     1      -9.659   7.169  66.992  1.00  0.00    -0.159 A  
BRANCH   8   9
HETATM    9  O   UNL     1     -10.945   7.044  67.460  1.00  0.00    -0.262 OA 
BRANCH   9  10
HETATM   10  C   UNL     1     -11.153   6.175  68.566  1.00  0.00    -0.262 C  
BRANCH  10  11
HETATM   11  C   UNL     1      -9.983   6.288  69.558  1.00  0.00    -0.164 C  
BRANCH  11  12
HETATM   12  N   UNL     1     -10.179   7.316  70.596  1.00  0.00    -0.195 NA 
HETATM   13  H   UNL     1     -10.671   6.935  71.404  1.00  0.00     0.000 HD 
BRANCH  12  14
HETATM   14  C   UNL     1      -8.909   7.958  70.998  1.00  0.00    -0.141 C  
BRANCH  14  15
HETATM   15  C   UNL     1      -7.678   7.276  70.362  1.00  0.00    -0.094 C  
HETATM   16  O   UNL     1      -8.086   6.550  69.199  1.00  0.00    -0.109 OA 
HETATM   17  H   UNL     1      -7.328   6.130  68.807  1.00  0.00     0.000 HD 
BRANCH  15  18
HETATM   18  C   UNL     1      -6.614   8.322  70.007  1.00  0.00    -0.039 C  
BRANCH  18  19
HETATM   19  O   UNL     1      -7.012   9.087  68.874  1.00  0.00    -0.063 OA 
BRANCH  19  20
HETATM   20  C   UNL     1      -6.709  10.427  68.921  1.00  0.00    -0.058 A  
HETATM   21  C   UNL     1      -5.403  10.949  68.951  1.00  0.00    -0.040 A  
HETATM   22  C   UNL     1      -5.169  12.320  68.969  1.00  0.00    -0.055 A  
HETATM   23  C   UNL     1      -6.225  13.230  68.956  1.00  0.00    -0.093 A  
HETATM   24  C   UNL     1      -7.524  12.707  68.935  1.00  0.00     0.018 A  
HETATM   25  C   UNL     1      -7.794  11.338  68.923  1.00  0.00    -0.114 A  
HETATM   26  C   UNL     1      -9.222  11.188  68.924  1.00  0.00    -0.106 A  
HETATM   27  C   UNL     1     -10.093  10.077  68.935  1.00  0.00    -0.200 A  
HETATM   28  C   UNL     1     -11.477  10.281  68.927  1.00  0.00    -0.190 A  
HETATM   29  C   UNL     1     -11.999  11.572  68.907  1.00  0.00    -0.364 A  
HETATM   30  C   UNL     1     -11.160  12.691  68.900  1.00  0.00    -0.307 A  
HETATM   31  C   UNL     1      -9.777  12.464  68.914  1.00  0.00     0.166 A  
HETATM   32  N   UNL     1      -8.737  13.357  68.921  1.00  0.00    -0.363 NA 
HETATM   33  H   UNL     1      -8.847  14.372  68.917  1.00  0.00     0.000 HD 
ENDBRANCH  19  20
ENDBRANCH  18  19
ENDBRANCH  15  18
ENDBRANCH  14  15
ENDBRANCH  12  14
ENDBRANCH  11  12
ENDBRANCH  10  11
ENDBRANCH   9  10
ENDBRANCH   8   9
ENDBRANCH   2   3
TORSDOF 10
ENDMDL
MODEL      443
REMARK 921   NORMALIZED FREE ENERGY PREDICTED BY IDOCK:    7.30 KCAL/MOL
REMARK 922        TOTAL FREE ENERGY PREDICTED BY IDOCK:    9.71 KCAL/MOL
REMARK 923 INTER-LIGAND FREE ENERGY PREDICTED BY IDOCK:    8.70 KCAL/MOL
REMARK 924 INTRA-LIGAND FREE ENERGY PREDICTED BY IDOCK:    1.01 KCAL/MOL
REMARK 927      BINDING AFFINITY PREDICTED BY RF-SCORE:    0.00 PKD
ROOT
HETATM    1  C   UNL     1     -10.436  13.631  69.297  1.00  0.00     0.101 C  
HETATM    2  O   UNL     1      -9.201  13.095  69.765  1.00  0.00     1.642 OA 
ENDROOT
BRANCH   2   3
HETATM    3  C   UNL     1      -8.151  13.975  69.848  1.00  0.00     1.147 A  
HETATM    4  C   UNL     1      -7.223  13.907  70.900  1.00  0.00     1.981 A  
HETATM    5  C   UNL     1      -6.130  14.772  70.950  1.00  0.00    -0.019 A  
HETATM    6  C   UNL     1      -5.964  15.736  69.965  1.00  0.00    -0.157 A  
HETATM    7  C   UNL     1      -6.906  15.847  68.944  1.00  0.00    -0.138 A  
HETATM    8  C   UNL     1      -8.010  14.984  68.875  1.00  0.00    -0.169 A  
BRANCH   8   9
HETATM    9  O   UNL     1      -8.812  15.261  67.794  1.00  0.00    -0.169 OA 
BRANCH   9  10
HETATM   10  C   UNL     1      -8.344  16.234  66.869  1.00  0.00    -0.232 C  
BRANCH  10  11
HETATM   11  C   UNL     1      -8.107  15.589  65.493  1.00  0.00     2.908 C  
BRANCH  11  12
HETATM   12  N   UNL     1      -7.894  14.131  65.548  1.00  0.00     3.606 NA 
HETATM   13  H   UNL     1      -7.298  13.875  66.335  1.00  0.00     0.000 HD 
BRANCH  12  14
HETATM   14  C   UNL     1      -9.167  13.378  65.576  1.00  0.00     0.550 C  
BRANCH  14  15
HETATM   15  C   UNL     1      -8.948  11.859  65.751  1.00  0.00     0.046 C  
HETATM   16  O   UNL     1      -7.568  11.608  66.032  1.00  0.00    -0.358 OA 
HETATM   17  H   UNL     1      -7.434  10.673  66.140  1.00  0.00     0.000 HD 
BRANCH  15  18
HETATM   18  C   UNL     1      -9.841  11.320  66.876  1.00  0.00    -0.193 C  
BRANCH  18  19
HETATM   19  O   UNL     1      -9.662   9.917  67.038  1.00  0.00    -0.168 OA 
BRANCH  19  20
HETATM   20  C   UNL     1      -8.616   9.537  67.844  1.00  0.00    -0.119 A  
HETATM   21  C   UNL     1      -7.764  10.430  68.520  1.00  0.00    -0.101 A  
HETATM   22  C   UNL     1      -6.740   9.973  69.344  1.00  0.00    -0.060 A  
HETATM   23  C   UNL     1      -6.522   8.609  69.532  1.00  0.00    -0.040 A  
HETATM   24  C   UNL     1      -7.366   7.724  68.850  1.00  0.00    -0.086 A  
HETATM   25  C   UNL     1      -8.398   8.147  68.011  1.00  0.00    -0.129 A  
HETATM   26  C   UNL     1      -9.023   6.969  67.481  1.00  0.00    -0.117 A  
HETATM   27  C   UNL     1     -10.086   6.742  66.581  1.00  0.00    -0.205 A  
HETATM   28  C   UNL     1     -10.463   5.431  66.269  1.00  0.00    -0.277 A  
HETATM   29  C   UNL     1      -9.795   4.350  66.842  1.00  0.00    -0.235 A  
HETATM   30  C   UNL     1      -8.735   4.546  67.733  1.00  0.00    -0.112 A  
HETATM   31  C   UNL     1      -8.372   5.867  68.027  1.00  0.00    -0.111 A  
HETATM   32  N   UNL     1      -7.381   6.348  68.845  1.00  0.00    -0.084 NA 
HETATM   33  H   UNL     1      -6.739   5.762  69.379  1.00  0.00     0.000 HD 
ENDBRANCH  19  20
ENDBRANCH  18  19
ENDBRANCH  15  18
ENDBRANCH  14  15
ENDBRANCH  12  14
ENDBRANCH  11  12
ENDBRANCH  10  11
ENDBRANCH   9  10
ENDBRANCH   8   9
ENDBRANCH   2   3
TORSDOF 10
ENDMDL
MODEL      444
REMARK 921   NORMALIZED FREE ENERGY PREDICTED BY IDOCK:    8.53 KCAL/MOL
REMARK 922        TOTAL FREE ENERGY PREDICTED BY IDOCK:   11.67 KCAL/MOL
REMARK 923 INTER-LIGAND FREE ENERGY PREDICTED BY IDOCK:    5.38 KCAL/MOL
REMARK 924 INTRA-LIGAND FREE ENERGY PREDICTED BY IDOCK:    6.29 KCAL/MOL
REMARK 927      BINDING AFFINITY PREDICTED BY RF-SCORE:    0.00 PKD
ROOT
HETATM    1  C   UNL     1      -7.424  14.831  67.851  1.00  0.00    -0.145 C  
HETATM    2  O   UNL     1      -6.978  13.542  67.436  1.00  0.00    -0.166 OA 
ENDROOT
BRANCH   2   3
HETATM    3  C   UNL     1      -7.177  12.516  68.326  1.00  0.00    -0.111 A  
HETATM    4  C   UNL     1      -6.608  12.544  69.610  1.00  0.00     0.002 A  
HETATM    5  C   UNL     1      -6.857  11.523  70.527  1.00  0.00     1.108 A  
HETATM    6  C   UNL     1      -7.655  10.446  70.166  1.00  0.00     0.064 A  
HETATM    7  C   UNL     1      -8.183  10.381  68.878  1.00  0.00    -0.132 A  
HETATM    8  C   UNL     1      -7.946  11.400  67.943  1.00  0.00    -0.120 A  
BRANCH   8   9
HETATM    9  O   UNL     1      -8.558  11.145  66.738  1.00  0.00    -0.146 OA 
BRANCH   9  10
HETATM   10  C   UNL     1      -9.690  11.936  66.403  1.00  0.00    -0.221 C  
BRANCH  10  11
HETATM   11  C   UNL     1      -9.320  13.429  66.422  1.00  0.00    -0.172 C  
BRANCH  11  12
HETATM   12  N   UNL     1     -10.085  14.244  65.461  1.00  0.00    -0.387 NA 
HETATM   13  H   UNL     1     -11.038  13.895  65.357  1.00  0.00     0.000 HD 
BRANCH  12  14
HETATM   14  C   UNL     1     -10.079  15.681  65.814  1.00  0.00    -0.366 C  
BRANCH  14  15
HETATM   15  C   UNL     1     -11.394  16.389  65.420  1.00  0.00     0.241 C  
HETATM   16  O   UNL     1     -12.098  15.587  64.467  1.00  0.00    -0.283 OA 
HETATM   17  H   UNL     1     -12.907  16.022  64.224  1.00  0.00     0.000 HD 
BRANCH  15  18
HETATM   18  C   UNL     1     -12.256  16.639  66.664  1.00  0.00     2.807 C  
BRANCH  18  19
HETATM   19  O   UNL     1     -11.821  17.804  67.358  1.00  0.00     1.260 OA 
BRANCH  19  20
HETATM   20  C   UNL     1     -10.604  18.312  66.969  1.00  0.00    -0.349 A  
HETATM   21  C   UNL     1     -10.420  19.217  65.908  1.00  0.00    -0.534 A  
HETATM   22  C   UNL     1      -9.161  19.715  65.588  1.00  0.00     0.261 A  
HETATM   23  C   UNL     1      -8.032  19.334  66.312  1.00  0.00    -0.319 A  
HETATM   24  C   UNL     1      -8.218  18.426  67.362  1.00  0.00    -0.244 A  
HETATM   25  C   UNL     1      -9.466  17.903  67.706  1.00  0.00    -0.263 A  
HETATM   26  C   UNL     1      -9.259  17.002  68.804  1.00  0.00    -0.252 A  
HETATM   27  C   UNL     1     -10.108  16.170  69.564  1.00  0.00    -0.241 A  
HETATM   28  C   UNL     1      -9.575  15.398  70.602  1.00  0.00     1.005 A  
HETATM   29  C   UNL     1      -8.213  15.447  70.889  1.00  0.00     2.467 A  
HETATM   30  C   UNL     1      -7.348  16.259  70.149  1.00  0.00     0.942 A  
HETATM   31  C   UNL     1      -7.902  17.020  69.111  1.00  0.00    -0.089 A  
HETATM   32  N   UNL     1      -7.300  17.882  68.230  1.00  0.00    -0.240 NA 
HETATM   33  H   UNL     1      -6.301  18.092  68.220  1.00  0.00     0.000 HD 
ENDBRANCH  19  20
ENDBRANCH  18  19
ENDBRANCH  15  18
ENDBRANCH  14  15
ENDBRANCH  12  14
ENDBRANCH  11  12
ENDBRANCH  10  11
ENDBRANCH   9  10
ENDBRANCH   8   9
ENDBRANCH   2   3
TORSDOF 10
ENDMDL
MODEL      445
REMARK 921   NORMALIZED FREE ENERGY PREDICTED BY IDOCK:   10.02 KCAL/MOL
REMARK 922        TOTAL FREE ENERGY PREDICTED BY IDOCK:   14.03 KCAL/MOL
REMARK 923 INTER-LIGAND FREE ENERGY PREDICTED BY IDOCK:   10.12 KCAL/MOL
REMARK 924 INTRA-LIGAND FREE ENERGY PREDICTED BY IDOCK:    3.91 KCAL/MOL
REMARK 927      BINDING AFFINITY PREDICTED BY RF-SCORE:    0.00 PKD
ROOT
HETATM    1  C   UNL     1      -6.566  13.178  62.338  1.00  0.00     8.912 C  
HETATM    2  O   UNL     1      -7.178  12.460  63.407  1.00  0.00     4.231 OA 
ENDROOT
BRANCH   2   3
HETATM    3  C   UNL     1      -7.026  11.097  63.386  1.00  0.00     0.961 A  
HETATM    4  C   UNL     1      -5.752  10.504  63.365  1.00  0.00    -0.128 A  
HETATM    5  C   UNL     1      -5.605   9.118  63.395  1.00  0.00    -0.071 A  
HETATM    6  C   UNL     1      -6.728   8.302  63.418  1.00  0.00    -0.084 A  
HETATM    7  C   UNL     1      -7.997   8.876  63.386  1.00  0.00    -0.157 A  
HETATM    8  C   UNL     1      -8.166  10.269  63.359  1.00  0.00    -0.164 A  
BRANCH   8   9
HETATM    9  O   UNL     1      -9.493  10.626  63.333  1.00  0.00    -0.258 OA 
BRANCH   9  10
HETATM   10  C   UNL     1     -10.376   9.907  64.184  1.00  0.00     1.171 C  
BRANCH  10  11
HETATM   11  C   UNL     1     -10.051  10.201  65.658  1.00  0.00    -0.254 C  
BRANCH  11  12
HETATM   12  N   UNL     1     -11.238  10.252  66.531  1.00  0.00     0.133 NA 
HETATM   13  H   UNL     1     -10.998  10.018  67.495  1.00  0.00     0.000 HD 
BRANCH  12  14
HETATM   14  C   UNL     1     -11.935  11.554  66.457  1.00  0.00     0.633 C  
BRANCH  14  15
HETATM   15  C   UNL     1     -11.997  12.107  65.016  1.00  0.00    -0.281 C  
HETATM   16  O   UNL     1     -13.352  12.085  64.557  1.00  0.00    -0.572 OA 
HETATM   17  H   UNL     1     -13.390  12.425  63.670  1.00  0.00     0.000 HD 
BRANCH  15  18
HETATM   18  C   UNL     1     -11.428  13.530  64.967  1.00  0.00    -0.318 C  
BRANCH  18  19
HETATM   19  O   UNL     1     -10.308  13.660  65.837  1.00  0.00    -0.287 OA 
BRANCH  19  20
HETATM   20  C   UNL     1     -10.599  13.768  67.176  1.00  0.00    -0.277 A  
HETATM   21  C   UNL     1     -10.883  12.680  68.021  1.00  0.00    -0.249 A  
HETATM   22  C   UNL     1     -11.140  12.862  69.376  1.00  0.00    -0.131 A  
HETATM   23  C   UNL     1     -11.125  14.133  69.948  1.00  0.00    -0.083 A  
HETATM   24  C   UNL     1     -10.851  15.214  69.101  1.00  0.00    -0.251 A  
HETATM   25  C   UNL     1     -10.594  15.069  67.737  1.00  0.00    -0.264 A  
HETATM   26  C   UNL     1     -10.381  16.384  67.204  1.00  0.00    -0.290 A  
HETATM   27  C   UNL     1     -10.106  16.888  65.914  1.00  0.00    -0.302 A  
HETATM   28  C   UNL     1      -9.943  18.265  65.728  1.00  0.00     0.063 A  
HETATM   29  C   UNL     1     -10.050  19.140  66.807  1.00  0.00    -0.458 A  
HETATM   30  C   UNL     1     -10.327  18.669  68.094  1.00  0.00    -0.402 A  
HETATM   31  C   UNL     1     -10.491  17.287  68.257  1.00  0.00    -0.385 A  
HETATM   32  N   UNL     1     -10.774  16.559  69.384  1.00  0.00    -0.318 NA 
HETATM   33  H   UNL     1     -10.910  16.961  70.312  1.00  0.00     0.000 HD 
ENDBRANCH  19  20
ENDBRANCH  18  19
ENDBRANCH  15  18
ENDBRANCH  14  15
ENDBRANCH  12  14
ENDBRANCH  11  12
ENDBRANCH  10  11
ENDBRANCH   9  10
ENDBRANCH   8   9
ENDBRANCH   2   3
TORSDOF 10
ENDMDL
MODEL      446
REMARK 921   NORMALIZED FREE ENERGY PREDICTED BY IDOCK:   16.71 KCAL/MOL
REMARK 922        TOTAL FREE ENERGY PREDICTED BY IDOCK:   24.64 KCAL/MOL
REMARK 923 INTER-LIGAND FREE ENERGY PREDICTED BY IDOCK:   23.92 KCAL/MOL
REMARK 924 INTRA-LIGAND FREE ENERGY PREDICTED BY IDOCK:    0.72 KCAL/MOL
REMARK 927      BINDING AFFINITY PREDICTED BY RF-SCORE:    0.00 PKD
ROOT
HETATM    1  C   UNL     1     -10.384  13.633  69.171  1.00  0.00     0.063 C  
HETATM    2  O   UNL     1      -9.176  13.323  69.863  1.00  0.00     1.935 OA 
ENDROOT
BRANCH   2   3
HETATM    3  C   UNL     1      -8.339  14.379  70.123  1.00  0.00     1.277 A  
HETATM    4  C   UNL     1      -7.869  14.633  71.422  1.00  0.00     3.402 A  
HETATM    5  C   UNL     1      -6.978  15.677  71.671  1.00  0.00     3.097 A  
HETATM    6  C   UNL     1      -6.566  16.499  70.631  1.00  0.00     1.264 A  
HETATM    7  C   UNL     1      -7.065  16.288  69.347  1.00  0.00    -0.204 A  
HETATM    8  C   UNL     1      -7.959  15.242  69.077  1.00  0.00    -0.195 A  
BRANCH   8   9
HETATM    9  O   UNL     1      -8.326  15.208  67.752  1.00  0.00    -0.140 OA 
BRANCH   9  10
HETATM   10  C   UNL     1      -7.845  16.254  66.917  1.00  0.00    -0.243 C  
BRANCH  10  11
HETATM   11  C   UNL     1      -6.905  15.684  65.841  1.00  0.00     3.922 C  
BRANCH  11  12
HETATM   12  N   UNL     1      -6.388  14.339  66.154  1.00  0.00     3.666 NA 
HETATM   13  H   UNL     1      -6.314  14.197  67.161  1.00  0.00     0.000 HD 
BRANCH  12  14
HETATM   14  C   UNL     1      -7.190  13.269  65.522  1.00  0.00     6.675 C  
BRANCH  14  15
HETATM   15  C   UNL     1      -6.937  11.887  66.164  1.00  0.00     0.730 C  
HETATM   16  O   UNL     1      -5.624  11.860  66.732  1.00  0.00    -0.205 OA 
HETATM   17  H   UNL     1      -5.469  11.010  67.128  1.00  0.00     0.000 HD 
BRANCH  15  18
HETATM   18  C   UNL     1      -7.998  11.596  67.233  1.00  0.00    -0.157 C  
BRANCH  18  19
HETATM   19  O   UNL     1      -7.621  10.481  68.034  1.00  0.00    -0.089 OA 
BRANCH  19  20
HETATM   20  C   UNL     1      -6.805  10.762  69.104  1.00  0.00    -0.084 A  
HETATM   21  C   UNL     1      -6.385  12.054  69.469  1.00  0.00    -0.123 A  
HETATM   22  C   UNL     1      -5.581  12.268  70.584  1.00  0.00    -0.161 A  
HETATM   23  C   UNL     1      -5.162  11.205  71.384  1.00  0.00    -0.027 A  
HETATM   24  C   UNL     1      -5.576   9.920  71.012  1.00  0.00    -0.081 A  
HETATM   25  C   UNL     1      -6.377   9.669  69.896  1.00  0.00    -0.054 A  
HETATM   26  C   UNL     1      -6.572   8.249  69.827  1.00  0.00    -0.039 A  
HETATM   27  C   UNL     1      -7.257   7.395  68.935  1.00  0.00    -0.089 A  
HETATM   28  C   UNL     1      -7.258   6.014  69.161  1.00  0.00    -0.082 A  
HETATM   29  C   UNL     1      -6.590   5.479  70.260  1.00  0.00    -0.042 A  
HETATM   30  C   UNL     1      -5.900   6.301  71.157  1.00  0.00    -0.027 A  
HETATM   31  C   UNL     1      -5.907   7.680  70.909  1.00  0.00    -0.034 A  
HETATM   32  N   UNL     1      -5.317   8.705  71.604  1.00  0.00    -0.035 NA 
HETATM   33  H   UNL     1      -4.759   8.582  72.449  1.00  0.00     0.000 HD 
ENDBRANCH  19  20
ENDBRANCH  18  19
ENDBRANCH  15  18
ENDBRANCH  14  15
ENDBRANCH  12  14
ENDBRANCH  11  12
ENDBRANCH  10  11
ENDBRANCH   9  10
ENDBRANCH   8   9
ENDBRANCH   2   3
TORSDOF 10
ENDMDL
MODEL      447
REMARK 921   NORMALIZED FREE ENERGY PREDICTED BY IDOCK:   24.59 KCAL/MOL
REMARK 922        TOTAL FREE ENERGY PREDICTED BY IDOCK:   37.11 KCAL/MOL
REMARK 923 INTER-LIGAND FREE ENERGY PREDICTED BY IDOCK:   -3.87 KCAL/MOL
REMARK 924 INTRA-LIGAND FREE ENERGY PREDICTED BY IDOCK:   40.99 KCAL/MOL
REMARK 927      BINDING AFFINITY PREDICTED BY RF-SCORE:    0.00 PKD
ROOT
HETATM    1  C   UNL     1     -13.073  10.499  72.442  1.00  0.00     0.090 C  
HETATM    2  O   UNL     1     -13.371   9.457  71.515  1.00  0.00    -0.364 OA 
ENDROOT
BRANCH   2   3
HETATM    3  C   UNL     1     -12.722   8.265  71.714  1.00  0.00    -0.336 A  
HETATM    4  C   UNL     1     -13.427   7.051  71.770  1.00  0.00    -0.307 A  
HETATM    5  C   UNL     1     -12.756   5.838  71.922  1.00  0.00     0.826 A  
HETATM    6  C   UNL     1     -11.373   5.822  72.048  1.00  0.00    -0.289 A  
HETATM    7  C   UNL     1     -10.667   7.023  72.045  1.00  0.00    -0.243 A  
HETATM    8  C   UNL     1     -11.324   8.253  71.890  1.00  0.00    -0.308 A  
BRANCH   8   9
HETATM    9  O   UNL     1     -10.447   9.311  71.913  1.00  0.00    -0.305 OA 
BRANCH   9  10
HETATM   10  C   UNL     1      -9.060   9.007  71.859  1.00  0.00     0.009 C  
BRANCH  10  11
HETATM   11  C   UNL     1      -8.541   9.144  70.417  1.00  0.00    -0.209 C  
BRANCH  11  12
HETATM   12  N   UNL     1      -7.560   8.112  70.036  1.00  0.00    -0.076 NA 
HETATM   13  H   UNL     1      -7.071   7.748  70.854  1.00  0.00     0.000 HD 
BRANCH  12  14
HETATM   14  C   UNL     1      -8.172   7.018  69.250  1.00  0.00    -0.125 C  
BRANCH  14  15
HETATM   15  C   UNL     1      -9.712   6.997  69.372  1.00  0.00    -0.159 C  
HETATM   16  O   UNL     1     -10.078   6.632  70.706  1.00  0.00    -0.184 OA 
HETATM   17  H   UNL     1     -11.026   6.620  70.780  1.00  0.00     0.000 HD 
BRANCH  15  18
HETATM   18  C   UNL     1     -10.292   8.369  69.003  1.00  0.00    -0.218 C  
BRANCH  18  19
HETATM   19  O   UNL     1      -9.254   9.302  68.726  1.00  0.00    -0.135 OA 
BRANCH  19  20
HETATM   20  C   UNL     1      -8.688   9.215  67.476  1.00  0.00    -0.119 A  
HETATM   21  C   UNL     1      -8.351  10.321  66.674  1.00  0.00    -0.125 A  
HETATM   22  C   UNL     1      -7.753  10.159  65.429  1.00  0.00    -0.143 A  
HETATM   23  C   UNL     1      -7.464   8.891  64.929  1.00  0.00    -0.098 A  
HETATM   24  C   UNL     1      -7.809   7.792  65.726  1.00  0.00    -0.104 A  
HETATM   25  C   UNL     1      -8.416   7.918  66.977  1.00  0.00    -0.124 A  
HETATM   26  C   UNL     1      -8.634   6.591  67.477  1.00  0.00    -0.119 A  
HETATM   27  C   UNL     1      -9.214   6.067  68.653  1.00  0.00    -0.115 A  
HETATM   28  C   UNL     1      -9.267   4.682  68.843  1.00  0.00    -0.181 A  
HETATM   29  C   UNL     1      -8.751   3.818  67.880  1.00  0.00    -0.124 A  
HETATM   30  C   UNL     1      -8.175   4.309  66.704  1.00  0.00    -0.102 A  
HETATM   31  C   UNL     1      -8.136   5.699  66.532  1.00  0.00    -0.105 A  
HETATM   32  N   UNL     1      -7.648   6.446  65.490  1.00  0.00    -0.083 NA 
HETATM   33  H   UNL     1      -7.220   6.055  64.650  1.00  0.00     0.000 HD 
ENDBRANCH  19  20
ENDBRANCH  18  19
ENDBRANCH  15  18
ENDBRANCH  14  15
ENDBRANCH  12  14
ENDBRANCH  11  12
ENDBRANCH  10  11
ENDBRANCH   9  10
ENDBRANCH   8   9
ENDBRANCH   2   3
TORSDOF 10
ENDMDL
MODEL      448
REMARK 921   NORMALIZED FREE ENERGY PREDICTED BY IDOCK:   28.58 KCAL/MOL
REMARK 922        TOTAL FREE ENERGY PREDICTED BY IDOCK:   43.44 KCAL/MOL
REMARK 923 INTER-LIGAND FREE ENERGY PREDICTED BY IDOCK:   21.45 KCAL/MOL
REMARK 924 INTRA-LIGAND FREE ENERGY PREDICTED BY IDOCK:   22.00 KCAL/MOL
REMARK 927      BINDING AFFINITY PREDICTED BY RF-SCORE:    0.00 PKD
ROOT
HETATM    1  C   UNL     1      -8.410  13.109  71.754  1.00  0.00    13.831 C  
HETATM    2  O   UNL     1      -9.132  12.963  70.533  1.00  0.00     4.998 OA 
ENDROOT
BRANCH   2   3
HETATM    3  C   UNL     1      -9.780  11.767  70.352  1.00  0.00     3.930 A  
HETATM    4  C   UNL     1     -11.038  11.524  70.928  1.00  0.00     1.670 A  
HETATM    5  C   UNL     1     -11.713  10.326  70.698  1.00  0.00    -0.438 A  
HETATM    6  C   UNL     1     -11.129   9.341  69.912  1.00  0.00    -0.200 A  
HETATM    7  C   UNL     1      -9.859   9.550  69.377  1.00  0.00    -0.194 A  
HETATM    8  C   UNL     1      -9.166  10.750  69.595  1.00  0.00     0.273 A  
BRANCH   8   9
HETATM    9  O   UNL     1      -7.937  10.752  68.980  1.00  0.00    -0.126 OA 
BRANCH   9  10
HETATM   10  C   UNL     1      -7.068   9.661  69.259  1.00  0.00    -0.063 C  
BRANCH  10  11
HETATM   11  C   UNL     1      -7.457   8.999  70.591  1.00  0.00    -0.110 C  
BRANCH  11  12
HETATM   12  N   UNL     1      -8.843   9.276  71.011  1.00  0.00    -0.267 NA 
HETATM   13  H   UNL     1      -9.351   9.789  70.291  1.00  0.00     0.000 HD 
BRANCH  12  14
HETATM   14  C   UNL     1      -9.567   8.047  71.402  1.00  0.00    -0.154 C  
BRANCH  14  15
HETATM   15  C   UNL     1      -9.814   7.104  70.205  1.00  0.00    -0.179 C  
HETATM   16  O   UNL     1     -10.999   7.513  69.515  1.00  0.00    -0.360 OA 
HETATM   17  H   UNL     1     -11.151   6.933  68.777  1.00  0.00     0.000 HD 
BRANCH  15  18
HETATM   18  C   UNL     1      -8.604   7.113  69.263  1.00  0.00    -0.137 C  
BRANCH  18  19
HETATM   19  O   UNL     1      -9.012   7.306  67.912  1.00  0.00    -0.131 OA 
BRANCH  19  20
HETATM   20  C   UNL     1      -9.295   6.162  67.204  1.00  0.00    -0.118 A  
HETATM   21  C   UNL     1     -10.333   6.044  66.261  1.00  0.00    -0.037 A  
HETATM   22  C   UNL     1     -10.543   4.862  65.558  1.00  0.00    -0.091 A  
HETATM   23  C   UNL     1      -9.731   3.748  65.762  1.00  0.00    -0.140 A  
HETATM   24  C   UNL     1      -8.705   3.867  66.708  1.00  0.00    -0.115 A  
HETATM   25  C   UNL     1      -8.469   5.035  67.436  1.00  0.00    -0.105 A  
HETATM   26  C   UNL     1      -7.362   4.772  68.311  1.00  0.00    -0.066 A  
HETATM   27  C   UNL     1      -6.680   5.532  69.286  1.00  0.00    -0.056 A  
HETATM   28  C   UNL     1      -5.605   4.965  69.979  1.00  0.00    -0.015 A  
HETATM   29  C   UNL     1      -5.206   3.657  69.714  1.00  0.00    -0.008 A  
HETATM   30  C   UNL     1      -5.867   2.880  68.757  1.00  0.00    -0.023 A  
HETATM   31  C   UNL     1      -6.943   3.466  68.077  1.00  0.00    -0.050 A  
HETATM   32  N   UNL     1      -7.766   2.945  67.112  1.00  0.00    -0.073 NA 
HETATM   33  H   UNL     1      -7.692   1.997  66.741  1.00  0.00     0.000 HD 
ENDBRANCH  19  20
ENDBRANCH  18  19
ENDBRANCH  15  18
ENDBRANCH  14  15
ENDBRANCH  12  14
ENDBRANCH  11  12
ENDBRANCH  10  11
ENDBRANCH   9  10
ENDBRANCH   8   9
ENDBRANCH   2   3
TORSDOF 10
ENDMDL
MODEL      449
REMARK 921   NORMALIZED FREE ENERGY PREDICTED BY IDOCK:   29.30 KCAL/MOL
REMARK 922        TOTAL FREE ENERGY PREDICTED BY IDOCK:   44.58 KCAL/MOL
REMARK 923 INTER-LIGAND FREE ENERGY PREDICTED BY IDOCK:   36.15 KCAL/MOL
REMARK 924 INTRA-LIGAND FREE ENERGY PREDICTED BY IDOCK:    8.43 KCAL/MOL
REMARK 927      BINDING AFFINITY PREDICTED BY RF-SCORE:    0.00 PKD
ROOT
HETATM    1  C   UNL     1     -10.384  13.633  69.171  1.00  0.00     0.063 C  
HETATM    2  O   UNL     1      -9.176  13.323  69.863  1.00  0.00     1.935 OA 
ENDROOT
BRANCH   2   3
HETATM    3  C   UNL     1      -8.339  14.379  70.123  1.00  0.00     1.277 A  
HETATM    4  C   UNL     1      -7.146  14.559  69.403  1.00  0.00    -0.140 A  
HETATM    5  C   UNL     1      -6.326  15.662  69.639  1.00  0.00    -0.174 A  
HETATM    6  C   UNL     1      -6.671  16.586  70.616  1.00  0.00     1.490 A  
HETATM    7  C   UNL     1      -7.825  16.391  71.372  1.00  0.00     6.526 A  
HETATM    8  C   UNL     1      -8.664  15.290  71.148  1.00  0.00     3.210 A  
BRANCH   8   9
HETATM    9  O   UNL     1      -9.746  15.286  71.996  1.00  0.00     2.448 OA 
BRANCH   9  10
HETATM   10  C   UNL     1      -9.793  16.298  72.994  1.00  0.00     9.109 C  
BRANCH  10  11
HETATM   11  C   UNL     1     -10.998  17.223  72.756  1.00  0.00     2.567 C  
BRANCH  11  12
HETATM   12  N   UNL     1     -11.552  17.141  71.393  1.00  0.00     0.283 NA 
HETATM   13  H   UNL     1     -10.829  16.901  70.715  1.00  0.00     0.000 HD 
BRANCH  12  14
HETATM   14  C   UNL     1     -12.696  16.207  71.306  1.00  0.00     0.198 C  
BRANCH  14  15
HETATM   15  C   UNL     1     -13.006  15.790  69.852  1.00  0.00     0.500 C  
HETATM   16  O   UNL     1     -12.570  16.820  68.959  1.00  0.00     0.415 OA 
HETATM   17  H   UNL     1     -12.761  16.563  68.064  1.00  0.00     0.000 HD 
BRANCH  15  18
HETATM   18  C   UNL     1     -12.320  14.458  69.524  1.00  0.00    -0.222 C  
BRANCH  18  19
HETATM   19  O   UNL     1     -12.344  14.205  68.123  1.00  0.00    -0.227 OA 
BRANCH  19  20
HETATM   20  C   UNL     1     -11.321  14.765  67.396  1.00  0.00    -0.351 A  
HETATM   21  C   UNL     1     -10.258  15.500  67.952  1.00  0.00    -0.238 A  
HETATM   22  C   UNL     1      -9.237  16.014  67.157  1.00  0.00    -0.221 A  
HETATM   23  C   UNL     1      -9.231  15.817  65.777  1.00  0.00    -0.255 A  
HETATM   24  C   UNL     1     -10.296  15.092  65.228  1.00  0.00    -0.395 A  
HETATM   25  C   UNL     1     -11.338  14.568  65.994  1.00  0.00    -0.341 A  
HETATM   26  C   UNL     1     -12.241  13.915  65.089  1.00  0.00    -0.443 A  
HETATM   27  C   UNL     1     -13.465  13.229  65.248  1.00  0.00     0.945 A  
HETATM   28  C   UNL     1     -14.108  12.689  64.129  1.00  0.00     3.439 A  
HETATM   29  C   UNL     1     -13.548  12.825  62.861  1.00  0.00     2.801 A  
HETATM   30  C   UNL     1     -12.340  13.503  62.674  1.00  0.00     1.499 A  
HETATM   31  C   UNL     1     -11.715  14.040  63.807  1.00  0.00    -0.027 A  
HETATM   32  N   UNL     1     -10.547  14.751  63.918  1.00  0.00     0.477 NA 
HETATM   33  H   UNL     1      -9.944  14.995  63.132  1.00  0.00     0.000 HD 
ENDBRANCH  19  20
ENDBRANCH  18  19
ENDBRANCH  15  18
ENDBRANCH  14  15
ENDBRANCH  12  14
ENDBRANCH  11  12
ENDBRANCH  10  11
ENDBRANCH   9  10
ENDBRANCH   8   9
ENDBRANCH   2   3
TORSDOF 10
ENDMDL
MODEL      450
REMARK 921   NORMALIZED FREE ENERGY PREDICTED BY IDOCK:   34.70 KCAL/MOL
REMARK 922        TOTAL FREE ENERGY PREDICTED BY IDOCK:   53.14 KCAL/MOL
REMARK 923 INTER-LIGAND FREE ENERGY PREDICTED BY IDOCK:   -3.50 KCAL/MOL
REMARK 924 INTRA-LIGAND FREE ENERGY PREDICTED BY IDOCK:   56.64 KCAL/MOL
REMARK 927      BINDING AFFINITY PREDICTED BY RF-SCORE:    0.00 PKD
ROOT
HETATM    1  C   UNL     1      -9.435  10.719  66.889  1.00  0.00    -0.168 C  
HETATM    2  O   UNL     1      -9.270   9.377  66.434  1.00  0.00    -0.151 OA 
ENDROOT
BRANCH   2   3
HETATM    3  C   UNL     1      -8.504   8.559  67.226  1.00  0.00    -0.123 A  
HETATM    4  C   UNL     1      -7.201   8.921  67.604  1.00  0.00    -0.080 A  
HETATM    5  C   UNL     1      -6.447   8.108  68.450  1.00  0.00    -0.058 A  
HETATM    6  C   UNL     1      -6.974   6.908  68.909  1.00  0.00    -0.082 A  
HETATM    7  C   UNL     1      -8.247   6.514  68.500  1.00  0.00    -0.121 A  
HETATM    8  C   UNL     1      -9.021   7.319  67.652  1.00  0.00    -0.126 A  
BRANCH   8   9
HETATM    9  O   UNL     1     -10.241   6.750  67.373  1.00  0.00    -0.158 OA 
BRANCH   9  10
HETATM   10  C   UNL     1     -10.237   5.425  66.856  1.00  0.00    -0.240 C  
BRANCH  10  11
HETATM   11  C   UNL     1      -8.918   4.719  67.214  1.00  0.00    -0.112 C  
BRANCH  11  12
HETATM   12  N   UNL     1      -8.910   4.116  68.559  1.00  0.00    -0.099 NA 
HETATM   13  H   UNL     1      -8.978   3.099  68.508  1.00  0.00     0.000 HD 
BRANCH  12  14
HETATM   14  C   UNL     1      -7.736   4.534  69.355  1.00  0.00    -0.055 C  
BRANCH  14  15
HETATM   15  C   UNL     1      -6.937   5.667  68.675  1.00  0.00    -0.064 C  
HETATM   16  O   UNL     1      -7.820   6.452  67.868  1.00  0.00    -0.102 OA 
HETATM   17  H   UNL     1      -7.328   7.149  67.449  1.00  0.00     0.000 HD 
BRANCH  15  18
HETATM   18  C   UNL     1      -6.245   6.538  69.731  1.00  0.00    -0.037 C  
BRANCH  18  19
HETATM   19  O   UNL     1      -7.175   7.420  70.351  1.00  0.00    -0.066 OA 
BRANCH  19  20
HETATM   20  C   UNL     1      -7.224   7.370  71.724  1.00  0.00    -0.071 A  
HETATM   21  C   UNL     1      -6.119   7.581  72.569  1.00  0.00    -0.040 A  
HETATM   22  C   UNL     1      -6.247   7.545  73.954  1.00  0.00    -0.076 A  
HETATM   23  C   UNL     1      -7.479   7.298  74.556  1.00  0.00    -0.143 A  
HETATM   24  C   UNL     1      -8.575   7.080  73.711  1.00  0.00    -0.145 A  
HETATM   25  C   UNL     1      -8.481   7.103  72.319  1.00  0.00    -0.126 A  
HETATM   26  C   UNL     1      -9.789   6.820  71.802  1.00  0.00    -0.170 A  
HETATM   27  C   UNL     1     -10.323   6.686  70.502  1.00  0.00    -0.231 A  
HETATM   28  C   UNL     1     -11.683   6.404  70.337  1.00  0.00    -0.389 A  
HETATM   29  C   UNL     1     -12.512   6.254  71.446  1.00  0.00     0.127 A  
HETATM   30  C   UNL     1     -12.009   6.376  72.745  1.00  0.00     0.125 A  
HETATM   31  C   UNL     1     -10.643   6.655  72.888  1.00  0.00    -0.245 A  
HETATM   32  N   UNL     1      -9.889   6.816  74.022  1.00  0.00    -0.272 NA 
HETATM   33  H   UNL     1     -10.255   6.747  74.972  1.00  0.00     0.000 HD 
ENDBRANCH  19  20
ENDBRANCH  18  19
ENDBRANCH  15  18
ENDBRANCH  14  15
ENDBRANCH  12  14
ENDBRANCH  11  12
ENDBRANCH  10  11
ENDBRANCH   9  10
ENDBRANCH   8   9
ENDBRANCH   2   3
TORSDOF 10
ENDMDL
