MODEL        1
REMARK 921   NORMALIZED FREE ENERGY PREDICTED BY IDOCK:   -7.10 KCAL/MOL
REMARK 922        TOTAL FREE ENERGY PREDICTED BY IDOCK:  -10.63 KCAL/MOL
REMARK 923 INTER-LIGAND FREE ENERGY PREDICTED BY IDOCK:   -9.59 KCAL/MOL
REMARK 924 INTRA-LIGAND FREE ENERGY PREDICTED BY IDOCK:   -1.04 KCAL/MOL
REMARK 927      BINDING AFFINITY PREDICTED BY RF-SCORE:    0.00 PKD
ROOT
HETATM    1  C   UNL     1     -11.554  12.173  66.812  1.00  0.00    -0.345 C  
HETATM    2  S   UNL     1      -9.902  11.813  66.160  1.00  0.00    -0.235 SA 
HETATM    3  C   UNL     1      -9.952  10.089  66.692  1.00  0.00    -0.216 C  
HETATM    4  C   UNL     1     -10.381   9.882  68.140  1.00  0.00    -0.232 C  
HETATM    5  O   UNL     1     -12.291  11.314  70.921  1.00  0.00    -0.367 OA 
HETATM    6  CA  UNL     1     -11.093  10.801  68.860  1.00  0.00    -0.253 C  
HETATM    7  N   UNL     1     -11.550  11.934  68.244  1.00  0.00    -0.307 N  
HETATM    8  O   UNL     1     -12.381  13.546  69.688  1.00  0.00    -0.270 OA 
HETATM    9  C   UNL     1     -11.302  10.607  70.350  1.00  0.00    -0.304 C  
HETATM   10  CA  UNL     1     -11.834  13.680  67.132  1.00  0.00    -0.396 C  
HETATM   11  C   UNL     1     -12.035  13.149  68.597  1.00  0.00    -0.284 C  
HETATM   12  OXT UNL     1     -10.670   9.810  71.028  1.00  0.00    -0.324 OA 
ENDROOT
BRANCH   4  13
HETATM   13  C   UNL     1      -9.784   8.586  68.685  1.00  0.00    -0.164 C  
BRANCH  13  14
HETATM   14  S   UNL     1     -10.771   7.091  68.425  1.00  0.00    -0.146 SA 
BRANCH  14  15
HETATM   15  C   UNL     1     -11.210   6.584  70.004  1.00  0.00    -0.393 A  
HETATM   16  N   UNL     1     -12.297   6.878  70.676  1.00  0.00    -0.289 NA 
HETATM   17  C   UNL     1      -9.142   5.205  70.490  1.00  0.00    -0.139 C  
HETATM   18  N   UNL     1     -12.154   6.272  71.904  1.00  0.00    -0.314 NA 
HETATM   19  N   UNL     1     -11.005   5.614  71.974  1.00  0.00    -0.251 NA 
HETATM   20  N   UNL     1     -10.415   5.801  70.784  1.00  0.00    -0.242 NA 
ENDBRANCH  14  15
ENDBRANCH  13  14
ENDBRANCH   4  13
BRANCH  10  21
HETATM   21  N   UNL     1     -10.682  14.590  66.939  1.00  0.00    -0.284 N  
HETATM   22  C   UNL     1     -10.496  15.401  65.841  1.00  0.00    -0.340 C  
HETATM   23  O   UNL     1     -11.253  15.412  64.875  1.00  0.00    -0.401 OA 
HETATM   24  H   UNL     1      -9.974  14.619  67.673  1.00  0.00     0.000 HD 
BRANCH  22  25
HETATM   25  C   UNL     1      -9.250  16.304  65.976  1.00  0.00    -0.316 C  
HETATM   26  H   UNL     1      -7.425  16.134  66.700  1.00  0.00     0.000 HD 
HETATM   27  O   UNL     1      -8.191  15.578  66.617  1.00  0.00    -0.253 OA 
BRANCH  25  28
HETATM   28  C   UNL     1      -9.545  17.561  66.764  1.00  0.00    -0.286 A  
HETATM   29  C   UNL     1      -8.968  17.742  68.030  1.00  0.00    -0.263 A  
HETATM   30  C   UNL     1      -9.231  18.894  68.773  1.00  0.00    -0.359 A  
HETATM   31  C   UNL     1     -10.066  19.884  68.259  1.00  0.00    -0.571 A  
HETATM   32  C   UNL     1     -10.631  19.729  66.996  1.00  0.00    -0.586 A  
HETATM   33  C   UNL     1     -10.370  18.577  66.251  1.00  0.00    -0.459 A  
ENDBRANCH  25  28
ENDBRANCH  22  25
ENDBRANCH  10  21
TORSDOF 6
ENDMDL
MODEL        2
REMARK 921   NORMALIZED FREE ENERGY PREDICTED BY IDOCK:   -6.99 KCAL/MOL
REMARK 922        TOTAL FREE ENERGY PREDICTED BY IDOCK:  -10.48 KCAL/MOL
REMARK 923 INTER-LIGAND FREE ENERGY PREDICTED BY IDOCK:   -9.14 KCAL/MOL
REMARK 924 INTRA-LIGAND FREE ENERGY PREDICTED BY IDOCK:   -1.34 KCAL/MOL
REMARK 927      BINDING AFFINITY PREDICTED BY RF-SCORE:    0.00 PKD
ROOT
HETATM    1  C   UNL     1      -7.909  14.980  69.608  1.00  0.00    -0.090 C  
HETATM    2  S   UNL     1      -9.434  15.900  69.271  1.00  0.00    -0.251 SA 
HETATM    3  C   UNL     1     -10.438  14.403  69.166  1.00  0.00    -0.189 C  
HETATM    4  C   UNL     1      -9.863  13.313  68.270  1.00  0.00    -0.231 C  
HETATM    5  O   UNL     1      -6.779  11.941  66.843  1.00  0.00    -0.138 OA 
HETATM    6  CA  UNL     1      -8.541  13.229  67.928  1.00  0.00    -0.188 C  
HETATM    7  N   UNL     1      -7.643  14.096  68.487  1.00  0.00    -0.123 N  
HETATM    8  O   UNL     1      -5.543  14.072  67.506  1.00  0.00    -0.342 OA 
HETATM    9  C   UNL     1      -8.088  12.238  66.872  1.00  0.00    -0.090 C  
HETATM   10  CA  UNL     1      -6.582  15.729  69.245  1.00  0.00    -0.160 C  
HETATM   11  C   UNL     1      -6.375  14.519  68.263  1.00  0.00    -0.121 C  
HETATM   12  OXT UNL     1      -8.848  11.663  66.107  1.00  0.00    -0.196 OA 
ENDROOT
BRANCH   4  13
HETATM   13  C   UNL     1     -10.988  12.439  67.718  1.00  0.00    -0.228 C  
BRANCH  13  14
HETATM   14  S   UNL     1     -12.406  13.322  67.022  1.00  0.00     0.033 SA 
BRANCH  14  15
HETATM   15  C   UNL     1     -12.377  12.936  65.351  1.00  0.00    -0.485 A  
HETATM   16  N   UNL     1     -13.153  12.106  64.697  1.00  0.00    -0.579 NA 
HETATM   17  C   UNL     1     -10.435  14.430  64.707  1.00  0.00    -0.367 C  
HETATM   18  N   UNL     1     -12.698  12.112  63.397  1.00  0.00    -0.761 NA 
HETATM   19  N   UNL     1     -11.669  12.938  63.261  1.00  0.00    -0.469 NA 
HETATM   20  N   UNL     1     -11.470  13.462  64.480  1.00  0.00    -0.356 NA 
ENDBRANCH  14  15
ENDBRANCH  13  14
ENDBRANCH   4  13
BRANCH  10  21
HETATM   21  N   UNL     1      -6.759  17.048  68.598  1.00  0.00    -0.172 N  
HETATM   22  C   UNL     1      -6.295  18.242  69.106  1.00  0.00    -0.248 C  
HETATM   23  O   UNL     1      -5.725  18.337  70.188  1.00  0.00    -0.239 OA 
HETATM   24  H   UNL     1      -7.261  17.076  67.710  1.00  0.00     0.000 HD 
BRANCH  22  25
HETATM   25  C   UNL     1      -6.552  19.431  68.154  1.00  0.00    -0.246 C  
HETATM   26  H   UNL     1      -6.261  21.380  68.180  1.00  0.00     0.000 HD 
HETATM   27  O   UNL     1      -6.103  20.649  68.765  1.00  0.00    -0.329 OA 
BRANCH  25  28
HETATM   28  C   UNL     1      -8.014  19.561  67.792  1.00  0.00    -0.329 A  
HETATM   29  C   UNL     1      -8.398  19.601  66.443  1.00  0.00    -0.376 A  
HETATM   30  C   UNL     1      -9.743  19.724  66.090  1.00  0.00    -0.510 A  
HETATM   31  C   UNL     1     -10.723  19.801  67.078  1.00  0.00    -0.542 A  
HETATM   32  C   UNL     1     -10.360  19.744  68.421  1.00  0.00    -0.513 A  
HETATM   33  C   UNL     1      -9.016  19.621  68.777  1.00  0.00    -0.307 A  
ENDBRANCH  25  28
ENDBRANCH  22  25
ENDBRANCH  10  21
TORSDOF 6
ENDMDL
MODEL        3
REMARK 921   NORMALIZED FREE ENERGY PREDICTED BY IDOCK:   -6.97 KCAL/MOL
REMARK 922        TOTAL FREE ENERGY PREDICTED BY IDOCK:  -10.45 KCAL/MOL
REMARK 923 INTER-LIGAND FREE ENERGY PREDICTED BY IDOCK:   -9.77 KCAL/MOL
REMARK 924 INTRA-LIGAND FREE ENERGY PREDICTED BY IDOCK:   -0.68 KCAL/MOL
REMARK 927      BINDING AFFINITY PREDICTED BY RF-SCORE:    0.00 PKD
ROOT
HETATM    1  C   UNL     1     -11.604  13.400  67.585  1.00  0.00    -0.340 C  
HETATM    2  S   UNL     1      -9.898  13.660  68.139  1.00  0.00    -0.239 SA 
HETATM    3  C   UNL     1     -10.031  15.458  68.048  1.00  0.00    -0.221 C  
HETATM    4  C   UNL     1     -10.613  15.988  66.743  1.00  0.00    -0.297 C  
HETATM    5  O   UNL     1     -12.783  15.187  63.900  1.00  0.00    -0.759 OA 
HETATM    6  CA  UNL     1     -11.383  15.240  65.895  1.00  0.00    -0.172 C  
HETATM    7  N   UNL     1     -11.755  13.975  66.260  1.00  0.00    -0.370 N  
HETATM    8  O   UNL     1     -12.708  12.723  64.558  1.00  0.00    -0.655 OA 
HETATM    9  C   UNL     1     -11.751  15.777  64.525  1.00  0.00    -0.191 C  
HETATM   10  CA  UNL     1     -11.892  12.003  66.938  1.00  0.00    -0.173 C  
HETATM   11  C   UNL     1     -12.255  12.861  65.673  1.00  0.00    -0.463 C  
HETATM   12  OXT UNL     1     -11.207  16.738  64.002  1.00  0.00    -1.089 OA 
ENDROOT
BRANCH   4  13
HETATM   13  C   UNL     1     -10.098  17.400  66.473  1.00  0.00    -0.320 C  
BRANCH  13  14
HETATM   14  S   UNL     1     -10.309  18.590  67.820  1.00  0.00    -0.405 SA 
BRANCH  14  15
HETATM   15  C   UNL     1      -8.922  19.595  67.729  1.00  0.00    -0.322 A  
HETATM   16  N   UNL     1      -8.822  20.792  67.204  1.00  0.00    -0.218 NA 
HETATM   17  C   UNL     1      -7.302  18.018  68.872  1.00  0.00    -0.243 C  
HETATM   18  N   UNL     1      -7.499  21.152  67.338  1.00  0.00    -0.398 NA 
HETATM   19  N   UNL     1      -6.809  20.193  67.941  1.00  0.00    -0.268 NA 
HETATM   20  N   UNL     1      -7.698  19.221  68.195  1.00  0.00    -0.286 NA 
ENDBRANCH  14  15
ENDBRANCH  13  14
ENDBRANCH   4  13
BRANCH  10  21
HETATM   21  N   UNL     1     -10.712  11.121  66.790  1.00  0.00    -0.267 N  
HETATM   22  C   UNL     1     -10.297  10.200  67.727  1.00  0.00    -0.210 C  
HETATM   23  O   UNL     1     -10.843  10.053  68.815  1.00  0.00    -0.214 OA 
HETATM   24  H   UNL     1     -10.167  11.201  65.932  1.00  0.00     0.000 HD 
BRANCH  22  25
HETATM   25  C   UNL     1      -9.092   9.365  67.241  1.00  0.00    -0.133 C  
HETATM   26  H   UNL     1      -8.008   9.227  65.601  1.00  0.00     0.000 HD 
HETATM   27  O   UNL     1      -8.749   9.740  65.899  1.00  0.00    -0.133 OA 
BRANCH  25  28
HETATM   28  C   UNL     1      -9.375   7.880  67.290  1.00  0.00    -0.180 A  
HETATM   29  C   UNL     1      -8.384   6.996  67.741  1.00  0.00    -0.117 A  
HETATM   30  C   UNL     1      -8.626   5.621  67.790  1.00  0.00    -0.101 A  
HETATM   31  C   UNL     1      -9.863   5.114  67.396  1.00  0.00    -0.193 A  
HETATM   32  C   UNL     1     -10.864   5.980  66.963  1.00  0.00    -0.413 A  
HETATM   33  C   UNL     1     -10.624   7.355  66.914  1.00  0.00    -0.375 A  
ENDBRANCH  25  28
ENDBRANCH  22  25
ENDBRANCH  10  21
TORSDOF 6
ENDMDL
MODEL        4
REMARK 921   NORMALIZED FREE ENERGY PREDICTED BY IDOCK:   -6.96 KCAL/MOL
REMARK 922        TOTAL FREE ENERGY PREDICTED BY IDOCK:  -10.44 KCAL/MOL
REMARK 923 INTER-LIGAND FREE ENERGY PREDICTED BY IDOCK:   -9.42 KCAL/MOL
REMARK 924 INTRA-LIGAND FREE ENERGY PREDICTED BY IDOCK:   -1.02 KCAL/MOL
REMARK 927      BINDING AFFINITY PREDICTED BY RF-SCORE:    0.00 PKD
ROOT
HETATM    1  C   UNL     1     -11.611  11.984  66.916  1.00  0.00    -0.318 C  
HETATM    2  S   UNL     1      -9.965  11.617  66.252  1.00  0.00    -0.225 SA 
HETATM    3  C   UNL     1     -10.001   9.905  66.821  1.00  0.00    -0.214 C  
HETATM    4  C   UNL     1     -10.411   9.727  68.278  1.00  0.00    -0.255 C  
HETATM    5  O   UNL     1     -12.295  11.210  71.050  1.00  0.00    -0.371 OA 
HETATM    6  CA  UNL     1     -11.119  10.658  68.987  1.00  0.00    -0.254 C  
HETATM    7  N   UNL     1     -11.589  11.776  68.353  1.00  0.00    -0.296 N  
HETATM    8  O   UNL     1     -12.410  13.415  69.772  1.00  0.00    -0.261 OA 
HETATM    9  C   UNL     1     -11.309  10.495  70.483  1.00  0.00    -0.314 C  
HETATM   10  CA  UNL     1     -11.894  13.497  67.207  1.00  0.00    -0.385 C  
HETATM   11  C   UNL     1     -12.074  12.996  68.685  1.00  0.00    -0.154 C  
HETATM   12  OXT UNL     1     -10.666   9.715  71.170  1.00  0.00    -0.329 OA 
ENDROOT
BRANCH   4  13
HETATM   13  C   UNL     1      -9.802   8.445  68.843  1.00  0.00    -0.180 C  
BRANCH  13  14
HETATM   14  S   UNL     1     -10.832   6.961  68.723  1.00  0.00    -0.160 SA 
BRANCH  14  15
HETATM   15  C   UNL     1     -10.697   6.218  70.263  1.00  0.00    -0.280 A  
HETATM   16  N   UNL     1      -9.750   5.423  70.699  1.00  0.00    -0.171 NA 
HETATM   17  C   UNL     1     -12.834   7.144  71.259  1.00  0.00    -0.349 C  
HETATM   18  N   UNL     1     -10.124   5.057  71.972  1.00  0.00    -0.190 NA 
HETATM   19  N   UNL     1     -11.274   5.626  72.308  1.00  0.00    -0.271 NA 
HETATM   20  N   UNL     1     -11.632   6.360  71.244  1.00  0.00    -0.315 NA 
ENDBRANCH  14  15
ENDBRANCH  13  14
ENDBRANCH   4  13
BRANCH  10  21
HETATM   21  N   UNL     1     -10.748  14.407  66.981  1.00  0.00    -0.282 N  
HETATM   22  C   UNL     1     -10.584  15.203  65.869  1.00  0.00    -0.337 C  
HETATM   23  O   UNL     1     -11.357  15.197  64.916  1.00  0.00    -0.385 OA 
HETATM   24  H   UNL     1     -10.028  14.449  67.703  1.00  0.00     0.000 HD 
BRANCH  22  25
HETATM   25  C   UNL     1      -9.339  16.111  65.969  1.00  0.00    -0.333 C  
HETATM   26  H   UNL     1      -7.503  15.959  66.669  1.00  0.00     0.000 HD 
HETATM   27  O   UNL     1      -8.268  15.400  66.608  1.00  0.00    -0.248 OA 
BRANCH  25  28
HETATM   28  C   UNL     1      -9.626  17.382  66.739  1.00  0.00    -0.283 A  
HETATM   29  C   UNL     1     -10.334  18.424  66.124  1.00  0.00    -0.431 A  
HETATM   30  C   UNL     1     -10.605  19.606  66.817  1.00  0.00    -0.602 A  
HETATM   31  C   UNL     1     -10.179  19.758  68.135  1.00  0.00    -0.577 A  
HETATM   32  C   UNL     1      -9.492  18.724  68.766  1.00  0.00    -0.380 A  
HETATM   33  C   UNL     1      -9.220  17.542  68.075  1.00  0.00    -0.275 A  
ENDBRANCH  25  28
ENDBRANCH  22  25
ENDBRANCH  10  21
TORSDOF 6
ENDMDL
MODEL        5
REMARK 921   NORMALIZED FREE ENERGY PREDICTED BY IDOCK:   -6.95 KCAL/MOL
REMARK 922        TOTAL FREE ENERGY PREDICTED BY IDOCK:  -10.43 KCAL/MOL
REMARK 923 INTER-LIGAND FREE ENERGY PREDICTED BY IDOCK:   -9.55 KCAL/MOL
REMARK 924 INTRA-LIGAND FREE ENERGY PREDICTED BY IDOCK:   -0.88 KCAL/MOL
REMARK 927      BINDING AFFINITY PREDICTED BY RF-SCORE:    0.00 PKD
ROOT
HETATM    1  C   UNL     1     -11.642  12.442  66.618  1.00  0.00    -0.385 C  
HETATM    2  S   UNL     1     -10.021  12.085  65.890  1.00  0.00    -0.239 SA 
HETATM    3  C   UNL     1     -10.110  10.328  66.294  1.00  0.00    -0.236 C  
HETATM    4  C   UNL     1     -10.502  10.026  67.736  1.00  0.00    -0.282 C  
HETATM    5  O   UNL     1     -12.286  11.300  70.673  1.00  0.00    -0.349 OA 
HETATM    6  CA  UNL     1     -11.165  10.908  68.544  1.00  0.00    -0.274 C  
HETATM    7  N   UNL     1     -11.604  12.097  68.028  1.00  0.00    -0.330 N  
HETATM    8  O   UNL     1     -12.342  13.620  69.613  1.00  0.00    -0.296 OA 
HETATM    9  C   UNL     1     -11.336  10.609  70.021  1.00  0.00    -0.324 C  
HETATM   10  CA  UNL     1     -11.866  13.929  67.058  1.00  0.00    -0.415 C  
HETATM   11  C   UNL     1     -12.040  13.296  68.485  1.00  0.00    -0.221 C  
HETATM   12  OXT UNL     1     -10.710   9.745  70.618  1.00  0.00    -0.290 OA 
ENDROOT
BRANCH   4  13
HETATM   13  C   UNL     1      -9.931   8.676  68.164  1.00  0.00    -0.178 C  
BRANCH  13  14
HETATM   14  S   UNL     1     -10.816   7.216  67.563  1.00  0.00    -0.208 SA 
BRANCH  14  15
HETATM   15  C   UNL     1     -10.292   5.942  68.585  1.00  0.00    -0.215 A  
HETATM   16  N   UNL     1      -9.394   5.020  68.335  1.00  0.00    -0.120 NA 
HETATM   17  C   UNL     1     -11.791   6.471  70.557  1.00  0.00    -0.328 C  
HETATM   18  N   UNL     1      -9.370   4.208  69.447  1.00  0.00    -0.152 NA 
HETATM   19  N   UNL     1     -10.233   4.633  70.360  1.00  0.00    -0.198 NA 
HETATM   20  N   UNL     1     -10.806   5.723  69.827  1.00  0.00    -0.350 NA 
ENDBRANCH  14  15
ENDBRANCH  13  14
ENDBRANCH   4  13
BRANCH  10  21
HETATM   21  N   UNL     1     -10.692  14.817  66.897  1.00  0.00    -0.302 N  
HETATM   22  C   UNL     1     -10.444  15.601  65.791  1.00  0.00    -0.366 C  
HETATM   23  O   UNL     1     -11.157  15.601  64.793  1.00  0.00    -0.441 OA 
HETATM   24  H   UNL     1     -10.017  14.852  67.661  1.00  0.00     0.000 HD 
BRANCH  22  25
HETATM   25  C   UNL     1      -9.192  16.488  65.963  1.00  0.00    -0.260 C  
HETATM   26  H   UNL     1      -7.370  16.277  66.685  1.00  0.00     0.000 HD 
HETATM   27  O   UNL     1      -8.140  15.731  66.580  1.00  0.00    -0.265 OA 
BRANCH  25  28
HETATM   28  C   UNL     1      -9.479  17.718  66.794  1.00  0.00    -0.289 A  
HETATM   29  C   UNL     1     -10.379  18.685  66.323  1.00  0.00    -0.483 A  
HETATM   30  C   UNL     1     -10.653  19.829  67.075  1.00  0.00    -0.586 A  
HETATM   31  C   UNL     1     -10.039  20.018  68.311  1.00  0.00    -0.531 A  
HETATM   32  C   UNL     1      -9.157  19.058  68.803  1.00  0.00    -0.374 A  
HETATM   33  C   UNL     1      -8.881  17.914  68.052  1.00  0.00    -0.268 A  
ENDBRANCH  25  28
ENDBRANCH  22  25
ENDBRANCH  10  21
TORSDOF 6
ENDMDL
MODEL        6
REMARK 921   NORMALIZED FREE ENERGY PREDICTED BY IDOCK:   -6.94 KCAL/MOL
REMARK 922        TOTAL FREE ENERGY PREDICTED BY IDOCK:  -10.41 KCAL/MOL
REMARK 923 INTER-LIGAND FREE ENERGY PREDICTED BY IDOCK:   -9.49 KCAL/MOL
REMARK 924 INTRA-LIGAND FREE ENERGY PREDICTED BY IDOCK:   -0.92 KCAL/MOL
REMARK 927      BINDING AFFINITY PREDICTED BY RF-SCORE:    0.00 PKD
ROOT
HETATM    1  C   UNL     1     -11.682  12.427  66.305  1.00  0.00    -0.395 C  
HETATM    2  S   UNL     1     -10.080  12.130  65.512  1.00  0.00    -0.248 SA 
HETATM    3  C   UNL     1     -10.106  10.363  65.881  1.00  0.00    -0.261 C  
HETATM    4  C   UNL     1     -10.437  10.020  67.329  1.00  0.00    -0.313 C  
HETATM    5  O   UNL     1     -12.147  11.183  70.355  1.00  0.00    -0.326 OA 
HETATM    6  CA  UNL     1     -11.094  10.867  68.179  1.00  0.00    -0.280 C  
HETATM    7  N   UNL     1     -11.584  12.053  67.705  1.00  0.00    -0.325 N  
HETATM    8  O   UNL     1     -12.305  13.522  69.347  1.00  0.00    -0.262 OA 
HETATM    9  C   UNL     1     -11.203  10.533  69.655  1.00  0.00    -0.282 C  
HETATM   10  CA  UNL     1     -11.930  13.897  66.784  1.00  0.00    -0.438 C  
HETATM   11  C   UNL     1     -12.035  13.230  68.203  1.00  0.00    -0.304 C  
HETATM   12  OXT UNL     1     -10.533   9.675  70.210  1.00  0.00    -0.242 OA 
ENDROOT
BRANCH   4  13
HETATM   13  C   UNL     1      -9.814   8.678  67.707  1.00  0.00    -0.175 C  
BRANCH  13  14
HETATM   14  S   UNL     1     -10.775   7.208  67.270  1.00  0.00    -0.318 SA 
BRANCH  14  15
HETATM   15  C   UNL     1     -10.673   6.198  68.652  1.00  0.00    -0.307 A  
HETATM   16  N   UNL     1     -11.164   6.411  69.849  1.00  0.00    -0.388 NA 
HETATM   17  C   UNL     1      -9.323   4.335  67.593  1.00  0.00    -0.161 C  
HETATM   18  N   UNL     1     -10.771   5.334  70.612  1.00  0.00    -0.191 NA 
HETATM   19  N   UNL     1     -10.061   4.478  69.890  1.00  0.00    -0.207 NA 
HETATM   20  N   UNL     1     -10.004   5.011  68.660  1.00  0.00    -0.160 NA 
ENDBRANCH  14  15
ENDBRANCH  13  14
ENDBRANCH   4  13
BRANCH  10  21
HETATM   21  N   UNL     1     -10.788  14.821  66.601  1.00  0.00    -0.313 N  
HETATM   22  C   UNL     1     -10.669  15.731  65.573  1.00  0.00    -0.383 C  
HETATM   23  O   UNL     1     -11.488  15.832  64.665  1.00  0.00    -0.393 OA 
HETATM   24  H   UNL     1     -10.033  14.781  67.286  1.00  0.00     0.000 HD 
BRANCH  22  25
HETATM   25  C   UNL     1      -9.412  16.617  65.709  1.00  0.00    -0.069 C  
HETATM   26  H   UNL     1      -7.546  16.382  66.298  1.00  0.00     0.000 HD 
HETATM   27  O   UNL     1      -8.319  15.836  66.215  1.00  0.00    -0.281 OA 
BRANCH  25  28
HETATM   28  C   UNL     1      -9.648  17.799  66.622  1.00  0.00    -0.311 A  
HETATM   29  C   UNL     1      -8.968  17.882  67.846  1.00  0.00    -0.264 A  
HETATM   30  C   UNL     1      -9.176  18.964  68.704  1.00  0.00    -0.399 A  
HETATM   31  C   UNL     1     -10.059  19.981  68.346  1.00  0.00    -0.513 A  
HETATM   32  C   UNL     1     -10.727  19.924  67.126  1.00  0.00    -0.469 A  
HETATM   33  C   UNL     1     -10.521  18.843  66.267  1.00  0.00    -0.510 A  
ENDBRANCH  25  28
ENDBRANCH  22  25
ENDBRANCH  10  21
TORSDOF 6
ENDMDL
MODEL        7
REMARK 921   NORMALIZED FREE ENERGY PREDICTED BY IDOCK:   -6.93 KCAL/MOL
REMARK 922        TOTAL FREE ENERGY PREDICTED BY IDOCK:  -10.40 KCAL/MOL
REMARK 923 INTER-LIGAND FREE ENERGY PREDICTED BY IDOCK:   -9.12 KCAL/MOL
REMARK 924 INTRA-LIGAND FREE ENERGY PREDICTED BY IDOCK:   -1.28 KCAL/MOL
REMARK 927      BINDING AFFINITY PREDICTED BY RF-SCORE:    0.00 PKD
ROOT
HETATM    1  C   UNL     1     -10.760  10.418  69.061  1.00  0.00    -0.228 C  
HETATM    2  S   UNL     1      -9.215  11.338  68.830  1.00  0.00    -0.071 SA 
HETATM    3  C   UNL     1      -8.184   9.888  69.133  1.00  0.00    -0.128 C  
HETATM    4  C   UNL     1      -8.547   9.099  70.385  1.00  0.00    -0.236 C  
HETATM    5  O   UNL     1     -11.258   8.272  72.710  1.00  0.00    -0.371 OA 
HETATM    6  CA  UNL     1      -9.772   9.158  70.992  1.00  0.00    -0.289 C  
HETATM    7  N   UNL     1     -10.780   9.876  70.408  1.00  0.00    -0.300 N  
HETATM    8  O   UNL     1     -12.640  10.192  71.755  1.00  0.00    -0.395 OA 
HETATM    9  C   UNL     1      -9.987   8.503  72.343  1.00  0.00    -0.295 C  
HETATM   10  CA  UNL     1     -12.001  11.284  69.464  1.00  0.00    -0.351 C  
HETATM   11  C   UNL     1     -11.985  10.390  70.756  1.00  0.00    -0.363 C  
HETATM   12  OXT UNL     1      -9.078   8.126  73.069  1.00  0.00    -0.239 OA 
ENDROOT
BRANCH   4  13
HETATM   13  C   UNL     1      -7.319   8.364  70.918  1.00  0.00    -0.064 C  
BRANCH  13  14
HETATM   14  S   UNL     1      -6.941   6.780  70.128  1.00  0.00    -0.068 SA 
BRANCH  14  15
HETATM   15  C   UNL     1      -8.392   5.875  70.258  1.00  0.00    -0.122 A  
HETATM   16  N   UNL     1      -8.793   5.127  71.257  1.00  0.00    -0.133 NA 
HETATM   17  C   UNL     1      -9.351   6.471  67.991  1.00  0.00    -0.108 C  
HETATM   18  N   UNL     1      -9.991   4.578  70.858  1.00  0.00    -0.205 NA 
HETATM   19  N   UNL     1     -10.317   4.993  69.641  1.00  0.00    -0.246 NA 
HETATM   20  N   UNL     1      -9.323   5.811  69.265  1.00  0.00    -0.123 NA 
ENDBRANCH  14  15
ENDBRANCH  13  14
ENDBRANCH   4  13
BRANCH  10  21
HETATM   21  N   UNL     1     -11.722  12.722  69.684  1.00  0.00    -0.388 N  
HETATM   22  C   UNL     1     -11.966  13.719  68.765  1.00  0.00    -0.365 C  
HETATM   23  O   UNL     1     -12.398  13.506  67.637  1.00  0.00    -0.248 OA 
HETATM   24  H   UNL     1     -11.320  12.994  70.581  1.00  0.00     0.000 HD 
BRANCH  22  25
HETATM   25  C   UNL     1     -11.659  15.126  69.324  1.00  0.00    -0.324 C  
HETATM   26  H   UNL     1     -10.053  16.158  69.813  1.00  0.00     0.000 HD 
HETATM   27  O   UNL     1     -10.241  15.293  69.470  1.00  0.00    -0.239 OA 
BRANCH  25  28
HETATM   28  C   UNL     1     -12.332  15.366  70.657  1.00  0.00    -0.451 A  
HETATM   29  C   UNL     1     -11.576  15.818  71.748  1.00  0.00    -0.541 A  
HETATM   30  C   UNL     1     -12.179  16.041  72.988  1.00  0.00    -0.637 A  
HETATM   31  C   UNL     1     -13.545  15.824  73.151  1.00  0.00    -0.588 A  
HETATM   32  C   UNL     1     -14.314  15.394  72.072  1.00  0.00    -0.653 A  
HETATM   33  C   UNL     1     -13.713  15.170  70.832  1.00  0.00    -0.352 A  
ENDBRANCH  25  28
ENDBRANCH  22  25
ENDBRANCH  10  21
TORSDOF 6
ENDMDL
MODEL        8
REMARK 921   NORMALIZED FREE ENERGY PREDICTED BY IDOCK:   -6.86 KCAL/MOL
REMARK 922        TOTAL FREE ENERGY PREDICTED BY IDOCK:  -10.30 KCAL/MOL
REMARK 923 INTER-LIGAND FREE ENERGY PREDICTED BY IDOCK:   -9.03 KCAL/MOL
REMARK 924 INTRA-LIGAND FREE ENERGY PREDICTED BY IDOCK:   -1.27 KCAL/MOL
REMARK 927      BINDING AFFINITY PREDICTED BY RF-SCORE:    0.00 PKD
ROOT
HETATM    1  C   UNL     1     -11.775  12.588  66.583  1.00  0.00    -0.387 C  
HETATM    2  S   UNL     1     -10.191  12.194  65.794  1.00  0.00    -0.260 SA 
HETATM    3  C   UNL     1     -10.330  10.431  66.154  1.00  0.00    -0.200 C  
HETATM    4  C   UNL     1     -10.688  10.103  67.598  1.00  0.00    -0.339 C  
HETATM    5  O   UNL     1     -12.334  11.357  70.624  1.00  0.00    -0.353 OA 
HETATM    6  CA  UNL     1     -11.294  10.986  68.451  1.00  0.00    -0.295 C  
HETATM    7  N   UNL     1     -11.706  12.202  67.981  1.00  0.00    -0.348 N  
HETATM    8  O   UNL     1     -12.340  13.706  69.628  1.00  0.00    -0.296 OA 
HETATM    9  C   UNL     1     -11.430  10.652  69.924  1.00  0.00    -0.317 C  
HETATM   10  CA  UNL     1     -11.932  14.069  67.068  1.00  0.00    -0.438 C  
HETATM   11  C   UNL     1     -12.085  13.403  68.483  1.00  0.00    -0.248 C  
HETATM   12  OXT UNL     1     -10.817   9.751  70.478  1.00  0.00    -0.276 OA 
ENDROOT
BRANCH   4  13
HETATM   13  C   UNL     1     -10.152   8.723  67.973  1.00  0.00    -0.196 C  
BRANCH  13  14
HETATM   14  S   UNL     1      -8.364   8.497  67.806  1.00  0.00    -0.130 SA 
BRANCH  14  15
HETATM   15  C   UNL     1      -7.714   9.117  69.267  1.00  0.00    -0.080 A  
HETATM   16  N   UNL     1      -7.543   8.492  70.407  1.00  0.00    -0.070 NA 
HETATM   17  C   UNL     1      -7.274  11.474  68.453  1.00  0.00    -0.089 C  
HETATM   18  N   UNL     1      -7.036   9.431  71.278  1.00  0.00    -0.312 NA 
HETATM   19  N   UNL     1      -6.893  10.604  70.675  1.00  0.00    -0.228 NA 
HETATM   20  N   UNL     1      -7.308  10.409  69.414  1.00  0.00    -0.108 NA 
ENDBRANCH  14  15
ENDBRANCH  13  14
ENDBRANCH   4  13
BRANCH  10  21
HETATM   21  N   UNL     1     -10.733  14.920  66.894  1.00  0.00    -0.302 N  
HETATM   22  C   UNL     1     -10.435  15.635  65.754  1.00  0.00    -0.366 C  
HETATM   23  O   UNL     1     -11.119  15.596  64.737  1.00  0.00    -0.441 OA 
HETATM   24  H   UNL     1     -10.079  14.981  67.675  1.00  0.00     0.000 HD 
BRANCH  22  25
HETATM   25  C   UNL     1      -9.167  16.501  65.914  1.00  0.00    -0.174 C  
HETATM   26  H   UNL     1      -7.367  16.284  66.687  1.00  0.00     0.000 HD 
HETATM   27  O   UNL     1      -8.147  15.751  66.589  1.00  0.00    -0.257 OA 
BRANCH  25  28
HETATM   28  C   UNL     1      -9.444  17.775  66.682  1.00  0.00    -0.299 A  
HETATM   29  C   UNL     1     -10.274  18.758  66.125  1.00  0.00    -0.462 A  
HETATM   30  C   UNL     1     -10.538  19.942  66.818  1.00  0.00    -0.536 A  
HETATM   31  C   UNL     1      -9.983  20.154  68.078  1.00  0.00    -0.519 A  
HETATM   32  C   UNL     1      -9.171  19.179  68.653  1.00  0.00    -0.429 A  
HETATM   33  C   UNL     1      -8.906  17.996  67.962  1.00  0.00    -0.278 A  
ENDBRANCH  25  28
ENDBRANCH  22  25
ENDBRANCH  10  21
TORSDOF 6
ENDMDL
MODEL        9
REMARK 921   NORMALIZED FREE ENERGY PREDICTED BY IDOCK:   -6.81 KCAL/MOL
REMARK 922        TOTAL FREE ENERGY PREDICTED BY IDOCK:  -10.24 KCAL/MOL
REMARK 923 INTER-LIGAND FREE ENERGY PREDICTED BY IDOCK:   -9.34 KCAL/MOL
REMARK 924 INTRA-LIGAND FREE ENERGY PREDICTED BY IDOCK:   -0.90 KCAL/MOL
REMARK 927      BINDING AFFINITY PREDICTED BY RF-SCORE:    0.00 PKD
ROOT
HETATM    1  C   UNL     1     -11.763  12.479  66.932  1.00  0.00    -0.377 C  
HETATM    2  S   UNL     1     -10.152  11.935  66.303  1.00  0.00    -0.228 SA 
HETATM    3  C   UNL     1     -10.395  10.233  66.851  1.00  0.00    -0.239 C  
HETATM    4  C   UNL     1     -10.859  10.089  68.296  1.00  0.00    -0.286 C  
HETATM    5  O   UNL     1     -12.633  11.750  71.039  1.00  0.00    -0.374 OA 
HETATM    6  CA  UNL     1     -11.475  11.088  68.999  1.00  0.00    -0.299 C  
HETATM    7  N   UNL     1     -11.801  12.257  68.366  1.00  0.00    -0.327 N  
HETATM    8  O   UNL     1     -12.468  13.965  69.784  1.00  0.00    -0.311 OA 
HETATM    9  C   UNL     1     -11.720  10.934  70.488  1.00  0.00    -0.342 C  
HETATM   10  CA  UNL     1     -11.882  14.011  67.234  1.00  0.00    -0.411 C  
HETATM   11  C   UNL     1     -12.155  13.521  68.701  1.00  0.00    -0.268 C  
HETATM   12  OXT UNL     1     -11.186  10.081  71.181  1.00  0.00    -0.350 OA 
ENDROOT
BRANCH   4  13
HETATM   13  C   UNL     1     -10.412   8.742  68.861  1.00  0.00    -0.197 C  
BRANCH  13  14
HETATM   14  S   UNL     1      -8.624   8.499  69.004  1.00  0.00    -0.131 SA 
BRANCH  14  15
HETATM   15  C   UNL     1      -8.352   8.280  70.683  1.00  0.00    -0.121 A  
HETATM   16  N   UNL     1      -7.891   9.149  71.549  1.00  0.00    -0.339 NA 
HETATM   17  C   UNL     1      -9.091   5.861  70.818  1.00  0.00    -0.153 C  
HETATM   18  N   UNL     1      -7.811   8.477  72.749  1.00  0.00    -0.353 NA 
HETATM   19  N   UNL     1      -8.223   7.223  72.615  1.00  0.00    -0.105 NA 
HETATM   20  N   UNL     1      -8.570   7.098  71.326  1.00  0.00    -0.124 NA 
ENDBRANCH  14  15
ENDBRANCH  13  14
ENDBRANCH   4  13
BRANCH  10  21
HETATM   21  N   UNL     1     -10.636  14.789  67.046  1.00  0.00    -0.285 N  
HETATM   22  C   UNL     1     -10.272  15.420  65.877  1.00  0.00    -0.344 C  
HETATM   23  O   UNL     1     -10.931  15.356  64.843  1.00  0.00    -0.417 OA 
HETATM   24  H   UNL     1     -10.001  14.863  67.840  1.00  0.00     0.000 HD 
BRANCH  22  25
HETATM   25  C   UNL     1      -8.965  16.230  66.023  1.00  0.00    -0.290 C  
HETATM   26  H   UNL     1      -7.241  16.018  66.954  1.00  0.00     0.000 HD 
HETATM   27  O   UNL     1      -8.045  15.520  66.865  1.00  0.00    -0.223 OA 
BRANCH  25  28
HETATM   28  C   UNL     1      -9.213  17.606  66.600  1.00  0.00    -0.284 A  
HETATM   29  C   UNL     1      -8.406  18.079  67.644  1.00  0.00    -0.238 A  
HETATM   30  C   UNL     1      -8.621  19.346  68.192  1.00  0.00    -0.374 A  
HETATM   31  C   UNL     1      -9.640  20.158  67.697  1.00  0.00    -0.534 A  
HETATM   32  C   UNL     1     -10.437  19.711  66.647  1.00  0.00    -0.610 A  
HETATM   33  C   UNL     1     -10.224  18.445  66.099  1.00  0.00    -0.408 A  
ENDBRANCH  25  28
ENDBRANCH  22  25
ENDBRANCH  10  21
TORSDOF 6
ENDMDL
MODEL       10
REMARK 921   NORMALIZED FREE ENERGY PREDICTED BY IDOCK:   -6.81 KCAL/MOL
REMARK 922        TOTAL FREE ENERGY PREDICTED BY IDOCK:  -10.23 KCAL/MOL
REMARK 923 INTER-LIGAND FREE ENERGY PREDICTED BY IDOCK:   -9.38 KCAL/MOL
REMARK 924 INTRA-LIGAND FREE ENERGY PREDICTED BY IDOCK:   -0.85 KCAL/MOL
REMARK 927      BINDING AFFINITY PREDICTED BY RF-SCORE:    0.00 PKD
ROOT
HETATM    1  C   UNL     1      -9.605   9.155  66.867  1.00  0.00    -0.178 C  
HETATM    2  S   UNL     1     -10.884  10.063  67.776  1.00  0.00    -0.246 SA 
HETATM    3  C   UNL     1     -10.605  11.588  66.852  1.00  0.00    -0.247 C  
HETATM    4  C   UNL     1      -9.144  12.012  66.748  1.00  0.00    -0.197 C  
HETATM    5  O   UNL     1      -5.681  10.814  66.783  1.00  0.00    -0.054 OA 
HETATM    6  CA  UNL     1      -8.091  11.154  66.911  1.00  0.00    -0.150 C  
HETATM    7  N   UNL     1      -8.329   9.817  67.075  1.00  0.00    -0.117 N  
HETATM    8  O   UNL     1      -6.478   8.583  67.728  1.00  0.00    -0.058 OA 
HETATM    9  C   UNL     1      -6.675  11.691  66.994  1.00  0.00    -0.145 C  
HETATM   10  CA  UNL     1      -9.006   7.914  67.614  1.00  0.00    -0.131 C  
HETATM   11  C   UNL     1      -7.661   8.717  67.499  1.00  0.00    -0.093 C  
HETATM   12  OXT UNL     1      -6.404  12.869  67.177  1.00  0.00    -0.249 OA 
ENDROOT
BRANCH   4  13
HETATM   13  C   UNL     1      -9.047  13.526  66.579  1.00  0.00    -0.113 C  
BRANCH  13  14
HETATM   14  S   UNL     1     -10.495  14.476  67.106  1.00  0.00    -0.269 SA 
BRANCH  14  15
HETATM   15  C   UNL     1     -11.100  15.176  65.662  1.00  0.00    -0.334 A  
HETATM   16  N   UNL     1     -10.695  16.268  65.060  1.00  0.00    -0.656 NA 
HETATM   17  C   UNL     1     -12.909  13.464  65.203  1.00  0.00    -0.316 C  
HETATM   18  N   UNL     1     -11.528  16.429  63.974  1.00  0.00    -1.073 NA 
HETATM   19  N   UNL     1     -12.417  15.447  63.913  1.00  0.00    -0.624 NA 
HETATM   20  N   UNL     1     -12.147  14.656  64.963  1.00  0.00    -0.375 NA 
ENDBRANCH  14  15
ENDBRANCH  13  14
ENDBRANCH   4  13
BRANCH  10  21
HETATM   21  N   UNL     1      -9.506   7.706  68.992  1.00  0.00    -0.150 N  
HETATM   22  C   UNL     1     -10.537   6.859  69.335  1.00  0.00    -0.229 C  
HETATM   23  O   UNL     1     -11.187   6.222  68.513  1.00  0.00    -0.352 OA 
HETATM   24  H   UNL     1      -9.054   8.229  69.743  1.00  0.00     0.000 HD 
BRANCH  22  25
HETATM   25  C   UNL     1     -10.761   6.787  70.861  1.00  0.00    -0.233 C  
HETATM   26  H   UNL     1     -11.086   5.377  72.200  1.00  0.00     0.000 HD 
HETATM   27  O   UNL     1     -10.949   5.421  71.261  1.00  0.00    -0.184 OA 
BRANCH  25  28
HETATM   28  C   UNL     1     -11.954   7.606  71.299  1.00  0.00    -0.330 A  
HETATM   29  C   UNL     1     -11.818   8.989  71.491  1.00  0.00    -0.415 A  
HETATM   30  C   UNL     1     -12.909   9.761  71.899  1.00  0.00    -0.520 A  
HETATM   31  C   UNL     1     -14.149   9.163  72.110  1.00  0.00    -0.416 A  
HETATM   32  C   UNL     1     -14.306   7.795  71.904  1.00  0.00    -0.545 A  
HETATM   33  C   UNL     1     -13.217   7.021  71.498  1.00  0.00    -0.382 A  
ENDBRANCH  25  28
ENDBRANCH  22  25
ENDBRANCH  10  21
TORSDOF 6
ENDMDL
MODEL       11
REMARK 921   NORMALIZED FREE ENERGY PREDICTED BY IDOCK:   -6.73 KCAL/MOL
REMARK 922        TOTAL FREE ENERGY PREDICTED BY IDOCK:  -10.13 KCAL/MOL
REMARK 923 INTER-LIGAND FREE ENERGY PREDICTED BY IDOCK:   -9.28 KCAL/MOL
REMARK 924 INTRA-LIGAND FREE ENERGY PREDICTED BY IDOCK:   -0.85 KCAL/MOL
REMARK 927      BINDING AFFINITY PREDICTED BY RF-SCORE:    0.00 PKD
ROOT
HETATM    1  C   UNL     1     -10.704  10.935  67.533  1.00  0.00    -0.252 C  
HETATM    2  S   UNL     1     -11.874  11.950  68.474  1.00  0.00    -0.228 SA 
HETATM    3  C   UNL     1     -11.139  13.501  67.916  1.00  0.00    -0.265 C  
HETATM    4  C   UNL     1      -9.623  13.571  68.050  1.00  0.00    -0.221 C  
HETATM    5  O   UNL     1      -6.544  11.587  68.189  1.00  0.00    -0.055 OA 
HETATM    6  CA  UNL     1      -8.816  12.470  68.139  1.00  0.00    -0.191 C  
HETATM    7  N   UNL     1      -9.359  11.222  68.000  1.00  0.00    -0.161 N  
HETATM    8  O   UNL     1      -7.936   9.483  68.570  1.00  0.00    -0.091 OA 
HETATM    9  C   UNL     1      -7.345  12.627  68.474  1.00  0.00    -0.115 C  
HETATM   10  CA  UNL     1     -10.504   9.475  68.065  1.00  0.00    -0.230 C  
HETATM   11  C   UNL     1      -9.015   9.937  68.255  1.00  0.00    -0.119 C  
HETATM   12  OXT UNL     1      -6.855  13.653  68.922  1.00  0.00    -0.102 OA 
ENDROOT
BRANCH   4  13
HETATM   13  C   UNL     1      -9.175  15.023  68.206  1.00  0.00    -0.184 C  
BRANCH  13  14
HETATM   14  S   UNL     1      -8.337  15.750  66.776  1.00  0.00    -0.287 SA 
BRANCH  14  15
HETATM   15  C   UNL     1      -9.603  16.401  65.819  1.00  0.00    -0.192 A  
HETATM   16  N   UNL     1     -10.377  15.775  64.966  1.00  0.00    -0.498 NA 
HETATM   17  C   UNL     1      -9.402  18.801  66.603  1.00  0.00    -0.329 C  
HETATM   18  N   UNL     1     -11.194  16.741  64.422  1.00  0.00    -1.107 NA 
HETATM   19  N   UNL     1     -10.928  17.932  64.943  1.00  0.00    -0.608 NA 
HETATM   20  N   UNL     1      -9.938  17.721  65.824  1.00  0.00    -0.559 NA 
ENDBRANCH  14  15
ENDBRANCH  13  14
ENDBRANCH   4  13
BRANCH  10  21
HETATM   21  N   UNL     1     -11.233   9.154  69.313  1.00  0.00    -0.440 N  
HETATM   22  C   UNL     1     -11.061   8.004  70.051  1.00  0.00    -0.154 C  
HETATM   23  O   UNL     1     -10.311   7.093  69.713  1.00  0.00    -0.202 OA 
HETATM   24  H   UNL     1     -11.913   9.836  69.652  1.00  0.00     0.000 HD 
BRANCH  22  25
HETATM   25  C   UNL     1     -11.894   8.004  71.351  1.00  0.00    -0.295 C  
HETATM   26  H   UNL     1     -12.473   9.333  72.686  1.00  0.00     0.000 HD 
HETATM   27  O   UNL     1     -11.960   9.334  71.886  1.00  0.00    -0.362 OA 
BRANCH  25  28
HETATM   28  C   UNL     1     -11.317   7.072  72.394  1.00  0.00    -0.307 A  
HETATM   29  C   UNL     1     -11.782   5.752  72.484  1.00  0.00    -0.280 A  
HETATM   30  C   UNL     1     -11.264   4.879  73.442  1.00  0.00    -0.415 A  
HETATM   31  C   UNL     1     -10.269   5.310  74.317  1.00  0.00    -0.291 A  
HETATM   32  C   UNL     1      -9.782   6.612  74.228  1.00  0.00    -0.328 A  
HETATM   33  C   UNL     1     -10.299   7.486  73.271  1.00  0.00    -0.412 A  
ENDBRANCH  25  28
ENDBRANCH  22  25
ENDBRANCH  10  21
TORSDOF 6
ENDMDL
MODEL       12
REMARK 921   NORMALIZED FREE ENERGY PREDICTED BY IDOCK:   -6.72 KCAL/MOL
REMARK 922        TOTAL FREE ENERGY PREDICTED BY IDOCK:  -10.12 KCAL/MOL
REMARK 923 INTER-LIGAND FREE ENERGY PREDICTED BY IDOCK:   -9.48 KCAL/MOL
REMARK 924 INTRA-LIGAND FREE ENERGY PREDICTED BY IDOCK:   -0.64 KCAL/MOL
REMARK 927      BINDING AFFINITY PREDICTED BY RF-SCORE:    0.00 PKD
ROOT
HETATM    1  C   UNL     1     -12.044  14.203  69.002  1.00  0.00    -0.313 C  
HETATM    2  S   UNL     1     -10.651  14.861  69.957  1.00  0.00    -0.014 SA 
HETATM    3  C   UNL     1     -10.758  16.491  69.190  1.00  0.00    -0.335 C  
HETATM    4  C   UNL     1     -10.839  16.474  67.668  1.00  0.00    -0.269 C  
HETATM    5  O   UNL     1     -11.840  14.488  64.755  1.00  0.00    -0.399 OA 
HETATM    6  CA  UNL     1     -11.248  15.389  66.941  1.00  0.00    -0.214 C  
HETATM    7  N   UNL     1     -11.715  14.279  67.589  1.00  0.00    -0.369 N  
HETATM    8  O   UNL     1     -11.984  12.416  66.236  1.00  0.00    -0.553 OA 
HETATM    9  C   UNL     1     -11.105  15.386  65.431  1.00  0.00    -0.326 C  
HETATM   10  CA  UNL     1     -12.069  12.645  68.842  1.00  0.00    -0.123 C  
HETATM   11  C   UNL     1     -11.962  12.976  67.310  1.00  0.00    -0.321 C  
HETATM   12  OXT UNL     1     -10.417  16.184  64.810  1.00  0.00    -0.592 OA 
ENDROOT
BRANCH   4  13
HETATM   13  C   UNL     1     -10.273  17.772  67.097  1.00  0.00    -0.353 C  
BRANCH  13  14
HETATM   14  S   UNL     1      -8.903  18.511  68.020  1.00  0.00    -0.306 SA 
BRANCH  14  15
HETATM   15  C   UNL     1      -7.744  18.916  66.823  1.00  0.00    -0.240 A  
HETATM   16  N   UNL     1      -7.637  18.443  65.605  1.00  0.00    -0.518 NA 
HETATM   17  C   UNL     1      -6.439  20.602  68.192  1.00  0.00    -0.303 C  
HETATM   18  N   UNL     1      -6.523  19.045  65.064  1.00  0.00    -0.474 NA 
HETATM   19  N   UNL     1      -5.968  19.877  65.935  1.00  0.00    -0.172 NA 
HETATM   20  N   UNL     1      -6.733  19.805  67.034  1.00  0.00    -0.197 NA 
ENDBRANCH  14  15
ENDBRANCH  13  14
ENDBRANCH   4  13
BRANCH  10  21
HETATM   21  N   UNL     1     -10.907  11.932  69.420  1.00  0.00    -0.448 N  
HETATM   22  C   UNL     1     -10.566  10.628  69.140  1.00  0.00    -0.226 C  
HETATM   23  O   UNL     1     -11.231   9.899  68.411  1.00  0.00    -0.188 OA 
HETATM   24  H   UNL     1     -10.316  12.446  70.075  1.00  0.00     0.000 HD 
BRANCH  22  25
HETATM   25  C   UNL     1      -9.248  10.201  69.824  1.00  0.00    -0.144 C  
HETATM   26  H   UNL     1      -7.592   9.271  69.296  1.00  0.00     0.000 HD 
HETATM   27  O   UNL     1      -8.402   9.533  68.875  1.00  0.00    -0.115 OA 
BRANCH  25  28
HETATM   28  C   UNL     1      -9.492   9.289  71.006  1.00  0.00    -0.313 A  
HETATM   29  C   UNL     1     -10.806   8.993  71.398  1.00  0.00    -0.400 A  
HETATM   30  C   UNL     1     -11.051   8.156  72.489  1.00  0.00    -0.446 A  
HETATM   31  C   UNL     1      -9.988   7.598  73.196  1.00  0.00    -0.363 A  
HETATM   32  C   UNL     1      -8.678   7.867  72.807  1.00  0.00    -0.231 A  
HETATM   33  C   UNL     1      -8.431   8.703  71.717  1.00  0.00    -0.221 A  
ENDBRANCH  25  28
ENDBRANCH  22  25
ENDBRANCH  10  21
TORSDOF 6
ENDMDL
MODEL       13
REMARK 921   NORMALIZED FREE ENERGY PREDICTED BY IDOCK:   -6.71 KCAL/MOL
REMARK 922        TOTAL FREE ENERGY PREDICTED BY IDOCK:  -10.10 KCAL/MOL
REMARK 923 INTER-LIGAND FREE ENERGY PREDICTED BY IDOCK:   -9.13 KCAL/MOL
REMARK 924 INTRA-LIGAND FREE ENERGY PREDICTED BY IDOCK:   -0.96 KCAL/MOL
REMARK 927      BINDING AFFINITY PREDICTED BY RF-SCORE:    0.00 PKD
ROOT
HETATM    1  C   UNL     1     -11.421  11.585  67.341  1.00  0.00    -0.274 C  
HETATM    2  S   UNL     1      -9.770  11.380  66.622  1.00  0.00    -0.206 SA 
HETATM    3  C   UNL     1      -9.666   9.641  67.090  1.00  0.00    -0.174 C  
HETATM    4  C   UNL     1     -10.024   9.350  68.543  1.00  0.00    -0.190 C  
HETATM    5  O   UNL     1     -11.939  10.528  71.437  1.00  0.00    -0.330 OA 
HETATM    6  CA  UNL     1     -10.780  10.184  69.320  1.00  0.00    -0.231 C  
HETATM    7  N   UNL     1     -11.347  11.297  68.763  1.00  0.00    -0.243 N  
HETATM    8  O   UNL     1     -12.248  12.787  70.293  1.00  0.00    -0.334 OA 
HETATM    9  C   UNL     1     -10.919   9.922  70.808  1.00  0.00    -0.337 C  
HETATM   10  CA  UNL     1     -11.806  13.053  67.727  1.00  0.00    -0.347 C  
HETATM   11  C   UNL     1     -11.911  12.457  69.177  1.00  0.00    -0.240 C  
HETATM   12  OXT UNL     1     -10.203   9.155  71.434  1.00  0.00    -0.302 OA 
ENDROOT
BRANCH   4  13
HETATM   13  C   UNL     1      -9.308   8.087  69.018  1.00  0.00    -0.147 C  
BRANCH  13  14
HETATM   14  S   UNL     1     -10.223   6.538  68.820  1.00  0.00    -0.187 SA 
BRANCH  14  15
HETATM   15  C   UNL     1     -11.065   6.341  70.301  1.00  0.00    -0.364 A  
HETATM   16  N   UNL     1     -12.284   6.722  70.596  1.00  0.00    -0.342 NA 
HETATM   17  C   UNL     1      -9.216   5.165  71.571  1.00  0.00    -0.146 C  
HETATM   18  N   UNL     1     -12.474   6.379  71.917  1.00  0.00    -0.278 NA 
HETATM   19  N   UNL     1     -11.393   5.792  72.412  1.00  0.00    -0.293 NA 
HETATM   20  N   UNL     1     -10.511   5.759  71.402  1.00  0.00    -0.229 NA 
ENDBRANCH  14  15
ENDBRANCH  13  14
ENDBRANCH   4  13
BRANCH  10  21
HETATM   21  N   UNL     1     -10.737  14.058  67.530  1.00  0.00    -0.266 N  
HETATM   22  C   UNL     1     -10.760  15.340  68.033  1.00  0.00    -0.268 C  
HETATM   23  O   UNL     1     -11.708  15.800  68.661  1.00  0.00    -0.375 OA 
HETATM   24  H   UNL     1      -9.923  13.780  66.981  1.00  0.00     0.000 HD 
BRANCH  22  25
HETATM   25  C   UNL     1      -9.458  16.116  67.739  1.00  0.00    -0.217 C  
HETATM   26  H   UNL     1      -7.745  16.446  68.656  1.00  0.00     0.000 HD 
HETATM   27  O   UNL     1      -8.545  15.969  68.838  1.00  0.00    -0.202 OA 
BRANCH  25  28
HETATM   28  C   UNL     1      -9.716  17.586  67.495  1.00  0.00    -0.278 A  
HETATM   29  C   UNL     1     -10.287  18.002  66.284  1.00  0.00    -0.384 A  
HETATM   30  C   UNL     1     -10.529  19.356  66.040  1.00  0.00    -0.596 A  
HETATM   31  C   UNL     1     -10.213  20.309  67.006  1.00  0.00    -0.503 A  
HETATM   32  C   UNL     1      -9.664  19.910  68.222  1.00  0.00    -0.479 A  
HETATM   33  C   UNL     1      -9.420  18.558  68.467  1.00  0.00    -0.375 A  
ENDBRANCH  25  28
ENDBRANCH  22  25
ENDBRANCH  10  21
TORSDOF 6
ENDMDL
MODEL       14
REMARK 921   NORMALIZED FREE ENERGY PREDICTED BY IDOCK:   -6.67 KCAL/MOL
REMARK 922        TOTAL FREE ENERGY PREDICTED BY IDOCK:  -10.05 KCAL/MOL
REMARK 923 INTER-LIGAND FREE ENERGY PREDICTED BY IDOCK:   -9.13 KCAL/MOL
REMARK 924 INTRA-LIGAND FREE ENERGY PREDICTED BY IDOCK:   -0.93 KCAL/MOL
REMARK 927      BINDING AFFINITY PREDICTED BY RF-SCORE:    0.00 PKD
ROOT
HETATM    1  C   UNL     1     -10.225   9.397  66.862  1.00  0.00    -0.248 C  
HETATM    2  S   UNL     1     -11.247  10.444  67.931  1.00  0.00    -0.164 SA 
HETATM    3  C   UNL     1     -10.860  11.946  67.008  1.00  0.00    -0.259 C  
HETATM    4  C   UNL     1      -9.376  12.163  66.739  1.00  0.00    -0.212 C  
HETATM    5  O   UNL     1      -6.139  10.491  66.342  1.00  0.00    -0.072 OA 
HETATM    6  CA  UNL     1      -8.445  11.161  66.761  1.00  0.00    -0.153 C  
HETATM    7  N   UNL     1      -8.852   9.866  66.928  1.00  0.00    -0.134 N  
HETATM    8  O   UNL     1      -7.135   8.363  67.336  1.00  0.00    -0.077 OA 
HETATM    9  C   UNL     1      -6.966  11.492  66.685  1.00  0.00    -0.069 C  
HETATM   10  CA  UNL     1      -9.729   8.060  67.510  1.00  0.00    -0.161 C  
HETATM   11  C   UNL     1      -8.304   8.669  67.252  1.00  0.00    -0.108 C  
HETATM   12  OXT UNL     1      -6.510  12.612  66.855  1.00  0.00    -0.131 OA 
ENDROOT
BRANCH   4  13
HETATM   13  C   UNL     1      -9.082  13.654  66.586  1.00  0.00    -0.174 C  
BRANCH  13  14
HETATM   14  S   UNL     1     -10.356  14.779  67.208  1.00  0.00    -0.248 SA 
BRANCH  14  15
HETATM   15  C   UNL     1     -10.904  15.622  65.819  1.00  0.00    -0.306 A  
HETATM   16  N   UNL     1     -11.467  15.130  64.743  1.00  0.00    -0.406 NA 
HETATM   17  C   UNL     1     -10.249  17.950  66.572  1.00  0.00    -0.379 C  
HETATM   18  N   UNL     1     -11.674  16.202  63.903  1.00  0.00    -0.880 NA 
HETATM   19  N   UNL     1     -11.252  17.328  64.464  1.00  0.00    -0.924 NA 
HETATM   20  N   UNL     1     -10.776  16.970  65.666  1.00  0.00    -0.398 NA 
ENDBRANCH  14  15
ENDBRANCH  13  14
ENDBRANCH   4  13
BRANCH  10  21
HETATM   21  N   UNL     1     -10.091   7.877  68.934  1.00  0.00    -0.192 N  
HETATM   22  C   UNL     1     -10.519   6.692  69.491  1.00  0.00    -0.218 C  
HETATM   23  O   UNL     1     -10.692   5.666  68.840  1.00  0.00    -0.248 OA 
HETATM   24  H   UNL     1     -10.020   8.689  69.548  1.00  0.00     0.000 HD 
BRANCH  22  25
HETATM   25  C   UNL     1     -10.728   6.796  71.017  1.00  0.00    -0.231 C  
HETATM   26  H   UNL     1     -11.011   5.548  72.516  1.00  0.00     0.000 HD 
HETATM   27  O   UNL     1     -10.882   5.483  71.578  1.00  0.00    -0.244 OA 
BRANCH  25  28
HETATM   28  C   UNL     1     -11.936   7.636  71.368  1.00  0.00    -0.336 A  
HETATM   29  C   UNL     1     -13.218   7.069  71.317  1.00  0.00    -0.304 A  
HETATM   30  C   UNL     1     -14.345   7.830  71.634  1.00  0.00    -0.607 A  
HETATM   31  C   UNL     1     -14.205   9.163  72.014  1.00  0.00    -0.319 A  
HETATM   32  C   UNL     1     -12.938   9.736  72.088  1.00  0.00    -0.483 A  
HETATM   33  C   UNL     1     -11.810   8.977  71.771  1.00  0.00    -0.442 A  
ENDBRANCH  25  28
ENDBRANCH  22  25
ENDBRANCH  10  21
TORSDOF 6
ENDMDL
MODEL       15
REMARK 921   NORMALIZED FREE ENERGY PREDICTED BY IDOCK:   -6.63 KCAL/MOL
REMARK 922        TOTAL FREE ENERGY PREDICTED BY IDOCK:  -10.00 KCAL/MOL
REMARK 923 INTER-LIGAND FREE ENERGY PREDICTED BY IDOCK:   -8.91 KCAL/MOL
REMARK 924 INTRA-LIGAND FREE ENERGY PREDICTED BY IDOCK:   -1.09 KCAL/MOL
REMARK 927      BINDING AFFINITY PREDICTED BY RF-SCORE:    0.00 PKD
ROOT
HETATM    1  C   UNL     1     -11.427  12.592  67.067  1.00  0.00    -0.346 C  
HETATM    2  S   UNL     1      -9.854  12.961  67.889  1.00  0.00    -0.233 SA 
HETATM    3  C   UNL     1     -10.279  14.695  68.155  1.00  0.00    -0.231 C  
HETATM    4  C   UNL     1     -10.807  15.418  66.921  1.00  0.00    -0.313 C  
HETATM    5  O   UNL     1     -12.511  14.978  63.706  1.00  0.00    -0.745 OA 
HETATM    6  CA  UNL     1     -11.349  14.778  65.840  1.00  0.00    -0.331 C  
HETATM    7  N   UNL     1     -11.538  13.424  65.882  1.00  0.00    -0.330 N  
HETATM    8  O   UNL     1     -12.088  12.466  63.843  1.00  0.00    -0.418 OA 
HETATM    9  C   UNL     1     -11.662  15.553  64.574  1.00  0.00    -0.253 C  
HETATM   10  CA  UNL     1     -11.409  11.351  66.112  1.00  0.00    -0.043 C  
HETATM   11  C   UNL     1     -11.780  12.412  65.014  1.00  0.00    -0.371 C  
HETATM   12  OXT UNL     1     -11.237  16.675  64.340  1.00  0.00    -1.033 OA 
ENDROOT
BRANCH   4  13
HETATM   13  C   UNL     1     -10.512  16.913  67.021  1.00  0.00    -0.281 C  
BRANCH  13  14
HETATM   14  S   UNL     1      -8.919  17.357  67.755  1.00  0.00    -0.240 SA 
BRANCH  14  15
HETATM   15  C   UNL     1      -8.124  18.270  66.541  1.00  0.00    -0.269 A  
HETATM   16  N   UNL     1      -7.093  17.921  65.809  1.00  0.00    -0.483 NA 
HETATM   17  C   UNL     1      -9.557  20.352  66.709  1.00  0.00    -0.371 C  
HETATM   18  N   UNL     1      -6.804  19.014  65.022  1.00  0.00    -0.447 NA 
HETATM   19  N   UNL     1      -7.650  20.007  65.265  1.00  0.00    -0.263 NA 
HETATM   20  N   UNL     1      -8.482  19.542  66.210  1.00  0.00    -0.346 NA 
ENDBRANCH  14  15
ENDBRANCH  13  14
ENDBRANCH   4  13
BRANCH  10  21
HETATM   21  N   UNL     1     -10.088  10.703  65.946  1.00  0.00    -0.251 N  
HETATM   22  C   UNL     1      -9.790   9.415  66.335  1.00  0.00    -0.269 C  
HETATM   23  O   UNL     1     -10.588   8.683  66.912  1.00  0.00    -0.287 OA 
HETATM   24  H   UNL     1      -9.344  11.250  65.512  1.00  0.00     0.000 HD 
BRANCH  22  25
HETATM   25  C   UNL     1      -8.357   8.994  65.941  1.00  0.00    -0.125 C  
HETATM   26  H   UNL     1      -7.273   7.349  66.011  1.00  0.00     0.000 HD 
HETATM   27  O   UNL     1      -8.154   7.608  66.253  1.00  0.00    -0.103 OA 
BRANCH  25  28
HETATM   28  C   UNL     1      -7.308   9.825  66.646  1.00  0.00    -0.094 A  
HETATM   29  C   UNL     1      -6.379  10.559  65.894  1.00  0.00    -0.128 A  
HETATM   30  C   UNL     1      -5.402  11.330  66.528  1.00  0.00    -0.131 A  
HETATM   31  C   UNL     1      -5.345  11.383  67.919  1.00  0.00    -0.044 A  
HETATM   32  C   UNL     1      -6.272  10.676  68.680  1.00  0.00    -0.046 A  
HETATM   33  C   UNL     1      -7.250   9.905  68.048  1.00  0.00    -0.083 A  
ENDBRANCH  25  28
ENDBRANCH  22  25
ENDBRANCH  10  21
TORSDOF 6
ENDMDL
MODEL       16
REMARK 921   NORMALIZED FREE ENERGY PREDICTED BY IDOCK:   -6.61 KCAL/MOL
REMARK 922        TOTAL FREE ENERGY PREDICTED BY IDOCK:   -9.98 KCAL/MOL
REMARK 923 INTER-LIGAND FREE ENERGY PREDICTED BY IDOCK:   -9.00 KCAL/MOL
REMARK 924 INTRA-LIGAND FREE ENERGY PREDICTED BY IDOCK:   -0.97 KCAL/MOL
REMARK 927      BINDING AFFINITY PREDICTED BY RF-SCORE:    0.00 PKD
ROOT
HETATM    1  C   UNL     1     -11.296  13.612  67.824  1.00  0.00    -0.306 C  
HETATM    2  S   UNL     1      -9.593  14.077  68.236  1.00  0.00    -0.226 SA 
HETATM    3  C   UNL     1      -9.902  15.838  67.983  1.00  0.00    -0.217 C  
HETATM    4  C   UNL     1     -10.605  16.179  66.675  1.00  0.00    -0.274 C  
HETATM    5  O   UNL     1     -12.850  14.905  64.073  1.00  0.00    -0.701 OA 
HETATM    6  CA  UNL     1     -11.348  15.284  65.956  1.00  0.00    -0.162 C  
HETATM    7  N   UNL     1     -11.577  14.034  66.464  1.00  0.00    -0.357 N  
HETATM    8  O   UNL     1     -12.503  12.537  64.956  1.00  0.00    -0.523 OA 
HETATM    9  C   UNL     1     -11.843  15.644  64.568  1.00  0.00    -0.172 C  
HETATM   10  CA  UNL     1     -11.487  12.137  67.334  1.00  0.00    -0.345 C  
HETATM   11  C   UNL     1     -12.002  12.826  66.020  1.00  0.00    -0.432 C  
HETATM   12  OXT UNL     1     -11.424  16.592  63.920  1.00  0.00    -1.186 OA 
ENDROOT
BRANCH   4  13
HETATM   13  C   UNL     1     -10.242  17.597  66.237  1.00  0.00    -0.362 C  
BRANCH  13  14
HETATM   14  S   UNL     1      -9.067  18.475  67.297  1.00  0.00    -0.281 SA 
BRANCH  14  15
HETATM   15  C   UNL     1      -7.683  18.704  66.311  1.00  0.00    -0.264 A  
HETATM   16  N   UNL     1      -7.202  17.901  65.393  1.00  0.00    -0.341 NA 
HETATM   17  C   UNL     1      -6.992  20.957  67.238  1.00  0.00    -0.376 C  
HETATM   18  N   UNL     1      -6.059  18.510  64.924  1.00  0.00    -0.351 NA 
HETATM   19  N   UNL     1      -5.854  19.667  65.541  1.00  0.00    -0.173 NA 
HETATM   20  N   UNL     1      -6.873  19.795  66.403  1.00  0.00    -0.205 NA 
ENDBRANCH  14  15
ENDBRANCH  13  14
ENDBRANCH   4  13
BRANCH  10  21
HETATM   21  N   UNL     1     -10.240  11.352  67.193  1.00  0.00    -0.198 N  
HETATM   22  C   UNL     1     -10.164   9.978  67.247  1.00  0.00    -0.222 C  
HETATM   23  O   UNL     1     -11.132   9.258  67.471  1.00  0.00    -0.101 OA 
HETATM   24  H   UNL     1      -9.371  11.868  67.046  1.00  0.00     0.000 HD 
BRANCH  22  25
HETATM   25  C   UNL     1      -8.739   9.452  66.969  1.00  0.00    -0.127 C  
HETATM   26  H   UNL     1      -6.922   9.801  67.648  1.00  0.00     0.000 HD 
HETATM   27  O   UNL     1      -7.798  10.125  67.819  1.00  0.00    -0.097 OA 
BRANCH  25  28
HETATM   28  C   UNL     1      -8.335   9.643  65.524  1.00  0.00    -0.143 A  
HETATM   29  C   UNL     1      -7.008   9.967  65.208  1.00  0.00    -0.132 A  
HETATM   30  C   UNL     1      -6.618  10.151  63.880  1.00  0.00    -0.117 A  
HETATM   31  C   UNL     1      -7.546  10.005  62.851  1.00  0.00    -0.135 A  
HETATM   32  C   UNL     1      -8.863   9.665  63.146  1.00  0.00    -0.254 A  
HETATM   33  C   UNL     1      -9.256   9.481  64.474  1.00  0.00    -0.223 A  
ENDBRANCH  25  28
ENDBRANCH  22  25
ENDBRANCH  10  21
TORSDOF 6
ENDMDL
MODEL       17
REMARK 921   NORMALIZED FREE ENERGY PREDICTED BY IDOCK:   -6.61 KCAL/MOL
REMARK 922        TOTAL FREE ENERGY PREDICTED BY IDOCK:   -9.97 KCAL/MOL
REMARK 923 INTER-LIGAND FREE ENERGY PREDICTED BY IDOCK:   -9.03 KCAL/MOL
REMARK 924 INTRA-LIGAND FREE ENERGY PREDICTED BY IDOCK:   -0.94 KCAL/MOL
REMARK 927      BINDING AFFINITY PREDICTED BY RF-SCORE:    0.00 PKD
ROOT
HETATM    1  C   UNL     1     -11.193  13.042  67.192  1.00  0.00    -0.286 C  
HETATM    2  S   UNL     1      -9.438  13.301  67.563  1.00  0.00    -0.229 SA 
HETATM    3  C   UNL     1      -9.625  15.090  67.713  1.00  0.00    -0.203 C  
HETATM    4  C   UNL     1     -10.378  15.750  66.563  1.00  0.00    -0.298 C  
HETATM    5  O   UNL     1     -12.866  15.210  63.926  1.00  0.00    -0.671 OA 
HETATM    6  CA  UNL     1     -11.229  15.079  65.728  1.00  0.00    -0.318 C  
HETATM    7  N   UNL     1     -11.522  13.766  65.976  1.00  0.00    -0.318 N  
HETATM    8  O   UNL     1     -12.649  12.690  64.259  1.00  0.00    -0.593 OA 
HETATM    9  C   UNL     1     -11.778  15.761  64.489  1.00  0.00    -0.191 C  
HETATM   10  CA  UNL     1     -11.526  11.723  66.416  1.00  0.00    -0.239 C  
HETATM   11  C   UNL     1     -12.064  12.711  65.320  1.00  0.00    -0.467 C  
HETATM   12  OXT UNL     1     -11.327  16.799  64.028  1.00  0.00    -1.153 OA 
ENDROOT
BRANCH   4  13
HETATM   13  C   UNL     1      -9.935  17.203  66.409  1.00  0.00    -0.306 C  
BRANCH  13  14
HETATM   14  S   UNL     1     -10.022  18.219  67.905  1.00  0.00    -0.365 SA 
BRANCH  14  15
HETATM   15  C   UNL     1      -8.752  19.357  67.729  1.00  0.00    -0.311 A  
HETATM   16  N   UNL     1      -8.785  20.521  67.127  1.00  0.00    -0.315 NA 
HETATM   17  C   UNL     1      -6.962  18.038  68.943  1.00  0.00    -0.260 C  
HETATM   18  N   UNL     1      -7.507  21.027  67.216  1.00  0.00    -0.378 NA 
HETATM   19  N   UNL     1      -6.713  20.188  67.868  1.00  0.00    -0.266 NA 
HETATM   20  N   UNL     1      -7.490  19.146  68.198  1.00  0.00    -0.272 NA 
ENDBRANCH  14  15
ENDBRANCH  13  14
ENDBRANCH   4  13
BRANCH  10  21
HETATM   21  N   UNL     1     -10.352  10.912  66.019  1.00  0.00    -0.249 N  
HETATM   22  C   UNL     1     -10.085   9.640  66.474  1.00  0.00    -0.244 C  
HETATM   23  O   UNL     1     -10.777   9.063  67.307  1.00  0.00    -0.269 OA 
HETATM   24  H   UNL     1      -9.693  11.326  65.359  1.00  0.00     0.000 HD 
BRANCH  22  25
HETATM   25  C   UNL     1      -8.839   9.020  65.804  1.00  0.00    -0.179 C  
HETATM   26  H   UNL     1      -8.126   7.209  65.494  1.00  0.00     0.000 HD 
HETATM   27  O   UNL     1      -8.893   7.589  65.906  1.00  0.00    -0.166 OA 
BRANCH  25  28
HETATM   28  C   UNL     1      -7.553   9.520  66.424  1.00  0.00    -0.097 A  
HETATM   29  C   UNL     1      -6.690  10.336  65.679  1.00  0.00    -0.122 A  
HETATM   30  C   UNL     1      -5.497  10.803  66.234  1.00  0.00    -0.101 A  
HETATM   31  C   UNL     1      -5.156  10.469  67.543  1.00  0.00    -0.036 A  
HETATM   32  C   UNL     1      -6.011   9.676  68.303  1.00  0.00    -0.047 A  
HETATM   33  C   UNL     1      -7.204   9.207  67.750  1.00  0.00    -0.080 A  
ENDBRANCH  25  28
ENDBRANCH  22  25
ENDBRANCH  10  21
TORSDOF 6
ENDMDL
MODEL       18
REMARK 921   NORMALIZED FREE ENERGY PREDICTED BY IDOCK:   -6.59 KCAL/MOL
REMARK 922        TOTAL FREE ENERGY PREDICTED BY IDOCK:   -9.94 KCAL/MOL
REMARK 923 INTER-LIGAND FREE ENERGY PREDICTED BY IDOCK:   -9.04 KCAL/MOL
REMARK 924 INTRA-LIGAND FREE ENERGY PREDICTED BY IDOCK:   -0.90 KCAL/MOL
REMARK 927      BINDING AFFINITY PREDICTED BY RF-SCORE:    0.00 PKD
ROOT
HETATM    1  C   UNL     1     -11.566  14.746  67.265  1.00  0.00    -0.369 C  
HETATM    2  S   UNL     1     -10.195  13.735  66.645  1.00  0.00    -0.282 SA 
HETATM    3  C   UNL     1     -11.059  12.182  66.961  1.00  0.00    -0.294 C  
HETATM    4  C   UNL     1     -11.667  12.064  68.353  1.00  0.00    -0.390 C  
HETATM    5  O   UNL     1     -12.986  13.953  71.204  1.00  0.00    -0.330 OA 
HETATM    6  CA  UNL     1     -11.957  13.138  69.149  1.00  0.00    -0.281 C  
HETATM    7  N   UNL     1     -11.802  14.405  68.656  1.00  0.00    -0.333 N  
HETATM    8  O   UNL     1     -11.956  16.082  70.249  1.00  0.00    -0.328 OA 
HETATM    9  C   UNL     1     -12.368  12.928  70.594  1.00  0.00    -0.302 C  
HETATM   10  CA  UNL     1     -11.172  16.181  67.753  1.00  0.00    -0.199 C  
HETATM   11  C   UNL     1     -11.724  15.671  69.133  1.00  0.00    -0.390 C  
HETATM   12  OXT UNL     1     -12.224  11.874  71.196  1.00  0.00    -0.262 OA 
ENDROOT
BRANCH   4  13
HETATM   13  C   UNL     1     -11.764  10.595  68.762  1.00  0.00    -0.188 C  
BRANCH  13  14
HETATM   14  S   UNL     1     -10.193   9.765  69.107  1.00  0.00    -0.212 SA 
BRANCH  14  15
HETATM   15  C   UNL     1     -10.638   8.170  69.554  1.00  0.00    -0.213 A  
HETATM   16  N   UNL     1     -10.681   7.099  68.799  1.00  0.00    -0.198 NA 
HETATM   17  C   UNL     1     -11.145   8.645  71.990  1.00  0.00    -0.367 C  
HETATM   18  N   UNL     1     -11.143   6.086  69.610  1.00  0.00    -0.400 NA 
HETATM   19  N   UNL     1     -11.368   6.532  70.839  1.00  0.00    -0.317 NA 
HETATM   20  N   UNL     1     -11.046   7.834  70.810  1.00  0.00    -0.254 NA 
ENDBRANCH  14  15
ENDBRANCH  13  14
ENDBRANCH   4  13
BRANCH  10  21
HETATM   21  N   UNL     1      -9.723  16.482  67.721  1.00  0.00    -0.233 N  
HETATM   22  C   UNL     1      -9.147  17.627  68.226  1.00  0.00    -0.276 C  
HETATM   23  O   UNL     1      -9.794  18.548  68.714  1.00  0.00    -0.369 OA 
HETATM   24  H   UNL     1      -9.106  15.791  67.294  1.00  0.00     0.000 HD 
BRANCH  22  25
HETATM   25  C   UNL     1      -7.606  17.606  68.130  1.00  0.00    -0.234 C  
HETATM   26  H   UNL     1      -6.094  17.317  69.361  1.00  0.00     0.000 HD 
HETATM   27  O   UNL     1      -7.042  17.330  69.421  1.00  0.00    -0.205 OA 
BRANCH  25  28
HETATM   28  C   UNL     1      -7.052  18.915  67.611  1.00  0.00    -0.230 A  
HETATM   29  C   UNL     1      -7.022  19.161  66.231  1.00  0.00    -0.247 A  
HETATM   30  C   UNL     1      -6.512  20.362  65.733  1.00  0.00    -0.269 A  
HETATM   31  C   UNL     1      -6.033  21.335  66.608  1.00  0.00    -0.370 A  
HETATM   32  C   UNL     1      -6.073  21.114  67.982  1.00  0.00    -0.373 A  
HETATM   33  C   UNL     1      -6.583  19.914  68.481  1.00  0.00    -0.324 A  
ENDBRANCH  25  28
ENDBRANCH  22  25
ENDBRANCH  10  21
TORSDOF 6
ENDMDL
MODEL       19
REMARK 921   NORMALIZED FREE ENERGY PREDICTED BY IDOCK:   -6.58 KCAL/MOL
REMARK 922        TOTAL FREE ENERGY PREDICTED BY IDOCK:   -9.93 KCAL/MOL
REMARK 923 INTER-LIGAND FREE ENERGY PREDICTED BY IDOCK:   -9.19 KCAL/MOL
REMARK 924 INTRA-LIGAND FREE ENERGY PREDICTED BY IDOCK:   -0.74 KCAL/MOL
REMARK 927      BINDING AFFINITY PREDICTED BY RF-SCORE:    0.00 PKD
ROOT
HETATM    1  C   UNL     1     -11.101  12.997  67.247  1.00  0.00    -0.273 C  
HETATM    2  S   UNL     1      -9.352  13.339  67.578  1.00  0.00    -0.228 SA 
HETATM    3  C   UNL     1      -9.608  15.124  67.661  1.00  0.00    -0.206 C  
HETATM    4  C   UNL     1     -10.405  15.708  66.501  1.00  0.00    -0.296 C  
HETATM    5  O   UNL     1     -12.910  14.969  63.929  1.00  0.00    -0.679 OA 
HETATM    6  CA  UNL     1     -11.241  14.972  65.707  1.00  0.00    -0.318 C  
HETATM    7  N   UNL     1     -11.478  13.659  66.010  1.00  0.00    -0.317 N  
HETATM    8  O   UNL     1     -12.588  12.474  64.355  1.00  0.00    -0.574 OA 
HETATM    9  C   UNL     1     -11.836  15.583  64.452  1.00  0.00    -0.219 C  
HETATM   10  CA  UNL     1     -11.393  11.636  66.528  1.00  0.00    -0.263 C  
HETATM   11  C   UNL     1     -11.987  12.559  65.404  1.00  0.00    -0.437 C  
HETATM   12  OXT UNL     1     -11.434  16.619  63.943  1.00  0.00    -1.186 OA 
ENDROOT
BRANCH   4  13
HETATM   13  C   UNL     1     -10.022  17.170  66.283  1.00  0.00    -0.304 C  
BRANCH  13  14
HETATM   14  S   UNL     1     -10.402  18.298  67.647  1.00  0.00    -0.409 SA 
BRANCH  14  15
HETATM   15  C   UNL     1      -9.083  19.393  67.683  1.00  0.00    -0.303 A  
HETATM   16  N   UNL     1      -9.042  20.626  67.240  1.00  0.00    -0.337 NA 
HETATM   17  C   UNL     1      -7.409  17.849  68.791  1.00  0.00    -0.270 C  
HETATM   18  N   UNL     1      -7.752  21.059  67.455  1.00  0.00    -0.296 NA 
HETATM   19  N   UNL     1      -7.024  20.108  68.025  1.00  0.00    -0.282 NA 
HETATM   20  N   UNL     1      -7.856  19.067  68.177  1.00  0.00    -0.289 NA 
ENDBRANCH  14  15
ENDBRANCH  13  14
ENDBRANCH   4  13
BRANCH  10  21
HETATM   21  N   UNL     1     -10.195  10.857  66.142  1.00  0.00    -0.242 N  
HETATM   22  C   UNL     1      -9.903   9.588  66.592  1.00  0.00    -0.231 C  
HETATM   23  O   UNL     1     -10.593   8.989  67.411  1.00  0.00    -0.275 OA 
HETATM   24  H   UNL     1      -9.537  11.292  65.495  1.00  0.00     0.000 HD 
BRANCH  22  25
HETATM   25  C   UNL     1      -8.634   9.004  65.935  1.00  0.00    -0.154 C  
HETATM   26  H   UNL     1      -8.046   8.535  64.113  1.00  0.00     0.000 HD 
HETATM   27  O   UNL     1      -8.827   8.894  64.517  1.00  0.00    -0.144 OA 
BRANCH  25  28
HETATM   28  C   UNL     1      -8.277   7.647  66.499  1.00  0.00    -0.125 A  
HETATM   29  C   UNL     1      -8.901   6.496  65.995  1.00  0.00    -0.154 A  
HETATM   30  C   UNL     1      -8.588   5.235  66.506  1.00  0.00    -0.112 A  
HETATM   31  C   UNL     1      -7.641   5.106  67.519  1.00  0.00    -0.088 A  
HETATM   32  C   UNL     1      -6.998   6.236  68.018  1.00  0.00    -0.080 A  
HETATM   33  C   UNL     1      -7.310   7.498  67.509  1.00  0.00    -0.102 A  
ENDBRANCH  25  28
ENDBRANCH  22  25
ENDBRANCH  10  21
TORSDOF 6
ENDMDL
MODEL       20
REMARK 921   NORMALIZED FREE ENERGY PREDICTED BY IDOCK:   -6.57 KCAL/MOL
REMARK 922        TOTAL FREE ENERGY PREDICTED BY IDOCK:   -9.92 KCAL/MOL
REMARK 923 INTER-LIGAND FREE ENERGY PREDICTED BY IDOCK:   -9.21 KCAL/MOL
REMARK 924 INTRA-LIGAND FREE ENERGY PREDICTED BY IDOCK:   -0.71 KCAL/MOL
REMARK 927      BINDING AFFINITY PREDICTED BY RF-SCORE:    0.00 PKD
ROOT
HETATM    1  C   UNL     1      -8.340   8.699  67.184  1.00  0.00    -0.107 C  
HETATM    2  S   UNL     1     -10.032   8.660  66.533  1.00  0.00    -0.255 SA 
HETATM    3  C   UNL     1      -9.811  10.176  65.578  1.00  0.00    -0.298 C  
HETATM    4  C   UNL     1      -9.205  11.337  66.357  1.00  0.00    -0.206 C  
HETATM    5  O   UNL     1      -7.079  12.233  69.205  1.00  0.00    -0.086 OA 
HETATM    6  CA  UNL     1      -8.473  11.183  67.502  1.00  0.00    -0.126 C  
HETATM    7  N   UNL     1      -8.163   9.925  67.941  1.00  0.00    -0.113 N  
HETATM    8  O   UNL     1      -7.273   9.845  70.081  1.00  0.00    -0.123 OA 
HETATM    9  C   UNL     1      -8.081  12.396  68.325  1.00  0.00    -0.166 C  
HETATM   10  CA  UNL     1      -8.121   7.919  68.524  1.00  0.00    -0.123 C  
HETATM   11  C   UNL     1      -7.718   9.334  69.077  1.00  0.00    -0.075 C  
HETATM   12  OXT UNL     1      -8.578  13.503  68.185  1.00  0.00    -0.161 OA 
ENDROOT
BRANCH   4  13
HETATM   13  C   UNL     1      -9.652  12.666  65.752  1.00  0.00    -0.110 C  
BRANCH  13  14
HETATM   14  S   UNL     1     -11.322  13.211  66.187  1.00  0.00    -0.324 SA 
BRANCH  14  15
HETATM   15  C   UNL     1     -11.589  14.600  65.216  1.00  0.00    -0.354 A  
HETATM   16  N   UNL     1     -12.449  14.751  64.238  1.00  0.00    -0.738 NA 
HETATM   17  C   UNL     1      -9.840  16.086  66.288  1.00  0.00    -0.308 C  
HETATM   18  N   UNL     1     -12.241  16.022  63.749  1.00  0.00    -0.676 NA 
HETATM   19  N   UNL     1     -11.278  16.635  64.424  1.00  0.00    -1.060 NA 
HETATM   20  N   UNL     1     -10.873  15.751  65.349  1.00  0.00    -0.370 NA 
ENDBRANCH  14  15
ENDBRANCH  13  14
ENDBRANCH   4  13
BRANCH  10  21
HETATM   21  N   UNL     1      -9.342   7.330  69.118  1.00  0.00    -0.146 N  
HETATM   22  C   UNL     1      -9.463   6.927  70.430  1.00  0.00    -0.169 C  
HETATM   23  O   UNL     1      -8.539   6.971  71.236  1.00  0.00    -0.119 OA 
HETATM   24  H   UNL     1     -10.154   7.214  68.511  1.00  0.00     0.000 HD 
BRANCH  22  25
HETATM   25  C   UNL     1     -10.889   6.443  70.772  1.00  0.00    -0.267 C  
HETATM   26  H   UNL     1     -12.339   5.478  69.847  1.00  0.00     0.000 HD 
HETATM   27  O   UNL     1     -11.462   5.776  69.637  1.00  0.00    -0.153 OA 
BRANCH  25  28
HETATM   28  C   UNL     1     -11.790   7.584  71.189  1.00  0.00    -0.324 A  
HETATM   29  C   UNL     1     -13.109   7.321  71.589  1.00  0.00    -0.417 A  
HETATM   30  C   UNL     1     -13.956   8.362  71.975  1.00  0.00    -0.468 A  
HETATM   31  C   UNL     1     -13.495   9.677  71.974  1.00  0.00    -0.514 A  
HETATM   32  C   UNL     1     -12.183   9.953  71.598  1.00  0.00    -0.482 A  
HETATM   33  C   UNL     1     -11.334   8.914  71.212  1.00  0.00    -0.371 A  
ENDBRANCH  25  28
ENDBRANCH  22  25
ENDBRANCH  10  21
TORSDOF 6
ENDMDL
MODEL       21
REMARK 921   NORMALIZED FREE ENERGY PREDICTED BY IDOCK:   -6.54 KCAL/MOL
REMARK 922        TOTAL FREE ENERGY PREDICTED BY IDOCK:   -9.88 KCAL/MOL
REMARK 923 INTER-LIGAND FREE ENERGY PREDICTED BY IDOCK:   -8.63 KCAL/MOL
REMARK 924 INTRA-LIGAND FREE ENERGY PREDICTED BY IDOCK:   -1.25 KCAL/MOL
REMARK 927      BINDING AFFINITY PREDICTED BY RF-SCORE:    0.00 PKD
ROOT
HETATM    1  C   UNL     1      -7.664  15.026  67.195  1.00  0.00    -0.167 C  
HETATM    2  S   UNL     1      -8.781  16.168  66.337  1.00  0.00    -0.342 SA 
HETATM    3  C   UNL     1      -7.466  17.352  65.981  1.00  0.00    -0.220 C  
HETATM    4  C   UNL     1      -6.599  17.720  67.179  1.00  0.00    -0.191 C  
HETATM    5  O   UNL     1      -5.362  16.569  70.432  1.00  0.00    -0.182 OA 
HETATM    6  CA  UNL     1      -6.482  16.943  68.299  1.00  0.00    -0.142 C  
HETATM    7  N   UNL     1      -7.083  15.714  68.334  1.00  0.00    -0.112 N  
HETATM    8  O   UNL     1      -7.117  14.718  70.427  1.00  0.00     0.009 OA 
HETATM    9  C   UNL     1      -5.764  17.475  69.525  1.00  0.00    -0.222 C  
HETATM   10  CA  UNL     1      -8.351  14.058  68.216  1.00  0.00    -0.162 C  
HETATM   11  C   UNL     1      -7.428  14.785  69.258  1.00  0.00    -0.162 C  
HETATM   12  OXT UNL     1      -5.485  18.653  69.693  1.00  0.00    -0.200 OA 
ENDROOT
BRANCH   4  13
HETATM   13  C   UNL     1      -6.011  19.117  66.995  1.00  0.00    -0.166 C  
BRANCH  13  14
HETATM   14  S   UNL     1      -7.207  20.447  66.713  1.00  0.00    -0.272 SA 
BRANCH  14  15
HETATM   15  C   UNL     1      -8.580  19.994  67.635  1.00  0.00    -0.326 A  
HETATM   16  N   UNL     1      -8.655  19.783  68.926  1.00  0.00    -0.185 NA 
HETATM   17  C   UNL     1     -10.235  19.885  65.720  1.00  0.00    -0.386 C  
HETATM   18  N   UNL     1      -9.955  19.398  69.169  1.00  0.00    -0.412 NA 
HETATM   19  N   UNL     1     -10.660  19.384  68.046  1.00  0.00    -0.387 NA 
HETATM   20  N   UNL     1      -9.805  19.764  67.084  1.00  0.00    -0.360 NA 
ENDBRANCH  14  15
ENDBRANCH  13  14
ENDBRANCH   4  13
BRANCH  10  21
HETATM   21  N   UNL     1      -9.805  14.266  68.402  1.00  0.00    -0.228 N  
HETATM   22  C   UNL     1     -10.712  13.270  68.689  1.00  0.00    -0.259 C  
HETATM   23  O   UNL     1     -10.408  12.085  68.770  1.00  0.00    -0.218 OA 
HETATM   24  H   UNL     1     -10.162  15.218  68.311  1.00  0.00     0.000 HD 
BRANCH  22  25
HETATM   25  C   UNL     1     -12.139  13.816  68.920  1.00  0.00    -0.313 C  
HETATM   26  H   UNL     1     -13.260  15.260  68.183  1.00  0.00     0.000 HD 
HETATM   27  O   UNL     1     -12.383  14.924  68.040  1.00  0.00    -0.060 OA 
BRANCH  25  28
HETATM   28  C   UNL     1     -12.352  14.256  70.351  1.00  0.00    -0.419 A  
HETATM   29  C   UNL     1     -13.084  13.443  71.229  1.00  0.00    -0.317 A  
HETATM   30  C   UNL     1     -13.294  13.834  72.553  1.00  0.00    -0.656 A  
HETATM   31  C   UNL     1     -12.770  15.037  73.019  1.00  0.00    -0.560 A  
HETATM   32  C   UNL     1     -12.025  15.848  72.166  1.00  0.00    -0.612 A  
HETATM   33  C   UNL     1     -11.814  15.459  70.842  1.00  0.00    -0.400 A  
ENDBRANCH  25  28
ENDBRANCH  22  25
ENDBRANCH  10  21
TORSDOF 6
ENDMDL
MODEL       22
REMARK 921   NORMALIZED FREE ENERGY PREDICTED BY IDOCK:   -6.53 KCAL/MOL
REMARK 922        TOTAL FREE ENERGY PREDICTED BY IDOCK:   -9.86 KCAL/MOL
REMARK 923 INTER-LIGAND FREE ENERGY PREDICTED BY IDOCK:   -8.77 KCAL/MOL
REMARK 924 INTRA-LIGAND FREE ENERGY PREDICTED BY IDOCK:   -1.09 KCAL/MOL
REMARK 927      BINDING AFFINITY PREDICTED BY RF-SCORE:    0.00 PKD
ROOT
HETATM    1  C   UNL     1     -10.561  11.420  67.185  1.00  0.00    -0.243 C  
HETATM    2  S   UNL     1     -11.518  11.165  68.703  1.00  0.00    -0.320 SA 
HETATM    3  C   UNL     1     -11.796  12.931  68.951  1.00  0.00    -0.309 C  
HETATM    4  C   UNL     1     -10.543  13.793  68.847  1.00  0.00    -0.224 C  
HETATM    5  O   UNL     1      -7.190  14.019  67.385  1.00  0.00    -0.178 OA 
HETATM    6  CA  UNL     1      -9.405  13.403  68.196  1.00  0.00    -0.217 C  
HETATM    7  N   UNL     1      -9.394  12.224  67.502  1.00  0.00    -0.178 N  
HETATM    8  O   UNL     1      -7.293  11.537  66.805  1.00  0.00    -0.141 OA 
HETATM    9  C   UNL     1      -8.139  14.230  68.312  1.00  0.00    -0.143 C  
HETATM   10  CA  UNL     1      -9.577  10.261  66.810  1.00  0.00    -0.172 C  
HETATM   11  C   UNL     1      -8.482  11.376  66.967  1.00  0.00    -0.159 C  
HETATM   12  OXT UNL     1      -7.971  15.103  69.151  1.00  0.00    -0.176 OA 
ENDROOT
BRANCH   4  13
HETATM   13  C   UNL     1     -10.708  15.062  69.680  1.00  0.00    -0.257 C  
BRANCH  13  14
HETATM   14  S   UNL     1     -12.408  15.509  70.113  1.00  0.00    -0.291 SA 
BRANCH  14  15
HETATM   15  C   UNL     1     -12.426  15.525  71.828  1.00  0.00    -0.403 A  
HETATM   16  N   UNL     1     -11.960  16.448  72.634  1.00  0.00    -0.549 NA 
HETATM   17  C   UNL     1     -13.570  13.290  72.162  1.00  0.00    -0.562 C  
HETATM   18  N   UNL     1     -12.170  15.973  73.910  1.00  0.00    -0.518 NA 
HETATM   19  N   UNL     1     -12.761  14.786  73.879  1.00  0.00    -0.469 NA 
HETATM   20  N   UNL     1     -12.930  14.506  72.578  1.00  0.00    -0.387 NA 
ENDBRANCH  14  15
ENDBRANCH  13  14
ENDBRANCH   4  13
BRANCH  10  21
HETATM   21  N   UNL     1      -9.502   9.155  67.793  1.00  0.00    -0.139 N  
HETATM   22  C   UNL     1     -10.077   7.915  67.626  1.00  0.00    -0.203 C  
HETATM   23  O   UNL     1     -10.763   7.615  66.653  1.00  0.00    -0.239 OA 
HETATM   24  H   UNL     1      -8.987   9.325  68.657  1.00  0.00     0.000 HD 
BRANCH  22  25
HETATM   25  C   UNL     1      -9.741   6.946  68.781  1.00  0.00    -0.137 C  
HETATM   26  H   UNL     1      -9.840   5.004  69.101  1.00  0.00     0.000 HD 
HETATM   27  O   UNL     1     -10.046   5.599  68.390  1.00  0.00    -0.149 OA 
BRANCH  25  28
HETATM   28  C   UNL     1     -10.501   7.286  70.044  1.00  0.00    -0.234 A  
HETATM   29  C   UNL     1     -11.809   6.812  70.220  1.00  0.00    -0.359 A  
HETATM   30  C   UNL     1     -12.528   7.118  71.378  1.00  0.00    -0.427 A  
HETATM   31  C   UNL     1     -11.945   7.894  72.378  1.00  0.00    -0.373 A  
HETATM   32  C   UNL     1     -10.641   8.356  72.227  1.00  0.00    -0.412 A  
HETATM   33  C   UNL     1      -9.921   8.052  71.070  1.00  0.00    -0.208 A  
ENDBRANCH  25  28
ENDBRANCH  22  25
ENDBRANCH  10  21
TORSDOF 6
ENDMDL
MODEL       23
REMARK 921   NORMALIZED FREE ENERGY PREDICTED BY IDOCK:   -6.52 KCAL/MOL
REMARK 922        TOTAL FREE ENERGY PREDICTED BY IDOCK:   -9.85 KCAL/MOL
REMARK 923 INTER-LIGAND FREE ENERGY PREDICTED BY IDOCK:   -9.73 KCAL/MOL
REMARK 924 INTRA-LIGAND FREE ENERGY PREDICTED BY IDOCK:   -0.12 KCAL/MOL
REMARK 927      BINDING AFFINITY PREDICTED BY RF-SCORE:    0.00 PKD
ROOT
HETATM    1  C   UNL     1     -10.401  14.070  66.992  1.00  0.00    -0.267 C  
HETATM    2  S   UNL     1      -9.853  12.674  68.010  1.00  0.00    -0.221 SA 
HETATM    3  C   UNL     1      -8.912  11.925  66.664  1.00  0.00    -0.198 C  
HETATM    4  C   UNL     1      -9.674  11.798  65.350  1.00  0.00    -0.242 C  
HETATM    5  O   UNL     1     -12.402  13.186  63.335  1.00  0.00    -0.705 OA 
HETATM    6  CA  UNL     1     -10.770  12.551  65.031  1.00  0.00    -0.294 C  
HETATM    7  N   UNL     1     -11.168  13.554  65.871  1.00  0.00    -0.299 N  
HETATM    8  O   UNL     1     -13.247  14.453  65.381  1.00  0.00    -0.607 OA 
HETATM    9  C   UNL     1     -11.588  12.222  63.796  1.00  0.00    -0.471 C  
HETATM   10  CA  UNL     1     -11.712  14.778  67.476  1.00  0.00    -0.348 C  
HETATM   11  C   UNL     1     -12.263  14.325  66.076  1.00  0.00    -0.404 C  
HETATM   12  OXT UNL     1     -11.497  11.171  63.180  1.00  0.00     0.065 OA 
ENDROOT
BRANCH   4  13
HETATM   13  C   UNL     1      -9.120  10.633  64.532  1.00  0.00    -0.217 C  
BRANCH  13  14
HETATM   14  S   UNL     1      -8.046   9.480  65.425  1.00  0.00    -0.131 SA 
BRANCH  14  15
HETATM   15  C   UNL     1      -9.124   8.358  66.146  1.00  0.00    -0.189 A  
HETATM   16  N   UNL     1     -10.240   8.604  66.787  1.00  0.00    -0.290 NA 
HETATM   17  C   UNL     1      -7.837   6.254  65.566  1.00  0.00    -0.101 C  
HETATM   18  N   UNL     1     -10.706   7.380  67.213  1.00  0.00    -0.316 NA 
HETATM   19  N   UNL     1      -9.891   6.406  66.830  1.00  0.00    -0.158 NA 
HETATM   20  N   UNL     1      -8.904   7.013  66.155  1.00  0.00    -0.150 NA 
ENDBRANCH  14  15
ENDBRANCH  13  14
ENDBRANCH   4  13
BRANCH  10  21
HETATM   21  N   UNL     1     -12.369  14.156  68.648  1.00  0.00    -0.543 N  
HETATM   22  C   UNL     1     -12.037  14.408  69.961  1.00  0.00    -0.343 C  
HETATM   23  O   UNL     1     -11.116  15.147  70.293  1.00  0.00    -0.250 OA 
HETATM   24  H   UNL     1     -13.122  13.491  68.470  1.00  0.00     0.000 HD 
BRANCH  22  25
HETATM   25  C   UNL     1     -12.966  13.681  70.957  1.00  0.00    -0.232 C  
HETATM   26  H   UNL     1     -13.413  13.823  72.871  1.00  0.00     0.000 HD 
HETATM   27  O   UNL     1     -12.841  14.271  72.259  1.00  0.00    -0.336 OA 
BRANCH  25  28
HETATM   28  C   UNL     1     -12.657  12.203  71.045  1.00  0.00    -0.359 A  
HETATM   29  C   UNL     1     -13.360  11.395  71.950  1.00  0.00    -0.409 A  
HETATM   30  C   UNL     1     -13.086  10.029  72.048  1.00  0.00    -0.541 A  
HETATM   31  C   UNL     1     -12.112   9.452  71.236  1.00  0.00    -0.424 A  
HETATM   32  C   UNL     1     -11.417  10.236  70.318  1.00  0.00    -0.395 A  
HETATM   33  C   UNL     1     -11.690  11.601  70.220  1.00  0.00    -0.355 A  
ENDBRANCH  25  28
ENDBRANCH  22  25
ENDBRANCH  10  21
TORSDOF 6
ENDMDL
MODEL       24
REMARK 921   NORMALIZED FREE ENERGY PREDICTED BY IDOCK:   -6.49 KCAL/MOL
REMARK 922        TOTAL FREE ENERGY PREDICTED BY IDOCK:   -9.81 KCAL/MOL
REMARK 923 INTER-LIGAND FREE ENERGY PREDICTED BY IDOCK:   -9.15 KCAL/MOL
REMARK 924 INTRA-LIGAND FREE ENERGY PREDICTED BY IDOCK:   -0.66 KCAL/MOL
REMARK 927      BINDING AFFINITY PREDICTED BY RF-SCORE:    0.00 PKD
ROOT
HETATM    1  C   UNL     1      -8.832   9.060  71.140  1.00  0.00    -0.215 C  
HETATM    2  S   UNL     1      -8.047   8.615  69.568  1.00  0.00    -0.112 SA 
HETATM    3  C   UNL     1      -8.276  10.262  68.867  1.00  0.00    -0.130 C  
HETATM    4  C   UNL     1      -9.686  10.824  69.008  1.00  0.00    -0.201 C  
HETATM    5  O   UNL     1     -12.762  10.701  70.996  1.00  0.00    -0.354 OA 
HETATM    6  CA  UNL     1     -10.588  10.388  69.939  1.00  0.00    -0.251 C  
HETATM    7  N   UNL     1     -10.200   9.471  70.877  1.00  0.00    -0.300 N  
HETATM    8  O   UNL     1     -11.939   8.558  72.108  1.00  0.00    -0.336 OA 
HETATM    9  C   UNL     1     -12.030  10.853  69.880  1.00  0.00    -0.353 C  
HETATM   10  CA  UNL     1      -9.420   7.861  71.958  1.00  0.00    -0.174 C  
HETATM   11  C   UNL     1     -10.780   8.623  71.761  1.00  0.00    -0.321 C  
HETATM   12  OXT UNL     1     -12.529  11.405  68.910  1.00  0.00    -0.386 OA 
ENDROOT
BRANCH   4  13
HETATM   13  C   UNL     1      -9.969  11.822  67.886  1.00  0.00    -0.181 C  
BRANCH  13  14
HETATM   14  S   UNL     1      -9.828  11.177  66.201  1.00  0.00    -0.235 SA 
BRANCH  14  15
HETATM   15  C   UNL     1     -11.165  11.854  65.367  1.00  0.00    -0.295 A  
HETATM   16  N   UNL     1     -12.249  12.390  65.874  1.00  0.00    -0.632 NA 
HETATM   17  C   UNL     1     -10.323  11.440  63.014  1.00  0.00    -0.219 C  
HETATM   18  N   UNL     1     -13.034  12.738  64.797  1.00  0.00    -0.844 NA 
HETATM   19  N   UNL     1     -12.434  12.428  63.656  1.00  0.00    -0.684 NA 
HETATM   20  N   UNL     1     -11.260  11.881  64.008  1.00  0.00    -0.368 NA 
ENDBRANCH  14  15
ENDBRANCH  13  14
ENDBRANCH   4  13
BRANCH  10  21
HETATM   21  N   UNL     1      -9.331   6.541  71.294  1.00  0.00    -0.156 N  
HETATM   22  C   UNL     1     -10.124   5.454  71.593  1.00  0.00    -0.203 C  
HETATM   23  O   UNL     1     -10.962   5.458  72.489  1.00  0.00    -0.237 OA 
HETATM   24  H   UNL     1      -8.631   6.427  70.560  1.00  0.00     0.000 HD 
BRANCH  22  25
HETATM   25  C   UNL     1      -9.856   4.251  70.662  1.00  0.00    -0.195 C  
HETATM   26  H   UNL     1      -8.360   3.020  70.302  1.00  0.00     0.000 HD 
HETATM   27  O   UNL     1      -8.524   3.759  70.875  1.00  0.00    -0.069 OA 
BRANCH  25  28
HETATM   28  C   UNL     1     -10.030   4.613  69.204  1.00  0.00    -0.208 A  
HETATM   29  C   UNL     1      -9.499   3.778  68.210  1.00  0.00    -0.215 A  
HETATM   30  C   UNL     1      -9.646   4.097  66.859  1.00  0.00    -0.232 A  
HETATM   31  C   UNL     1     -10.333   5.250  66.483  1.00  0.00    -0.332 A  
HETATM   32  C   UNL     1     -10.883   6.080  67.457  1.00  0.00    -0.393 A  
HETATM   33  C   UNL     1     -10.736   5.762  68.808  1.00  0.00    -0.318 A  
ENDBRANCH  25  28
ENDBRANCH  22  25
ENDBRANCH  10  21
TORSDOF 6
ENDMDL
MODEL       25
REMARK 921   NORMALIZED FREE ENERGY PREDICTED BY IDOCK:   -6.47 KCAL/MOL
REMARK 922        TOTAL FREE ENERGY PREDICTED BY IDOCK:   -9.78 KCAL/MOL
REMARK 923 INTER-LIGAND FREE ENERGY PREDICTED BY IDOCK:   -8.94 KCAL/MOL
REMARK 924 INTRA-LIGAND FREE ENERGY PREDICTED BY IDOCK:   -0.84 KCAL/MOL
REMARK 927      BINDING AFFINITY PREDICTED BY RF-SCORE:    0.00 PKD
ROOT
HETATM    1  C   UNL     1     -10.642  10.814  67.329  1.00  0.00    -0.257 C  
HETATM    2  S   UNL     1     -11.619  11.431  68.726  1.00  0.00    -0.336 SA 
HETATM    3  C   UNL     1     -11.324  13.161  68.304  1.00  0.00    -0.297 C  
HETATM    4  C   UNL     1      -9.864  13.512  68.040  1.00  0.00    -0.238 C  
HETATM    5  O   UNL     1      -6.622  12.181  66.968  1.00  0.00    -0.147 OA 
HETATM    6  CA  UNL     1      -8.912  12.592  67.696  1.00  0.00    -0.186 C  
HETATM    7  N   UNL     1      -9.279  11.294  67.468  1.00  0.00    -0.157 N  
HETATM    8  O   UNL     1      -7.506   9.810  67.291  1.00  0.00    -0.087 OA 
HETATM    9  C   UNL     1      -7.449  12.989  67.651  1.00  0.00    -0.156 C  
HETATM   10  CA  UNL     1     -10.077   9.363  67.497  1.00  0.00    -0.215 C  
HETATM   11  C   UNL     1      -8.685  10.080  67.369  1.00  0.00    -0.125 C  
HETATM   12  OXT UNL     1      -7.007  14.018  68.142  1.00  0.00    -0.092 OA 
ENDROOT
BRANCH   4  13
HETATM   13  C   UNL     1      -9.614  14.986  68.349  1.00  0.00    -0.212 C  
BRANCH  13  14
HETATM   14  S   UNL     1     -10.477  16.174  67.291  1.00  0.00    -0.305 SA 
BRANCH  14  15
HETATM   15  C   UNL     1      -9.226  17.108  66.581  1.00  0.00    -0.260 A  
HETATM   16  N   UNL     1      -8.024  16.720  66.232  1.00  0.00    -0.317 NA 
HETATM   17  C   UNL     1     -10.474  19.310  66.495  1.00  0.00    -0.462 C  
HETATM   18  N   UNL     1      -7.389  17.846  65.757  1.00  0.00    -0.534 NA 
HETATM   19  N   UNL     1      -8.194  18.898  65.808  1.00  0.00    -0.410 NA 
HETATM   20  N   UNL     1      -9.348  18.439  66.315  1.00  0.00    -0.454 NA 
ENDBRANCH  14  15
ENDBRANCH  13  14
ENDBRANCH   4  13
BRANCH  10  21
HETATM   21  N   UNL     1     -10.346   8.729  68.807  1.00  0.00    -0.214 N  
HETATM   22  C   UNL     1     -10.660   7.400  68.988  1.00  0.00    -0.192 C  
HETATM   23  O   UNL     1     -10.801   6.609  68.061  1.00  0.00    -0.248 OA 
HETATM   24  H   UNL     1     -10.294   9.319  69.638  1.00  0.00     0.000 HD 
BRANCH  22  25
HETATM   25  C   UNL     1     -10.789   7.019  70.479  1.00  0.00    -0.251 C  
HETATM   26  H   UNL     1     -10.928   5.358  71.531  1.00  0.00     0.000 HD 
HETATM   27  O   UNL     1     -10.849   5.591  70.613  1.00  0.00    -0.258 OA 
BRANCH  25  28
HETATM   28  C   UNL     1     -12.015   7.634  71.117  1.00  0.00    -0.319 A  
HETATM   29  C   UNL     1     -11.934   8.907  71.701  1.00  0.00    -0.415 A  
HETATM   30  C   UNL     1     -13.054   9.489  72.297  1.00  0.00    -0.492 A  
HETATM   31  C   UNL     1     -14.272   8.811  72.310  1.00  0.00    -0.498 A  
HETATM   32  C   UNL     1     -14.374   7.555  71.718  1.00  0.00    -0.588 A  
HETATM   33  C   UNL     1     -13.255   6.971  71.122  1.00  0.00    -0.223 A  
ENDBRANCH  25  28
ENDBRANCH  22  25
ENDBRANCH  10  21
TORSDOF 6
ENDMDL
MODEL       26
REMARK 921   NORMALIZED FREE ENERGY PREDICTED BY IDOCK:   -6.46 KCAL/MOL
REMARK 922        TOTAL FREE ENERGY PREDICTED BY IDOCK:   -9.77 KCAL/MOL
REMARK 923 INTER-LIGAND FREE ENERGY PREDICTED BY IDOCK:   -9.04 KCAL/MOL
REMARK 924 INTRA-LIGAND FREE ENERGY PREDICTED BY IDOCK:   -0.73 KCAL/MOL
REMARK 927      BINDING AFFINITY PREDICTED BY RF-SCORE:    0.00 PKD
ROOT
HETATM    1  C   UNL     1      -9.049   9.335  67.972  1.00  0.00    -0.127 C  
HETATM    2  S   UNL     1     -10.779   9.713  68.358  1.00  0.00    -0.178 SA 
HETATM    3  C   UNL     1     -10.805  11.177  67.303  1.00  0.00    -0.274 C  
HETATM    4  C   UNL     1      -9.637  12.134  67.514  1.00  0.00    -0.179 C  
HETATM    5  O   UNL     1      -6.159  12.395  68.640  1.00  0.00    -0.060 OA 
HETATM    6  CA  UNL     1      -8.447  11.767  68.081  1.00  0.00    -0.158 C  
HETATM    7  N   UNL     1      -8.224  10.454  68.393  1.00  0.00    -0.110 N  
HETATM    8  O   UNL     1      -6.343  10.080  69.695  1.00  0.00    -0.044 OA 
HETATM    9  C   UNL     1      -7.417  12.821  68.441  1.00  0.00    -0.124 C  
HETATM   10  CA  UNL     1      -8.299   8.468  69.040  1.00  0.00    -0.118 C  
HETATM   11  C   UNL     1      -7.366   9.728  69.149  1.00  0.00    -0.079 C  
HETATM   12  OXT UNL     1      -7.657  14.018  68.493  1.00  0.00    -0.118 OA 
ENDROOT
BRANCH   4  13
HETATM   13  C   UNL     1     -10.046  13.555  67.132  1.00  0.00    -0.245 C  
BRANCH  13  14
HETATM   14  S   UNL     1     -11.826  13.871  67.052  1.00  0.00    -0.426 SA 
BRANCH  14  15
HETATM   15  C   UNL     1     -12.243  13.580  65.415  1.00  0.00    -0.447 A  
HETATM   16  N   UNL     1     -12.742  12.489  64.887  1.00  0.00    -0.754 NA 
HETATM   17  C   UNL     1     -11.571  15.845  64.502  1.00  0.00    -0.232 C  
HETATM   18  N   UNL     1     -12.853  12.741  63.538  1.00  0.00    -0.664 NA 
HETATM   19  N   UNL     1     -12.436  13.967  63.251  1.00  0.00    -0.731 NA 
HETATM   20  N   UNL     1     -12.062  14.499  64.425  1.00  0.00    -0.486 NA 
ENDBRANCH  14  15
ENDBRANCH  13  14
ENDBRANCH   4  13
BRANCH  10  21
HETATM   21  N   UNL     1      -9.081   8.150  70.256  1.00  0.00    -0.149 N  
HETATM   22  C   UNL     1      -9.779   6.979  70.458  1.00  0.00    -0.176 C  
HETATM   23  O   UNL     1      -9.864   6.092  69.615  1.00  0.00    -0.154 OA 
HETATM   24  H   UNL     1      -9.105   8.849  70.999  1.00  0.00     0.000 HD 
BRANCH  22  25
HETATM   25  C   UNL     1     -10.413   6.904  71.864  1.00  0.00    -0.201 C  
HETATM   26  H   UNL     1     -10.897   5.488  73.147  1.00  0.00     0.000 HD 
HETATM   27  O   UNL     1     -10.507   5.534  72.282  1.00  0.00    -0.202 OA 
BRANCH  25  28
HETATM   28  C   UNL     1     -11.788   7.534  71.900  1.00  0.00    -0.331 A  
HETATM   29  C   UNL     1     -12.928   6.728  71.764  1.00  0.00    -0.274 A  
HETATM   30  C   UNL     1     -14.205   7.292  71.791  1.00  0.00    -0.526 A  
HETATM   31  C   UNL     1     -14.360   8.666  71.963  1.00  0.00    -0.512 A  
HETATM   32  C   UNL     1     -13.239   9.478  72.119  1.00  0.00    -0.539 A  
HETATM   33  C   UNL     1     -11.962   8.916  72.092  1.00  0.00    -0.419 A  
ENDBRANCH  25  28
ENDBRANCH  22  25
ENDBRANCH  10  21
TORSDOF 6
ENDMDL
MODEL       27
REMARK 921   NORMALIZED FREE ENERGY PREDICTED BY IDOCK:   -6.44 KCAL/MOL
REMARK 922        TOTAL FREE ENERGY PREDICTED BY IDOCK:   -9.74 KCAL/MOL
REMARK 923 INTER-LIGAND FREE ENERGY PREDICTED BY IDOCK:   -9.20 KCAL/MOL
REMARK 924 INTRA-LIGAND FREE ENERGY PREDICTED BY IDOCK:   -0.54 KCAL/MOL
REMARK 927      BINDING AFFINITY PREDICTED BY RF-SCORE:    0.00 PKD
ROOT
HETATM    1  C   UNL     1     -10.366  11.437  66.739  1.00  0.00    -0.234 C  
HETATM    2  S   UNL     1     -11.847  12.482  66.731  1.00  0.00    -0.270 SA 
HETATM    3  C   UNL     1     -11.094  13.722  65.657  1.00  0.00    -0.295 C  
HETATM    4  C   UNL     1      -9.707  14.182  66.091  1.00  0.00    -0.310 C  
HETATM    5  O   UNL     1      -6.689  13.226  67.938  1.00  0.00    -0.108 OA 
HETATM    6  CA  UNL     1      -8.889  13.456  66.913  1.00  0.00    -0.176 C  
HETATM    7  N   UNL     1      -9.264  12.198  67.299  1.00  0.00    -0.180 N  
HETATM    8  O   UNL     1      -7.965  11.283  68.988  1.00  0.00    -0.132 OA 
HETATM    9  C   UNL     1      -7.615  14.073  67.459  1.00  0.00    -0.180 C  
HETATM   10  CA  UNL     1     -10.234  10.472  67.966  1.00  0.00    -0.166 C  
HETATM   11  C   UNL     1      -8.921  11.288  68.243  1.00  0.00    -0.172 C  
HETATM   12  OXT UNL     1      -7.370  15.270  67.428  1.00  0.00    -0.183 OA 
ENDROOT
BRANCH   4  13
HETATM   13  C   UNL     1      -9.443  15.601  65.593  1.00  0.00    -0.237 C  
BRANCH  13  14
HETATM   14  S   UNL     1     -10.900  16.661  65.417  1.00  0.00    -0.057 SA 
BRANCH  14  15
HETATM   15  C   UNL     1     -10.479  18.113  66.225  1.00  0.00    -0.361 A  
HETATM   16  N   UNL     1     -10.215  19.285  65.701  1.00  0.00    -0.466 NA 
HETATM   17  C   UNL     1     -10.538  17.199  68.587  1.00  0.00    -0.352 C  
HETATM   18  N   UNL     1      -9.886  20.104  66.758  1.00  0.00    -0.431 NA 
HETATM   19  N   UNL     1      -9.957  19.444  67.906  1.00  0.00    -0.355 NA 
HETATM   20  N   UNL     1     -10.335  18.199  67.577  1.00  0.00    -0.375 NA 
ENDBRANCH  14  15
ENDBRANCH  13  14
ENDBRANCH   4  13
BRANCH  10  21
HETATM   21  N   UNL     1     -11.294  10.608  68.992  1.00  0.00    -0.263 N  
HETATM   22  C   UNL     1     -11.151  10.269  70.319  1.00  0.00    -0.319 C  
HETATM   23  O   UNL     1     -10.132   9.764  70.780  1.00  0.00    -0.261 OA 
HETATM   24  H   UNL     1     -12.196  10.981  68.693  1.00  0.00     0.000 HD 
BRANCH  22  25
HETATM   25  C   UNL     1     -12.401  10.617  71.157  1.00  0.00    -0.400 C  
HETATM   26  H   UNL     1     -14.323  10.179  71.119  1.00  0.00     0.000 HD 
HETATM   27  O   UNL     1     -13.554   9.965  70.603  1.00  0.00    -0.183 OA 
BRANCH  25  28
HETATM   28  C   UNL     1     -12.648  12.108  71.215  1.00  0.00    -0.341 A  
HETATM   29  C   UNL     1     -13.514  12.634  72.184  1.00  0.00    -0.561 A  
HETATM   30  C   UNL     1     -13.757  14.008  72.250  1.00  0.00    -0.646 A  
HETATM   31  C   UNL     1     -13.131  14.873  71.355  1.00  0.00    -0.441 A  
HETATM   32  C   UNL     1     -12.253  14.369  70.399  1.00  0.00    -0.404 A  
HETATM   33  C   UNL     1     -12.010  12.996  70.331  1.00  0.00    -0.337 A  
ENDBRANCH  25  28
ENDBRANCH  22  25
ENDBRANCH  10  21
TORSDOF 6
ENDMDL
MODEL       28
REMARK 921   NORMALIZED FREE ENERGY PREDICTED BY IDOCK:   -6.40 KCAL/MOL
REMARK 922        TOTAL FREE ENERGY PREDICTED BY IDOCK:   -9.68 KCAL/MOL
REMARK 923 INTER-LIGAND FREE ENERGY PREDICTED BY IDOCK:   -8.76 KCAL/MOL
REMARK 924 INTRA-LIGAND FREE ENERGY PREDICTED BY IDOCK:   -0.92 KCAL/MOL
REMARK 927      BINDING AFFINITY PREDICTED BY RF-SCORE:    0.00 PKD
ROOT
HETATM    1  C   UNL     1     -11.564  11.617  67.711  1.00  0.00    -0.289 C  
HETATM    2  S   UNL     1      -9.886  11.290  67.108  1.00  0.00    -0.192 SA 
HETATM    3  C   UNL     1      -9.951   9.544  67.559  1.00  0.00    -0.186 C  
HETATM    4  C   UNL     1     -10.434   9.270  68.978  1.00  0.00    -0.233 C  
HETATM    5  O   UNL     1     -12.455  10.572  71.745  1.00  0.00    -0.373 OA 
HETATM    6  CA  UNL     1     -11.177  10.155  69.711  1.00  0.00    -0.272 C  
HETATM    7  N   UNL     1     -11.614  11.314  69.130  1.00  0.00    -0.288 N  
HETATM    8  O   UNL     1     -12.505  12.858  70.613  1.00  0.00    -0.323 OA 
HETATM    9  C   UNL     1     -11.443   9.893  71.182  1.00  0.00    -0.383 C  
HETATM   10  CA  UNL     1     -11.860  13.108  68.088  1.00  0.00    -0.348 C  
HETATM   11  C   UNL     1     -12.116  12.511  69.519  1.00  0.00    -0.187 C  
HETATM   12  OXT UNL     1     -10.835   9.067  71.847  1.00  0.00    -0.350 OA 
ENDROOT
BRANCH   4  13
HETATM   13  C   UNL     1      -9.855   7.952  69.486  1.00  0.00    -0.176 C  
BRANCH  13  14
HETATM   14  S   UNL     1     -10.984   6.537  69.480  1.00  0.00    -0.364 SA 
BRANCH  14  15
HETATM   15  C   UNL     1     -10.673   5.744  67.992  1.00  0.00    -0.209 A  
HETATM   16  N   UNL     1     -11.112   6.060  66.798  1.00  0.00    -0.236 NA 
HETATM   17  C   UNL     1      -9.202   3.898  68.910  1.00  0.00    -0.152 C  
HETATM   18  N   UNL     1     -10.624   5.091  65.949  1.00  0.00    -0.236 NA 
HETATM   19  N   UNL     1      -9.894   4.206  66.615  1.00  0.00    -0.216 NA 
HETATM   20  N   UNL     1      -9.916   4.616  67.892  1.00  0.00    -0.116 NA 
ENDBRANCH  14  15
ENDBRANCH  13  14
ENDBRANCH   4  13
BRANCH  10  21
HETATM   21  N   UNL     1     -10.705  14.028  67.981  1.00  0.00    -0.242 N  
HETATM   22  C   UNL     1     -10.721  15.357  68.344  1.00  0.00    -0.256 C  
HETATM   23  O   UNL     1     -11.726  15.932  68.751  1.00  0.00    -0.387 OA 
HETATM   24  H   UNL     1      -9.832  13.650  67.612  1.00  0.00     0.000 HD 
BRANCH  22  25
HETATM   25  C   UNL     1      -9.336  16.025  68.205  1.00  0.00    -0.199 C  
HETATM   26  H   UNL     1      -7.783  16.369  69.370  1.00  0.00     0.000 HD 
HETATM   27  O   UNL     1      -8.635  15.957  69.456  1.00  0.00    -0.237 OA 
BRANCH  25  28
HETATM   28  C   UNL     1      -9.445  17.470  67.770  1.00  0.00    -0.269 A  
HETATM   29  C   UNL     1      -9.099  18.495  68.662  1.00  0.00    -0.325 A  
HETATM   30  C   UNL     1      -9.197  19.835  68.279  1.00  0.00    -0.388 A  
HETATM   31  C   UNL     1      -9.633  20.166  66.999  1.00  0.00    -0.558 A  
HETATM   32  C   UNL     1      -9.963  19.160  66.094  1.00  0.00    -0.441 A  
HETATM   33  C   UNL     1      -9.866  17.820  66.475  1.00  0.00    -0.331 A  
ENDBRANCH  25  28
ENDBRANCH  22  25
ENDBRANCH  10  21
TORSDOF 6
ENDMDL
MODEL       29
REMARK 921   NORMALIZED FREE ENERGY PREDICTED BY IDOCK:   -6.34 KCAL/MOL
REMARK 922        TOTAL FREE ENERGY PREDICTED BY IDOCK:   -9.60 KCAL/MOL
REMARK 923 INTER-LIGAND FREE ENERGY PREDICTED BY IDOCK:   -8.59 KCAL/MOL
REMARK 924 INTRA-LIGAND FREE ENERGY PREDICTED BY IDOCK:   -1.01 KCAL/MOL
REMARK 927      BINDING AFFINITY PREDICTED BY RF-SCORE:    0.00 PKD
ROOT
HETATM    1  C   UNL     1     -10.157  14.833  67.518  1.00  0.00    -0.224 C  
HETATM    2  S   UNL     1     -10.601  15.705  69.044  1.00  0.00    -0.251 SA 
HETATM    3  C   UNL     1      -9.215  16.854  68.916  1.00  0.00    -0.229 C  
HETATM    4  C   UNL     1      -7.866  16.196  68.649  1.00  0.00    -0.188 C  
HETATM    5  O   UNL     1      -6.209  13.260  67.214  1.00  0.00    -0.309 OA 
HETATM    6  CA  UNL     1      -7.722  14.949  68.108  1.00  0.00    -0.115 C  
HETATM    7  N   UNL     1      -8.828  14.270  67.674  1.00  0.00    -0.185 N  
HETATM    8  O   UNL     1      -8.449  12.041  67.160  1.00  0.00    -0.166 OA 
HETATM    9  C   UNL     1      -6.358  14.288  68.065  1.00  0.00    -0.153 C  
HETATM   10  CA  UNL     1     -10.693  13.366  67.404  1.00  0.00    -0.262 C  
HETATM   11  C   UNL     1      -9.166  13.001  67.338  1.00  0.00    -0.208 C  
HETATM   12  OXT UNL     1      -5.392  14.677  68.705  1.00  0.00    -0.084 OA 
ENDROOT
BRANCH   4  13
HETATM   13  C   UNL     1      -6.739  17.069  69.198  1.00  0.00    -0.241 C  
BRANCH  13  14
HETATM   14  S   UNL     1      -6.762  18.805  68.688  1.00  0.00    -0.276 SA 
BRANCH  14  15
HETATM   15  C   UNL     1      -6.453  18.763  67.001  1.00  0.00    -0.187 A  
HETATM   16  N   UNL     1      -5.338  18.446  66.390  1.00  0.00    -0.138 NA 
HETATM   17  C   UNL     1      -8.752  19.497  66.231  1.00  0.00    -0.359 C  
HETATM   18  N   UNL     1      -5.585  18.613  65.046  1.00  0.00    -0.213 NA 
HETATM   19  N   UNL     1      -6.832  19.017  64.843  1.00  0.00    -0.380 NA 
HETATM   20  N   UNL     1      -7.381  19.104  66.064  1.00  0.00    -0.270 NA 
ENDBRANCH  14  15
ENDBRANCH  13  14
ENDBRANCH   4  13
BRANCH  10  21
HETATM   21  N   UNL     1     -11.415  12.864  68.596  1.00  0.00    -0.285 N  
HETATM   22  C   UNL     1     -11.886  11.579  68.746  1.00  0.00    -0.330 C  
HETATM   23  O   UNL     1     -11.798  10.722  67.872  1.00  0.00    -0.553 OA 
HETATM   24  H   UNL     1     -11.575  13.519  69.362  1.00  0.00     0.000 HD 
BRANCH  22  25
HETATM   25  C   UNL     1     -12.510  11.336  70.138  1.00  0.00    -0.221 C  
HETATM   26  H   UNL     1     -12.796  12.379  71.785  1.00  0.00     0.000 HD 
HETATM   27  O   UNL     1     -12.412  12.529  70.930  1.00  0.00    -0.365 OA 
BRANCH  25  28
HETATM   28  C   UNL     1     -11.840  10.193  70.868  1.00  0.00    -0.468 A  
HETATM   29  C   UNL     1     -12.581   9.407  71.762  1.00  0.00    -0.470 A  
HETATM   30  C   UNL     1     -11.978   8.350  72.447  1.00  0.00    -0.451 A  
HETATM   31  C   UNL     1     -10.631   8.060  72.242  1.00  0.00    -0.356 A  
HETATM   32  C   UNL     1      -9.886   8.819  71.344  1.00  0.00    -0.353 A  
HETATM   33  C   UNL     1     -10.486   9.877  70.657  1.00  0.00    -0.301 A  
ENDBRANCH  25  28
ENDBRANCH  22  25
ENDBRANCH  10  21
TORSDOF 6
ENDMDL
MODEL       30
REMARK 921   NORMALIZED FREE ENERGY PREDICTED BY IDOCK:   -6.30 KCAL/MOL
REMARK 922        TOTAL FREE ENERGY PREDICTED BY IDOCK:   -9.55 KCAL/MOL
REMARK 923 INTER-LIGAND FREE ENERGY PREDICTED BY IDOCK:   -8.44 KCAL/MOL
REMARK 924 INTRA-LIGAND FREE ENERGY PREDICTED BY IDOCK:   -1.11 KCAL/MOL
REMARK 927      BINDING AFFINITY PREDICTED BY RF-SCORE:    0.00 PKD
ROOT
HETATM    1  C   UNL     1      -9.278  11.377  66.414  1.00  0.00    -0.197 C  
HETATM    2  S   UNL     1      -7.647  11.672  67.149  1.00  0.00    -0.156 SA 
HETATM    3  C   UNL     1      -7.768  10.246  68.248  1.00  0.00    -0.092 C  
HETATM    4  C   UNL     1      -9.072  10.155  69.032  1.00  0.00    -0.176 C  
HETATM    5  O   UNL     1     -12.614  11.095  69.051  1.00  0.00    -0.370 OA 
HETATM    6  CA  UNL     1     -10.229  10.781  68.657  1.00  0.00    -0.185 C  
HETATM    7  N   UNL     1     -10.280  11.448  67.463  1.00  0.00    -0.182 N  
HETATM    8  O   UNL     1     -12.164  12.767  67.177  1.00  0.00    -0.404 OA 
HETATM    9  C   UNL     1     -11.421  10.807  69.595  1.00  0.00    -0.305 C  
HETATM   10  CA  UNL     1      -9.960  12.632  65.772  1.00  0.00    -0.256 C  
HETATM   11  C   UNL     1     -11.070  12.363  66.851  1.00  0.00    -0.287 C  
HETATM   12  OXT UNL     1     -11.359  10.523  70.782  1.00  0.00    -0.327 OA 
ENDROOT
BRANCH   4  13
HETATM   13  C   UNL     1      -8.849   9.393  70.337  1.00  0.00    -0.249 C  
BRANCH  13  14
HETATM   14  S   UNL     1      -8.295   7.679  70.167  1.00  0.00    -0.131 SA 
BRANCH  14  15
HETATM   15  C   UNL     1      -9.274   7.030  68.918  1.00  0.00    -0.136 A  
HETATM   16  N   UNL     1      -8.928   6.731  67.689  1.00  0.00    -0.116 NA 
HETATM   17  C   UNL     1     -11.436   6.907  70.231  1.00  0.00    -0.323 C  
HETATM   18  N   UNL     1     -10.078   6.292  67.071  1.00  0.00    -0.159 NA 
HETATM   19  N   UNL     1     -11.103   6.316  67.912  1.00  0.00    -0.327 NA 
HETATM   20  N   UNL     1     -10.603   6.770  69.071  1.00  0.00    -0.216 NA 
ENDBRANCH  14  15
ENDBRANCH  13  14
ENDBRANCH   4  13
BRANCH  10  21
HETATM   21  N   UNL     1      -9.217  13.903  65.929  1.00  0.00    -0.489 N  
HETATM   22  C   UNL     1      -9.755  15.157  65.740  1.00  0.00    -0.344 C  
HETATM   23  O   UNL     1     -10.908  15.346  65.366  1.00  0.00    -0.346 OA 
HETATM   24  H   UNL     1      -8.234  13.846  66.197  1.00  0.00     0.000 HD 
BRANCH  22  25
HETATM   25  C   UNL     1      -8.756  16.287  66.073  1.00  0.00    -0.250 C  
HETATM   26  H   UNL     1      -7.106  16.478  67.134  1.00  0.00     0.000 HD 
HETATM   27  O   UNL     1      -7.720  15.783  66.930  1.00  0.00    -0.220 OA 
BRANCH  25  28
HETATM   28  C   UNL     1      -9.432  17.463  66.742  1.00  0.00    -0.282 A  
HETATM   29  C   UNL     1     -10.012  18.471  65.959  1.00  0.00    -0.239 A  
HETATM   30  C   UNL     1     -10.638  19.567  66.559  1.00  0.00    -0.579 A  
HETATM   31  C   UNL     1     -10.699  19.663  67.947  1.00  0.00    -0.403 A  
HETATM   32  C   UNL     1     -10.145  18.661  68.739  1.00  0.00    -0.398 A  
HETATM   33  C   UNL     1      -9.519  17.566  68.141  1.00  0.00    -0.291 A  
ENDBRANCH  25  28
ENDBRANCH  22  25
ENDBRANCH  10  21
TORSDOF 6
ENDMDL
MODEL       31
REMARK 921   NORMALIZED FREE ENERGY PREDICTED BY IDOCK:   -6.28 KCAL/MOL
REMARK 922        TOTAL FREE ENERGY PREDICTED BY IDOCK:   -9.52 KCAL/MOL
REMARK 923 INTER-LIGAND FREE ENERGY PREDICTED BY IDOCK:   -8.20 KCAL/MOL
REMARK 924 INTRA-LIGAND FREE ENERGY PREDICTED BY IDOCK:   -1.32 KCAL/MOL
REMARK 927      BINDING AFFINITY PREDICTED BY RF-SCORE:    0.00 PKD
ROOT
HETATM    1  C   UNL     1      -8.980   9.919  67.966  1.00  0.00    -0.121 C  
HETATM    2  S   UNL     1     -10.757  10.230  68.150  1.00  0.00    -0.264 SA 
HETATM    3  C   UNL     1     -10.800  11.401  66.776  1.00  0.00    -0.286 C  
HETATM    4  C   UNL     1      -9.719  12.475  66.820  1.00  0.00    -0.234 C  
HETATM    5  O   UNL     1      -6.362  13.280  68.051  1.00  0.00    -0.096 OA 
HETATM    6  CA  UNL     1      -8.554  12.351  67.527  1.00  0.00    -0.177 C  
HETATM    7  N   UNL     1      -8.268  11.170  68.155  1.00  0.00    -0.124 N  
HETATM    8  O   UNL     1      -6.470  11.268  69.615  1.00  0.00    -0.104 OA 
HETATM    9  C   UNL     1      -7.627  13.542  67.684  1.00  0.00    -0.177 C  
HETATM   10  CA  UNL     1      -8.257   9.391  69.250  1.00  0.00    -0.111 C  
HETATM   11  C   UNL     1      -7.422  10.714  69.111  1.00  0.00    -0.123 C  
HETATM   12  OXT UNL     1      -7.951  14.694  67.436  1.00  0.00    -0.176 OA 
ENDROOT
BRANCH   4  13
HETATM   13  C   UNL     1     -10.193  13.728  66.088  1.00  0.00    -0.301 C  
BRANCH  13  14
HETATM   14  S   UNL     1     -11.778  14.411  66.634  1.00  0.00    -0.385 SA 
BRANCH  14  15
HETATM   15  C   UNL     1     -11.401  15.294  68.055  1.00  0.00    -0.338 A  
HETATM   16  N   UNL     1     -10.957  16.524  68.151  1.00  0.00    -0.351 NA 
HETATM   17  C   UNL     1     -11.960  13.473  69.725  1.00  0.00    -0.340 C  
HETATM   18  N   UNL     1     -10.765  16.749  69.496  1.00  0.00    -0.324 NA 
HETATM   19  N   UNL     1     -11.095  15.678  70.206  1.00  0.00    -0.316 NA 
HETATM   20  N   UNL     1     -11.501  14.768  69.308  1.00  0.00    -0.279 NA 
ENDBRANCH  14  15
ENDBRANCH  13  14
ENDBRANCH   4  13
BRANCH  10  21
HETATM   21  N   UNL     1      -9.106   9.300  70.460  1.00  0.00    -0.242 N  
HETATM   22  C   UNL     1      -9.337   8.145  71.174  1.00  0.00    -0.154 C  
HETATM   23  O   UNL     1      -8.897   7.049  70.843  1.00  0.00    -0.146 OA 
HETATM   24  H   UNL     1      -9.552  10.157  70.790  1.00  0.00     0.000 HD 
BRANCH  22  25
HETATM   25  C   UNL     1     -10.186   8.391  72.440  1.00  0.00    -0.329 C  
HETATM   26  H   UNL     1     -10.288   7.656  74.266  1.00  0.00     0.000 HD 
HETATM   27  O   UNL     1      -9.766   7.504  73.488  1.00  0.00    -0.261 OA 
BRANCH  25  28
HETATM   28  C   UNL     1     -11.663   8.195  72.179  1.00  0.00    -0.418 A  
HETATM   29  C   UNL     1     -12.137   6.942  71.764  1.00  0.00    -0.385 A  
HETATM   30  C   UNL     1     -13.497   6.743  71.515  1.00  0.00    -0.180 A  
HETATM   31  C   UNL     1     -14.401   7.790  71.686  1.00  0.00    -0.607 A  
HETATM   32  C   UNL     1     -13.949   9.035  72.117  1.00  0.00    -0.499 A  
HETATM   33  C   UNL     1     -12.590   9.236  72.366  1.00  0.00    -0.348 A  
ENDBRANCH  25  28
ENDBRANCH  22  25
ENDBRANCH  10  21
TORSDOF 6
ENDMDL
MODEL       32
REMARK 921   NORMALIZED FREE ENERGY PREDICTED BY IDOCK:   -6.27 KCAL/MOL
REMARK 922        TOTAL FREE ENERGY PREDICTED BY IDOCK:   -9.51 KCAL/MOL
REMARK 923 INTER-LIGAND FREE ENERGY PREDICTED BY IDOCK:   -8.62 KCAL/MOL
REMARK 924 INTRA-LIGAND FREE ENERGY PREDICTED BY IDOCK:   -0.89 KCAL/MOL
REMARK 927      BINDING AFFINITY PREDICTED BY RF-SCORE:    0.00 PKD
ROOT
HETATM    1  C   UNL     1      -9.470  10.026  69.717  1.00  0.00    -0.207 C  
HETATM    2  S   UNL     1     -10.822   9.929  70.921  1.00  0.00    -0.198 SA 
HETATM    3  C   UNL     1     -10.730   8.131  71.037  1.00  0.00    -0.217 C  
HETATM    4  C   UNL     1     -10.706   7.407  69.696  1.00  0.00    -0.245 C  
HETATM    5  O   UNL     1      -9.827   7.719  66.152  1.00  0.00    -0.096 OA 
HETATM    6  CA  UNL     1     -10.332   7.998  68.521  1.00  0.00    -0.199 C  
HETATM    7  N   UNL     1      -9.850   9.278  68.532  1.00  0.00    -0.154 N  
HETATM    8  O   UNL     1      -9.645  10.248  66.437  1.00  0.00    -0.171 OA 
HETATM    9  C   UNL     1     -10.531   7.270  67.204  1.00  0.00    -0.324 C  
HETATM   10  CA  UNL     1      -9.463  11.311  68.821  1.00  0.00    -0.139 C  
HETATM   11  C   UNL     1      -9.624  10.279  67.647  1.00  0.00    -0.152 C  
HETATM   12  OXT UNL     1     -11.234   6.279  67.073  1.00  0.00    -0.336 OA 
ENDROOT
BRANCH   4  13
HETATM   13  C   UNL     1     -11.283   6.000  69.847  1.00  0.00    -0.368 C  
BRANCH  13  14
HETATM   14  S   UNL     1     -10.129   4.730  70.423  1.00  0.00    -0.194 SA 
BRANCH  14  15
HETATM   15  C   UNL     1     -10.218   4.809  72.133  1.00  0.00    -0.195 A  
HETATM   16  N   UNL     1     -11.269   5.049  72.879  1.00  0.00    -0.279 NA 
HETATM   17  C   UNL     1      -7.773   4.347  72.607  1.00  0.00    -0.085 C  
HETATM   18  N   UNL     1     -10.813   5.054  74.179  1.00  0.00    -0.314 NA 
HETATM   19  N   UNL     1      -9.510   4.812  74.223  1.00  0.00    -0.121 NA 
HETATM   20  N   UNL     1      -9.135   4.650  72.945  1.00  0.00    -0.121 NA 
ENDBRANCH  14  15
ENDBRANCH  13  14
ENDBRANCH   4  13
BRANCH  10  21
HETATM   21  N   UNL     1     -10.608  12.227  69.023  1.00  0.00    -0.409 N  
HETATM   22  C   UNL     1     -10.552  13.597  68.890  1.00  0.00    -0.190 C  
HETATM   23  O   UNL     1      -9.519  14.208  68.637  1.00  0.00    -0.207 OA 
HETATM   24  H   UNL     1     -11.505  11.813  69.279  1.00  0.00     0.000 HD 
BRANCH  22  25
HETATM   25  C   UNL     1     -11.933  14.266  69.069  1.00  0.00    -0.325 C  
HETATM   26  H   UNL     1     -12.858  15.859  68.368  1.00  0.00     0.000 HD 
HETATM   27  O   UNL     1     -12.009  15.448  68.258  1.00  0.00    -0.283 OA 
BRANCH  25  28
HETATM   28  C   UNL     1     -12.202  14.631  70.512  1.00  0.00    -0.389 A  
HETATM   29  C   UNL     1     -13.061  13.834  71.284  1.00  0.00    -0.370 A  
HETATM   30  C   UNL     1     -13.325  14.157  72.616  1.00  0.00    -0.638 A  
HETATM   31  C   UNL     1     -12.728  15.274  73.197  1.00  0.00    -0.586 A  
HETATM   32  C   UNL     1     -11.858  16.064  72.451  1.00  0.00    -0.639 A  
HETATM   33  C   UNL     1     -11.593  15.743  71.118  1.00  0.00    -0.469 A  
ENDBRANCH  25  28
ENDBRANCH  22  25
ENDBRANCH  10  21
TORSDOF 6
ENDMDL
MODEL       33
REMARK 921   NORMALIZED FREE ENERGY PREDICTED BY IDOCK:   -6.21 KCAL/MOL
REMARK 922        TOTAL FREE ENERGY PREDICTED BY IDOCK:   -9.42 KCAL/MOL
REMARK 923 INTER-LIGAND FREE ENERGY PREDICTED BY IDOCK:   -8.51 KCAL/MOL
REMARK 924 INTRA-LIGAND FREE ENERGY PREDICTED BY IDOCK:   -0.91 KCAL/MOL
REMARK 927      BINDING AFFINITY PREDICTED BY RF-SCORE:    0.00 PKD
ROOT
HETATM    1  C   UNL     1     -10.864  11.051  67.730  1.00  0.00    -0.249 C  
HETATM    2  S   UNL     1      -9.121  10.987  67.236  1.00  0.00    -0.138 SA 
HETATM    3  C   UNL     1      -8.918   9.281  67.789  1.00  0.00    -0.126 C  
HETATM    4  C   UNL     1      -9.435   9.002  69.195  1.00  0.00    -0.153 C  
HETATM    5  O   UNL     1     -11.813  10.077  71.769  1.00  0.00    -0.323 OA 
HETATM    6  CA  UNL     1     -10.360   9.782  69.833  1.00  0.00    -0.254 C  
HETATM    7  N   UNL     1     -10.950  10.817  69.161  1.00  0.00    -0.225 N  
HETATM    8  O   UNL     1     -12.178  12.258  70.498  1.00  0.00    -0.360 OA 
HETATM    9  C   UNL     1     -10.667   9.554  71.302  1.00  0.00    -0.316 C  
HETATM   10  CA  UNL     1     -11.431  12.486  68.000  1.00  0.00    -0.317 C  
HETATM   11  C   UNL     1     -11.669  11.928  69.449  1.00  0.00    -0.339 C  
HETATM   12  OXT UNL     1      -9.971   8.880  72.046  1.00  0.00    -0.329 OA 
ENDROOT
BRANCH   4  13
HETATM   13  C   UNL     1      -8.673   7.831  69.812  1.00  0.00    -0.139 C  
BRANCH  13  14
HETATM   14  S   UNL     1      -9.335   6.183  69.459  1.00  0.00    -0.137 SA 
BRANCH  14  15
HETATM   15  C   UNL     1      -9.743   5.543  70.997  1.00  0.00    -0.175 A  
HETATM   16  N   UNL     1      -9.011   4.791  71.781  1.00  0.00    -0.129 NA 
HETATM   17  C   UNL     1     -12.083   6.504  71.138  1.00  0.00    -0.258 C  
HETATM   18  N   UNL     1      -9.802   4.503  72.871  1.00  0.00    -0.140 NA 
HETATM   19  N   UNL     1     -10.992   5.078  72.755  1.00  0.00    -0.246 NA 
HETATM   20  N   UNL     1     -10.956   5.737  71.587  1.00  0.00    -0.260 NA 
ENDBRANCH  14  15
ENDBRANCH  13  14
ENDBRANCH   4  13
BRANCH  10  21
HETATM   21  N   UNL     1     -10.443  13.584  67.897  1.00  0.00    -0.245 N  
HETATM   22  C   UNL     1     -10.672  14.886  68.284  1.00  0.00    -0.249 C  
HETATM   23  O   UNL     1     -11.751  15.283  68.711  1.00  0.00    -0.340 OA 
HETATM   24  H   UNL     1      -9.525  13.360  67.511  1.00  0.00     0.000 HD 
BRANCH  22  25
HETATM   25  C   UNL     1      -9.417  15.775  68.142  1.00  0.00    -0.199 C  
HETATM   26  H   UNL     1      -7.924  16.347  69.295  1.00  0.00     0.000 HD 
HETATM   27  O   UNL     1      -8.696  15.801  69.383  1.00  0.00    -0.252 OA 
BRANCH  25  28
HETATM   28  C   UNL     1      -9.767  17.190  67.737  1.00  0.00    -0.271 A  
HETATM   29  C   UNL     1      -9.676  18.227  68.676  1.00  0.00    -0.379 A  
HETATM   30  C   UNL     1      -9.999  19.539  68.322  1.00  0.00    -0.533 A  
HETATM   31  C   UNL     1     -10.408  19.832  67.022  1.00  0.00    -0.593 A  
HETATM   32  C   UNL     1     -10.484  18.817  66.072  1.00  0.00    -0.483 A  
HETATM   33  C   UNL     1     -10.163  17.505  66.425  1.00  0.00    -0.354 A  
ENDBRANCH  25  28
ENDBRANCH  22  25
ENDBRANCH  10  21
TORSDOF 6
ENDMDL
MODEL       34
REMARK 921   NORMALIZED FREE ENERGY PREDICTED BY IDOCK:   -6.20 KCAL/MOL
REMARK 922        TOTAL FREE ENERGY PREDICTED BY IDOCK:   -9.41 KCAL/MOL
REMARK 923 INTER-LIGAND FREE ENERGY PREDICTED BY IDOCK:   -8.24 KCAL/MOL
REMARK 924 INTRA-LIGAND FREE ENERGY PREDICTED BY IDOCK:   -1.17 KCAL/MOL
REMARK 927      BINDING AFFINITY PREDICTED BY RF-SCORE:    0.00 PKD
ROOT
HETATM    1  C   UNL     1      -9.302  13.878  66.198  1.00  0.00    -0.098 C  
HETATM    2  S   UNL     1      -7.973  14.396  67.317  1.00  0.00    -0.131 SA 
HETATM    3  C   UNL     1      -7.502  12.699  67.713  1.00  0.00    -0.131 C  
HETATM    4  C   UNL     1      -8.663  11.791  68.102  1.00  0.00    -0.168 C  
HETATM    5  O   UNL     1     -12.267  11.233  67.739  1.00  0.00    -0.504 OA 
HETATM    6  CA  UNL     1      -9.966  12.038  67.768  1.00  0.00    -0.195 C  
HETATM    7  N   UNL     1     -10.265  13.095  66.953  1.00  0.00    -0.243 N  
HETATM    8  O   UNL     1     -12.524  13.598  66.817  1.00  0.00    -0.341 OA 
HETATM    9  C   UNL     1     -11.079  11.198  68.365  1.00  0.00    -0.247 C  
HETATM   10  CA  UNL     1     -10.437  14.933  65.974  1.00  0.00    -0.316 C  
HETATM   11  C   UNL     1     -11.353  13.820  66.598  1.00  0.00    -0.328 C  
HETATM   12  OXT UNL     1     -10.933  10.460  69.328  1.00  0.00    -0.213 OA 
ENDROOT
BRANCH   4  13
HETATM   13  C   UNL     1      -8.171  10.671  69.017  1.00  0.00    -0.151 C  
BRANCH  13  14
HETATM   14  S   UNL     1      -7.501   9.209  68.186  1.00  0.00    -0.084 SA 
BRANCH  14  15
HETATM   15  C   UNL     1      -8.868   8.218  67.886  1.00  0.00    -0.138 A  
HETATM   16  N   UNL     1      -9.595   8.150  66.797  1.00  0.00    -0.199 NA 
HETATM   17  C   UNL     1      -8.939   7.069  70.142  1.00  0.00    -0.145 C  
HETATM   18  N   UNL     1     -10.599   7.248  67.072  1.00  0.00    -0.335 NA 
HETATM   19  N   UNL     1     -10.478   6.770  68.303  1.00  0.00    -0.190 NA 
HETATM   20  N   UNL     1      -9.391   7.368  68.813  1.00  0.00    -0.144 NA 
ENDBRANCH  14  15
ENDBRANCH  13  14
ENDBRANCH   4  13
BRANCH  10  21
HETATM   21  N   UNL     1     -10.312  16.174  66.772  1.00  0.00    -0.287 N  
HETATM   22  C   UNL     1     -10.519  17.446  66.287  1.00  0.00    -0.276 C  
HETATM   23  O   UNL     1     -10.783  17.684  65.112  1.00  0.00    -0.658 OA 
HETATM   24  H   UNL     1     -10.053  16.079  67.755  1.00  0.00     0.000 HD 
BRANCH  22  25
HETATM   25  C   UNL     1     -10.407  18.525  67.386  1.00  0.00    -0.400 C  
HETATM   26  H   UNL     1     -11.212  20.286  67.757  1.00  0.00     0.000 HD 
HETATM   27  O   UNL     1     -11.281  19.623  67.081  1.00  0.00    -0.326 OA 
BRANCH  25  28
HETATM   28  C   UNL     1      -8.992  19.038  67.535  1.00  0.00    -0.322 A  
HETATM   29  C   UNL     1      -8.263  18.745  68.697  1.00  0.00    -0.363 A  
HETATM   30  C   UNL     1      -6.957  19.212  68.854  1.00  0.00    -0.371 A  
HETATM   31  C   UNL     1      -6.359  19.971  67.849  1.00  0.00    -0.269 A  
HETATM   32  C   UNL     1      -7.063  20.254  66.681  1.00  0.00    -0.296 A  
HETATM   33  C   UNL     1      -8.369  19.788  66.523  1.00  0.00    -0.373 A  
ENDBRANCH  25  28
ENDBRANCH  22  25
ENDBRANCH  10  21
TORSDOF 6
ENDMDL
MODEL       35
REMARK 921   NORMALIZED FREE ENERGY PREDICTED BY IDOCK:   -6.18 KCAL/MOL
REMARK 922        TOTAL FREE ENERGY PREDICTED BY IDOCK:   -9.39 KCAL/MOL
REMARK 923 INTER-LIGAND FREE ENERGY PREDICTED BY IDOCK:   -8.52 KCAL/MOL
REMARK 924 INTRA-LIGAND FREE ENERGY PREDICTED BY IDOCK:   -0.86 KCAL/MOL
REMARK 927      BINDING AFFINITY PREDICTED BY RF-SCORE:    0.00 PKD
ROOT
HETATM    1  C   UNL     1     -10.798  11.193  66.887  1.00  0.00    -0.279 C  
HETATM    2  S   UNL     1     -11.594  12.457  67.914  1.00  0.00    -0.364 SA 
HETATM    3  C   UNL     1     -10.721  13.814  67.105  1.00  0.00    -0.281 C  
HETATM    4  C   UNL     1      -9.215  13.617  66.979  1.00  0.00    -0.254 C  
HETATM    5  O   UNL     1      -6.538  11.121  66.785  1.00  0.00    -0.111 OA 
HETATM    6  CA  UNL     1      -8.602  12.395  67.033  1.00  0.00    -0.191 C  
HETATM    7  N   UNL     1      -9.363  11.260  67.098  1.00  0.00    -0.162 N  
HETATM    8  O   UNL     1      -8.173   9.330  67.579  1.00  0.00    -0.113 OA 
HETATM    9  C   UNL     1      -7.089  12.303  67.104  1.00  0.00    -0.102 C  
HETATM   10  CA  UNL     1     -10.754   9.756  67.509  1.00  0.00    -0.264 C  
HETATM   11  C   UNL     1      -9.198   9.951  67.408  1.00  0.00    -0.134 C  
HETATM   12  OXT UNL     1      -6.362  13.249  67.370  1.00  0.00    -0.249 OA 
ENDROOT
BRANCH   4  13
HETATM   13  C   UNL     1      -8.510  14.971  66.928  1.00  0.00    -0.236 C  
BRANCH  13  14
HETATM   14  S   UNL     1      -9.574  16.424  67.109  1.00  0.00    -0.239 SA 
BRANCH  14  15
HETATM   15  C   UNL     1      -8.699  17.695  66.362  1.00  0.00    -0.234 A  
HETATM   16  N   UNL     1      -7.478  17.667  65.884  1.00  0.00    -0.506 NA 
HETATM   17  C   UNL     1     -10.493  19.474  66.542  1.00  0.00    -0.493 C  
HETATM   18  N   UNL     1      -7.220  18.944  65.438  1.00  0.00    -0.479 NA 
HETATM   19  N   UNL     1      -8.269  19.732  65.633  1.00  0.00    -0.348 NA 
HETATM   20  N   UNL     1      -9.199  18.952  66.204  1.00  0.00    -0.472 NA 
ENDBRANCH  14  15
ENDBRANCH  13  14
ENDBRANCH   4  13
BRANCH  10  21
HETATM   21  N   UNL     1     -11.292   9.647  68.884  1.00  0.00    -0.464 N  
HETATM   22  C   UNL     1     -11.191   8.529  69.682  1.00  0.00     0.092 C  
HETATM   23  O   UNL     1     -10.682   7.477  69.306  1.00  0.00    -0.226 OA 
HETATM   24  H   UNL     1     -11.773  10.461  69.269  1.00  0.00     0.000 HD 
BRANCH  22  25
HETATM   25  C   UNL     1     -11.765   8.757  71.097  1.00  0.00    -0.291 C  
HETATM   26  H   UNL     1     -12.119  10.300  72.271  1.00  0.00     0.000 HD 
HETATM   27  O   UNL     1     -11.766  10.160  71.401  1.00  0.00    -0.360 OA 
BRANCH  25  28
HETATM   28  C   UNL     1     -10.976   8.016  72.154  1.00  0.00    -0.357 A  
HETATM   29  C   UNL     1      -9.808   8.586  72.680  1.00  0.00    -0.281 A  
HETATM   30  C   UNL     1      -9.065   7.916  73.654  1.00  0.00    -0.337 A  
HETATM   31  C   UNL     1      -9.485   6.672  74.121  1.00  0.00    -0.252 A  
HETATM   32  C   UNL     1     -10.653   6.101  73.624  1.00  0.00    -0.279 A  
HETATM   33  C   UNL     1     -11.397   6.769  72.650  1.00  0.00    -0.259 A  
ENDBRANCH  25  28
ENDBRANCH  22  25
ENDBRANCH  10  21
TORSDOF 6
ENDMDL
MODEL       36
REMARK 921   NORMALIZED FREE ENERGY PREDICTED BY IDOCK:   -6.13 KCAL/MOL
REMARK 922        TOTAL FREE ENERGY PREDICTED BY IDOCK:   -9.32 KCAL/MOL
REMARK 923 INTER-LIGAND FREE ENERGY PREDICTED BY IDOCK:   -7.96 KCAL/MOL
REMARK 924 INTRA-LIGAND FREE ENERGY PREDICTED BY IDOCK:   -1.36 KCAL/MOL
REMARK 927      BINDING AFFINITY PREDICTED BY RF-SCORE:    0.00 PKD
ROOT
HETATM    1  C   UNL     1      -8.716   9.581  68.049  1.00  0.00    -0.120 C  
HETATM    2  S   UNL     1      -9.361  10.587  69.412  1.00  0.00    -0.053 SA 
HETATM    3  C   UNL     1      -8.939   9.354  70.661  1.00  0.00    -0.228 C  
HETATM    4  C   UNL     1      -9.394   7.936  70.335  1.00  0.00    -0.159 C  
HETATM    5  O   UNL     1     -10.236   5.623  67.619  1.00  0.00    -0.165 OA 
HETATM    6  CA  UNL     1      -9.679   7.502  69.069  1.00  0.00    -0.162 C  
HETATM    7  N   UNL     1      -9.455   8.332  68.004  1.00  0.00    -0.139 N  
HETATM    8  O   UNL     1     -10.356   7.592  66.001  1.00  0.00     0.384 OA 
HETATM    9  C   UNL     1     -10.319   6.144  68.855  1.00  0.00    -0.208 C  
HETATM   10  CA  UNL     1      -9.312   9.906  66.637  1.00  0.00    -0.157 C  
HETATM   11  C   UNL     1      -9.807   8.416  66.699  1.00  0.00    -0.273 C  
HETATM   12  OXT UNL     1     -10.838   5.488  69.746  1.00  0.00    -0.331 OA 
ENDROOT
BRANCH   4  13
HETATM   13  C   UNL     1      -9.610   7.144  71.622  1.00  0.00    -0.155 C  
BRANCH  13  14
HETATM   14  S   UNL     1     -10.656   7.934  72.870  1.00  0.00    -0.334 SA 
BRANCH  14  15
HETATM   15  C   UNL     1     -12.248   7.805  72.244  1.00  0.00    -0.256 A  
HETATM   16  N   UNL     1     -12.991   6.731  72.134  1.00  0.00    -0.113 NA 
HETATM   17  C   UNL     1     -12.563  10.248  71.654  1.00  0.00    -0.432 C  
HETATM   18  N   UNL     1     -14.158   7.142  71.529  1.00  0.00    -0.374 NA 
HETATM   19  N   UNL     1     -14.128   8.444  71.283  1.00  0.00    -0.263 NA 
HETATM   20  N   UNL     1     -12.937   8.865  71.736  1.00  0.00    -0.345 NA 
ENDBRANCH  14  15
ENDBRANCH  13  14
ENDBRANCH   4  13
BRANCH  10  21
HETATM   21  N   UNL     1     -10.381  10.930  66.624  1.00  0.00    -0.231 N  
HETATM   22  C   UNL     1     -11.013  11.392  65.491  1.00  0.00    -0.183 C  
HETATM   23  O   UNL     1     -10.713  11.032  64.358  1.00  0.00    -0.351 OA 
HETATM   24  H   UNL     1     -10.670  11.322  67.521  1.00  0.00     0.000 HD 
BRANCH  22  25
HETATM   25  C   UNL     1     -12.150  12.387  65.812  1.00  0.00    -0.311 C  
HETATM   26  H   UNL     1     -13.742  13.094  64.890  1.00  0.00     0.000 HD 
HETATM   27  O   UNL     1     -13.044  12.482  64.692  1.00  0.00    -0.845 OA 
BRANCH  25  28
HETATM   28  C   UNL     1     -11.620  13.763  66.148  1.00  0.00    -0.369 A  
HETATM   29  C   UNL     1     -11.868  14.316  67.412  1.00  0.00    -0.441 A  
HETATM   30  C   UNL     1     -11.390  15.587  67.740  1.00  0.00    -0.286 A  
HETATM   31  C   UNL     1     -10.651  16.317  66.811  1.00  0.00    -0.257 A  
HETATM   32  C   UNL     1     -10.380  15.775  65.558  1.00  0.00    -0.430 A  
HETATM   33  C   UNL     1     -10.857  14.505  65.229  1.00  0.00    -0.377 A  
ENDBRANCH  25  28
ENDBRANCH  22  25
ENDBRANCH  10  21
TORSDOF 6
ENDMDL
MODEL       37
REMARK 921   NORMALIZED FREE ENERGY PREDICTED BY IDOCK:   -6.13 KCAL/MOL
REMARK 922        TOTAL FREE ENERGY PREDICTED BY IDOCK:   -9.32 KCAL/MOL
REMARK 923 INTER-LIGAND FREE ENERGY PREDICTED BY IDOCK:   -8.42 KCAL/MOL
REMARK 924 INTRA-LIGAND FREE ENERGY PREDICTED BY IDOCK:   -0.90 KCAL/MOL
REMARK 927      BINDING AFFINITY PREDICTED BY RF-SCORE:    0.00 PKD
ROOT
HETATM    1  C   UNL     1      -8.661  14.256  66.341  1.00  0.00     0.151 C  
HETATM    2  S   UNL     1      -7.792  14.443  67.920  1.00  0.00    -0.168 SA 
HETATM    3  C   UNL     1      -7.815  12.671  68.263  1.00  0.00    -0.144 C  
HETATM    4  C   UNL     1      -9.177  12.007  68.092  1.00  0.00    -0.195 C  
HETATM    5  O   UNL     1     -12.406  12.222  66.372  1.00  0.00    -0.531 OA 
HETATM    6  CA  UNL     1     -10.188  12.532  67.335  1.00  0.00    -0.213 C  
HETATM    7  N   UNL     1      -9.961  13.660  66.594  1.00  0.00    -0.275 N  
HETATM    8  O   UNL     1     -11.870  14.624  65.699  1.00  0.00    -0.341 OA 
HETATM    9  C   UNL     1     -11.574  11.917  67.381  1.00  0.00    -0.297 C  
HETATM   10  CA  UNL     1      -9.419  15.531  65.839  1.00  0.00    -0.342 C  
HETATM   11  C   UNL     1     -10.685  14.608  65.951  1.00  0.00    -0.309 C  
HETATM   12  OXT UNL     1     -11.939  11.127  68.238  1.00  0.00    -0.592 OA 
ENDROOT
BRANCH   4  13
HETATM   13  C   UNL     1      -9.277  10.774  68.988  1.00  0.00    -0.146 C  
BRANCH  13  14
HETATM   14  S   UNL     1      -9.010   9.181  68.172  1.00  0.00    -0.128 SA 
BRANCH  14  15
HETATM   15  C   UNL     1      -8.930   9.559  66.501  1.00  0.00    -0.148 A  
HETATM   16  N   UNL     1      -9.908   9.584  65.629  1.00  0.00    -0.306 NA 
HETATM   17  C   UNL     1      -6.437   9.990  66.385  1.00  0.00    -0.075 C  
HETATM   18  N   UNL     1      -9.325   9.895  64.420  1.00  0.00    -0.275 NA 
HETATM   19  N   UNL     1      -8.017  10.065  64.558  1.00  0.00    -0.145 NA 
HETATM   20  N   UNL     1      -7.767   9.864  65.860  1.00  0.00    -0.106 NA 
ENDBRANCH  14  15
ENDBRANCH  13  14
ENDBRANCH   4  13
BRANCH  10  21
HETATM   21  N   UNL     1      -9.392  16.686  66.765  1.00  0.00    -0.233 N  
HETATM   22  C   UNL     1      -9.995  17.901  66.525  1.00  0.00    -0.357 C  
HETATM   23  O   UNL     1     -10.581  18.168  65.480  1.00  0.00    -0.638 OA 
HETATM   24  H   UNL     1      -8.889  16.574  67.646  1.00  0.00     0.000 HD 
BRANCH  22  25
HETATM   25  C   UNL     1      -9.871  18.871  67.721  1.00  0.00    -0.337 C  
HETATM   26  H   UNL     1     -10.682  20.580  68.274  1.00  0.00     0.000 HD 
HETATM   27  O   UNL     1     -10.759  19.984  67.538  1.00  0.00    -0.332 OA 
BRANCH  25  28
HETATM   28  C   UNL     1      -8.457  19.380  67.894  1.00  0.00    -0.348 A  
HETATM   29  C   UNL     1      -7.882  20.190  66.904  1.00  0.00    -0.352 A  
HETATM   30  C   UNL     1      -6.577  20.666  67.044  1.00  0.00    -0.331 A  
HETATM   31  C   UNL     1      -5.833  20.347  68.179  1.00  0.00    -0.288 A  
HETATM   32  C   UNL     1      -6.397  19.560  69.180  1.00  0.00    -0.335 A  
HETATM   33  C   UNL     1      -7.701  19.082  69.041  1.00  0.00    -0.288 A  
ENDBRANCH  25  28
ENDBRANCH  22  25
ENDBRANCH  10  21
TORSDOF 6
ENDMDL
MODEL       38
REMARK 921   NORMALIZED FREE ENERGY PREDICTED BY IDOCK:   -6.13 KCAL/MOL
REMARK 922        TOTAL FREE ENERGY PREDICTED BY IDOCK:   -9.32 KCAL/MOL
REMARK 923 INTER-LIGAND FREE ENERGY PREDICTED BY IDOCK:   -8.38 KCAL/MOL
REMARK 924 INTRA-LIGAND FREE ENERGY PREDICTED BY IDOCK:   -0.93 KCAL/MOL
REMARK 927      BINDING AFFINITY PREDICTED BY RF-SCORE:    0.00 PKD
ROOT
HETATM    1  C   UNL     1     -11.027  10.891  68.858  1.00  0.00    -0.229 C  
HETATM    2  S   UNL     1      -9.246  11.202  68.723  1.00  0.00    -0.100 SA 
HETATM    3  C   UNL     1      -8.818   9.467  68.977  1.00  0.00    -0.141 C  
HETATM    4  C   UNL     1      -9.499   8.811  70.172  1.00  0.00    -0.182 C  
HETATM    5  O   UNL     1     -12.432   8.922  72.367  1.00  0.00    -0.375 OA 
HETATM    6  CA  UNL     1     -10.648   9.283  70.745  1.00  0.00    -0.285 C  
HETATM    7  N   UNL     1     -11.304  10.338  70.172  1.00  0.00    -0.294 N  
HETATM    8  O   UNL     1     -12.989  11.248  71.479  1.00  0.00    -0.428 OA 
HETATM    9  C   UNL     1     -11.147   8.695  72.052  1.00  0.00    -0.367 C  
HETATM   10  CA  UNL     1     -11.893  12.129  69.271  1.00  0.00    -0.313 C  
HETATM   11  C   UNL     1     -12.259  11.237  70.512  1.00  0.00    -0.383 C  
HETATM   12  OXT UNL     1     -10.469   7.987  72.782  1.00  0.00    -0.307 OA 
ENDROOT
BRANCH   4  13
HETATM   13  C   UNL     1      -8.642   7.662  70.701  1.00  0.00    -0.135 C  
BRANCH  13  14
HETATM   14  S   UNL     1      -9.195   5.996  70.259  1.00  0.00    -0.156 SA 
BRANCH  14  15
HETATM   15  C   UNL     1      -9.864   6.165  68.689  1.00  0.00    -0.138 A  
HETATM   16  N   UNL     1     -11.116   6.373  68.360  1.00  0.00    -0.317 NA 
HETATM   17  C   UNL     1      -7.713   5.867  67.386  1.00  0.00    -0.097 C  
HETATM   18  N   UNL     1     -11.145   6.384  66.983  1.00  0.00    -0.387 NA 
HETATM   19  N   UNL     1      -9.931   6.195  66.484  1.00  0.00    -0.153 NA 
HETATM   20  N   UNL     1      -9.125   6.066  67.549  1.00  0.00    -0.111 NA 
ENDBRANCH  14  15
ENDBRANCH  13  14
ENDBRANCH   4  13
BRANCH  10  21
HETATM   21  N   UNL     1     -11.129  13.360  69.577  1.00  0.00    -0.460 N  
HETATM   22  C   UNL     1     -11.169  14.517  68.831  1.00  0.00    -0.262 C  
HETATM   23  O   UNL     1     -11.814  14.627  67.793  1.00  0.00    -0.357 OA 
HETATM   24  H   UNL     1     -10.528  13.350  70.402  1.00  0.00     0.000 HD 
BRANCH  22  25
HETATM   25  C   UNL     1     -10.337  15.656  69.459  1.00  0.00    -0.277 C  
HETATM   26  H   UNL     1     -10.590  17.011  70.868  1.00  0.00     0.000 HD 
HETATM   27  O   UNL     1     -11.102  16.310  70.483  1.00  0.00    -0.348 OA 
BRANCH  25  28
HETATM   28  C   UNL     1      -9.903  16.675  68.429  1.00  0.00    -0.252 A  
HETATM   29  C   UNL     1      -8.801  16.408  67.605  1.00  0.00    -0.191 A  
HETATM   30  C   UNL     1      -8.383  17.338  66.651  1.00  0.00    -0.291 A  
HETATM   31  C   UNL     1      -9.067  18.543  66.502  1.00  0.00    -0.299 A  
HETATM   32  C   UNL     1     -10.176  18.816  67.300  1.00  0.00    -0.438 A  
HETATM   33  C   UNL     1     -10.594  17.887  68.254  1.00  0.00    -0.314 A  
ENDBRANCH  25  28
ENDBRANCH  22  25
ENDBRANCH  10  21
TORSDOF 6
ENDMDL
MODEL       39
REMARK 921   NORMALIZED FREE ENERGY PREDICTED BY IDOCK:   -6.12 KCAL/MOL
REMARK 922        TOTAL FREE ENERGY PREDICTED BY IDOCK:   -9.30 KCAL/MOL
REMARK 923 INTER-LIGAND FREE ENERGY PREDICTED BY IDOCK:   -8.06 KCAL/MOL
REMARK 924 INTRA-LIGAND FREE ENERGY PREDICTED BY IDOCK:   -1.24 KCAL/MOL
REMARK 927      BINDING AFFINITY PREDICTED BY RF-SCORE:    0.00 PKD
ROOT
HETATM    1  C   UNL     1      -9.467  10.066  69.584  1.00  0.00    -0.223 C  
HETATM    2  S   UNL     1     -10.855   9.908  70.740  1.00  0.00    -0.264 SA 
HETATM    3  C   UNL     1     -10.760   8.106  70.772  1.00  0.00    -0.222 C  
HETATM    4  C   UNL     1     -10.692   7.448  69.399  1.00  0.00    -0.220 C  
HETATM    5  O   UNL     1      -9.706   7.933  65.902  1.00  0.00     0.002 OA 
HETATM    6  CA  UNL     1     -10.284   8.096  68.265  1.00  0.00    -0.206 C  
HETATM    7  N   UNL     1      -9.807   9.375  68.353  1.00  0.00    -0.156 N  
HETATM    8  O   UNL     1      -9.541  10.446  66.314  1.00  0.00    -0.169 OA 
HETATM    9  C   UNL     1     -10.439   7.432  66.910  1.00  0.00    -0.309 C  
HETATM   10  CA  UNL     1      -9.436  11.393  68.752  1.00  0.00    -0.119 C  
HETATM   11  C   UNL     1      -9.558  10.418  67.525  1.00  0.00    -0.156 C  
HETATM   12  OXT UNL     1     -11.135   6.447  66.710  1.00  0.00    -0.358 OA 
ENDROOT
BRANCH   4  13
HETATM   13  C   UNL     1     -11.268   6.035  69.464  1.00  0.00    -0.346 C  
BRANCH  13  14
HETATM   14  S   UNL     1     -10.137   4.746  70.044  1.00  0.00    -0.178 SA 
BRANCH  14  15
HETATM   15  C   UNL     1      -9.090   4.461  68.717  1.00  0.00    -0.124 A  
HETATM   16  N   UNL     1      -9.225   3.584  67.752  1.00  0.00    -0.167 NA 
HETATM   17  C   UNL     1      -7.347   6.205  69.298  1.00  0.00    -0.088 C  
HETATM   18  N   UNL     1      -8.103   3.716  66.964  1.00  0.00    -0.091 NA 
HETATM   19  N   UNL     1      -7.303   4.662  67.438  1.00  0.00    -0.073 NA 
HETATM   20  N   UNL     1      -7.922   5.137  68.530  1.00  0.00    -0.086 NA 
ENDBRANCH  14  15
ENDBRANCH  13  14
ENDBRANCH   4  13
BRANCH  10  21
HETATM   21  N   UNL     1     -10.591  12.295  68.961  1.00  0.00    -0.409 N  
HETATM   22  C   UNL     1     -10.545  13.668  68.857  1.00  0.00    -0.190 C  
HETATM   23  O   UNL     1      -9.514  14.292  68.625  1.00  0.00    -0.204 OA 
HETATM   24  H   UNL     1     -11.487  11.870  69.201  1.00  0.00     0.000 HD 
BRANCH  22  25
HETATM   25  C   UNL     1     -11.932  14.323  69.037  1.00  0.00    -0.325 C  
HETATM   26  H   UNL     1     -12.863  15.924  68.363  1.00  0.00     0.000 HD 
HETATM   27  O   UNL     1     -12.010  15.522  68.252  1.00  0.00    -0.262 OA 
BRANCH  25  28
HETATM   28  C   UNL     1     -12.218  14.653  70.485  1.00  0.00    -0.389 A  
HETATM   29  C   UNL     1     -12.955  13.756  71.273  1.00  0.00    -0.409 A  
HETATM   30  C   UNL     1     -13.232  14.046  72.610  1.00  0.00    -0.606 A  
HETATM   31  C   UNL     1     -12.770  15.230  73.180  1.00  0.00    -0.586 A  
HETATM   32  C   UNL     1     -12.021  16.123  72.418  1.00  0.00    -0.649 A  
HETATM   33  C   UNL     1     -11.743  15.835  71.080  1.00  0.00    -0.476 A  
ENDBRANCH  25  28
ENDBRANCH  22  25
ENDBRANCH  10  21
TORSDOF 6
ENDMDL
MODEL       40
REMARK 921   NORMALIZED FREE ENERGY PREDICTED BY IDOCK:   -6.11 KCAL/MOL
REMARK 922        TOTAL FREE ENERGY PREDICTED BY IDOCK:   -9.30 KCAL/MOL
REMARK 923 INTER-LIGAND FREE ENERGY PREDICTED BY IDOCK:   -8.16 KCAL/MOL
REMARK 924 INTRA-LIGAND FREE ENERGY PREDICTED BY IDOCK:   -1.13 KCAL/MOL
REMARK 927      BINDING AFFINITY PREDICTED BY RF-SCORE:    0.00 PKD
ROOT
HETATM    1  C   UNL     1      -8.666   8.640  67.606  1.00  0.00    -0.136 C  
HETATM    2  S   UNL     1      -8.920  10.354  68.141  1.00  0.00    -0.135 SA 
HETATM    3  C   UNL     1      -8.699   9.953  69.886  1.00  0.00    -0.201 C  
HETATM    4  C   UNL     1      -9.513   8.759  70.374  1.00  0.00    -0.206 C  
HETATM    5  O   UNL     1     -11.135   5.636  69.350  1.00  0.00    -0.294 OA 
HETATM    6  CA  UNL     1     -10.009   7.790  69.546  1.00  0.00    -0.187 C  
HETATM    7  N   UNL     1      -9.687   7.807  68.217  1.00  0.00    -0.155 N  
HETATM    8  O   UNL     1     -10.920   6.343  66.908  1.00  0.00    -0.370 OA 
HETATM    9  C   UNL     1     -10.977   6.751  70.082  1.00  0.00    -0.292 C  
HETATM   10  CA  UNL     1      -9.291   8.272  66.218  1.00  0.00    -0.204 C  
HETATM   11  C   UNL     1     -10.126   7.245  67.064  1.00  0.00    -0.246 C  
HETATM   12  OXT UNL     1     -11.556   6.850  71.154  1.00  0.00    -0.283 OA 
ENDROOT
BRANCH   4  13
HETATM   13  C   UNL     1      -9.797   8.891  71.868  1.00  0.00    -0.294 C  
BRANCH  13  14
HETATM   14  S   UNL     1      -8.535   8.213  72.976  1.00  0.00    -0.206 SA 
BRANCH  14  15
HETATM   15  C   UNL     1      -9.169   6.701  73.477  1.00  0.00    -0.137 A  
HETATM   16  N   UNL     1     -10.000   6.457  74.462  1.00  0.00    -0.334 NA 
HETATM   17  C   UNL     1      -7.981   5.265  71.762  1.00  0.00    -0.112 C  
HETATM   18  N   UNL     1     -10.162   5.090  74.486  1.00  0.00    -0.254 NA 
HETATM   19  N   UNL     1      -9.450   4.513  73.528  1.00  0.00    -0.117 NA 
HETATM   20  N   UNL     1      -8.833   5.519  72.889  1.00  0.00    -0.118 NA 
ENDBRANCH  14  15
ENDBRANCH  13  14
ENDBRANCH   4  13
BRANCH  10  21
HETATM   21  N   UNL     1     -10.076   9.350  65.574  1.00  0.00    -0.350 N  
HETATM   22  C   UNL     1      -9.557  10.298  64.720  1.00  0.00    -0.307 C  
HETATM   23  O   UNL     1      -8.365  10.374  64.443  1.00  0.00    -0.165 OA 
HETATM   24  H   UNL     1     -11.075   9.394  65.779  1.00  0.00     0.000 HD 
BRANCH  22  25
HETATM   25  C   UNL     1     -10.644  11.227  64.136  1.00  0.00    -0.373 C  
HETATM   26  H   UNL     1     -10.907  12.268  62.483  1.00  0.00     0.000 HD 
HETATM   27  O   UNL     1     -10.239  11.697  62.842  1.00  0.00    -0.293 OA 
BRANCH  25  28
HETATM   28  C   UNL     1     -10.918  12.412  65.035  1.00  0.00    -0.336 A  
HETATM   29  C   UNL     1     -10.458  13.686  64.671  1.00  0.00    -0.442 A  
HETATM   30  C   UNL     1     -10.699  14.791  65.490  1.00  0.00    -0.369 A  
HETATM   31  C   UNL     1     -11.409  14.639  66.679  1.00  0.00    -0.358 A  
HETATM   32  C   UNL     1     -11.889  13.385  67.046  1.00  0.00    -0.443 A  
HETATM   33  C   UNL     1     -11.650  12.279  66.229  1.00  0.00    -0.446 A  
ENDBRANCH  25  28
ENDBRANCH  22  25
ENDBRANCH  10  21
TORSDOF 6
ENDMDL
MODEL       41
REMARK 921   NORMALIZED FREE ENERGY PREDICTED BY IDOCK:   -6.10 KCAL/MOL
REMARK 922        TOTAL FREE ENERGY PREDICTED BY IDOCK:   -9.28 KCAL/MOL
REMARK 923 INTER-LIGAND FREE ENERGY PREDICTED BY IDOCK:   -8.01 KCAL/MOL
REMARK 924 INTRA-LIGAND FREE ENERGY PREDICTED BY IDOCK:   -1.27 KCAL/MOL
REMARK 927      BINDING AFFINITY PREDICTED BY RF-SCORE:    0.00 PKD
ROOT
HETATM    1  C   UNL     1      -8.488  12.213  67.157  1.00  0.00    -0.182 C  
HETATM    2  S   UNL     1      -7.783  12.556  68.791  1.00  0.00     0.074 SA 
HETATM    3  C   UNL     1      -7.050  10.913  68.936  1.00  0.00    -0.090 C  
HETATM    4  C   UNL     1      -7.999   9.762  68.622  1.00  0.00    -0.089 C  
HETATM    5  O   UNL     1     -11.009   8.799  66.766  1.00  0.00    -0.009 OA 
HETATM    6  CA  UNL     1      -9.136   9.898  67.874  1.00  0.00    -0.131 C  
HETATM    7  N   UNL     1      -9.410  11.097  67.274  1.00  0.00    -0.160 N  
HETATM    8  O   UNL     1     -11.546  11.265  66.389  1.00  0.00    -0.300 OA 
HETATM    9  C   UNL     1     -10.128   8.755  67.779  1.00  0.00    -0.207 C  
HETATM   10  CA  UNL     1      -9.716  13.099  66.758  1.00  0.00    -0.246 C  
HETATM   11  C   UNL     1     -10.468  11.721  66.701  1.00  0.00    -0.224 C  
HETATM   12  OXT UNL     1     -10.123   7.786  68.524  1.00  0.00    -0.187 OA 
ENDROOT
BRANCH   4  13
HETATM   13  C   UNL     1      -7.566   8.504  69.371  1.00  0.00    -0.090 C  
BRANCH  13  14
HETATM   14  S   UNL     1      -7.581   8.614  71.177  1.00  0.00    -0.116 SA 
BRANCH  14  15
HETATM   15  C   UNL     1      -9.238   8.493  71.603  1.00  0.00    -0.236 A  
HETATM   16  N   UNL     1     -10.181   9.390  71.448  1.00  0.00    -0.292 NA 
HETATM   17  C   UNL     1      -9.155   6.153  72.568  1.00  0.00    -0.138 C  
HETATM   18  N   UNL     1     -11.319   8.835  71.991  1.00  0.00    -0.361 NA 
HETATM   19  N   UNL     1     -11.073   7.618  72.459  1.00  0.00    -0.307 NA 
HETATM   20  N   UNL     1      -9.773   7.398  72.211  1.00  0.00    -0.152 NA 
ENDBRANCH  14  15
ENDBRANCH  13  14
ENDBRANCH   4  13
BRANCH  10  21
HETATM   21  N   UNL     1     -10.184  14.035  67.805  1.00  0.00    -0.237 N  
HETATM   22  C   UNL     1     -11.457  14.557  67.881  1.00  0.00    -0.325 C  
HETATM   23  O   UNL     1     -12.328  14.333  67.046  1.00  0.00    -0.386 OA 
HETATM   24  H   UNL     1      -9.516  14.314  68.523  1.00  0.00     0.000 HD 
BRANCH  22  25
HETATM   25  C   UNL     1     -11.667  15.426  69.140  1.00  0.00    -0.345 C  
HETATM   26  H   UNL     1     -10.527  16.410  70.412  1.00  0.00     0.000 HD 
HETATM   27  O   UNL     1     -10.397  15.875  69.638  1.00  0.00    -0.261 OA 
BRANCH  25  28
HETATM   28  C   UNL     1     -12.397  14.676  70.232  1.00  0.00    -0.406 A  
HETATM   29  C   UNL     1     -12.166  13.304  70.409  1.00  0.00    -0.404 A  
HETATM   30  C   UNL     1     -12.834  12.594  71.409  1.00  0.00    -0.358 A  
HETATM   31  C   UNL     1     -13.732  13.247  72.250  1.00  0.00    -0.686 A  
HETATM   32  C   UNL     1     -13.958  14.613  72.100  1.00  0.00    -0.591 A  
HETATM   33  C   UNL     1     -13.292  15.325  71.100  1.00  0.00    -0.568 A  
ENDBRANCH  25  28
ENDBRANCH  22  25
ENDBRANCH  10  21
TORSDOF 6
ENDMDL
MODEL       42
REMARK 921   NORMALIZED FREE ENERGY PREDICTED BY IDOCK:   -6.07 KCAL/MOL
REMARK 922        TOTAL FREE ENERGY PREDICTED BY IDOCK:   -9.24 KCAL/MOL
REMARK 923 INTER-LIGAND FREE ENERGY PREDICTED BY IDOCK:   -8.24 KCAL/MOL
REMARK 924 INTRA-LIGAND FREE ENERGY PREDICTED BY IDOCK:   -1.00 KCAL/MOL
REMARK 927      BINDING AFFINITY PREDICTED BY RF-SCORE:    0.00 PKD
ROOT
HETATM    1  C   UNL     1      -8.172   8.303  67.454  1.00  0.00    -0.121 C  
HETATM    2  S   UNL     1      -8.977   9.699  68.283  1.00  0.00    -0.123 SA 
HETATM    3  C   UNL     1      -8.801   8.964  69.921  1.00  0.00    -0.151 C  
HETATM    4  C   UNL     1      -9.256   7.513  70.021  1.00  0.00    -0.151 C  
HETATM    5  O   UNL     1      -9.763   4.409  68.138  1.00  0.00    -0.159 OA 
HETATM    6  CA  UNL     1      -9.361   6.675  68.945  1.00  0.00    -0.128 C  
HETATM    7  N   UNL     1      -8.943   7.101  67.714  1.00  0.00    -0.123 N  
HETATM    8  O   UNL     1      -9.556   5.717  65.957  1.00  0.00    -0.150 OA 
HETATM    9  C   UNL     1     -10.014   5.314  69.099  1.00  0.00    -0.205 C  
HETATM   10  CA  UNL     1      -8.531   8.125  65.940  1.00  0.00    -0.142 C  
HETATM   11  C   UNL     1      -9.088   6.736  66.417  1.00  0.00    -0.152 C  
HETATM   12  OXT UNL     1     -10.688   4.988  70.064  1.00  0.00    -0.170 OA 
ENDROOT
BRANCH   4  13
HETATM   13  C   UNL     1      -9.698   7.197  71.448  1.00  0.00    -0.168 C  
BRANCH  13  14
HETATM   14  S   UNL     1     -10.633   8.496  72.292  1.00  0.00    -0.300 SA 
BRANCH  14  15
HETATM   15  C   UNL     1     -12.272   8.163  71.915  1.00  0.00    -0.331 A  
HETATM   16  N   UNL     1     -12.850   6.994  71.776  1.00  0.00    -0.351 NA 
HETATM   17  C   UNL     1     -13.058  10.564  71.731  1.00  0.00    -0.464 C  
HETATM   18  N   UNL     1     -14.156   7.260  71.427  1.00  0.00    -0.384 NA 
HETATM   19  N   UNL     1     -14.370   8.567  71.364  1.00  0.00    -0.367 NA 
HETATM   20  N   UNL     1     -13.195   9.136  71.677  1.00  0.00    -0.358 NA 
ENDBRANCH  14  15
ENDBRANCH  13  14
ENDBRANCH   4  13
BRANCH  10  21
HETATM   21  N   UNL     1      -9.544   9.070  65.417  1.00  0.00    -0.460 N  
HETATM   22  C   UNL     1      -9.258  10.246  64.759  1.00  0.00    -0.241 C  
HETATM   23  O   UNL     1      -8.116  10.659  64.584  1.00  0.00    -0.107 OA 
HETATM   24  H   UNL     1     -10.527   8.832  65.554  1.00  0.00     0.000 HD 
BRANCH  22  25
HETATM   25  C   UNL     1     -10.527  10.965  64.252  1.00  0.00    -0.335 C  
HETATM   26  H   UNL     1     -11.077  11.928  62.623  1.00  0.00     0.000 HD 
HETATM   27  O   UNL     1     -10.296  11.486  62.934  1.00  0.00    -0.250 OA 
BRANCH  25  28
HETATM   28  C   UNL     1     -10.947  12.091  65.170  1.00  0.00    -0.359 A  
HETATM   29  C   UNL     1     -12.253  12.596  65.102  1.00  0.00    -0.539 A  
HETATM   30  C   UNL     1     -12.657  13.638  65.940  1.00  0.00    -0.478 A  
HETATM   31  C   UNL     1     -11.765  14.181  66.862  1.00  0.00    -0.437 A  
HETATM   32  C   UNL     1     -10.470  13.678  66.955  1.00  0.00    -0.272 A  
HETATM   33  C   UNL     1     -10.064  12.637  66.118  1.00  0.00    -0.268 A  
ENDBRANCH  25  28
ENDBRANCH  22  25
ENDBRANCH  10  21
TORSDOF 6
ENDMDL
MODEL       43
REMARK 921   NORMALIZED FREE ENERGY PREDICTED BY IDOCK:   -6.06 KCAL/MOL
REMARK 922        TOTAL FREE ENERGY PREDICTED BY IDOCK:   -9.23 KCAL/MOL
REMARK 923 INTER-LIGAND FREE ENERGY PREDICTED BY IDOCK:   -7.70 KCAL/MOL
REMARK 924 INTRA-LIGAND FREE ENERGY PREDICTED BY IDOCK:   -1.53 KCAL/MOL
REMARK 927      BINDING AFFINITY PREDICTED BY RF-SCORE:    0.00 PKD
ROOT
HETATM    1  C   UNL     1     -11.923  13.040  66.618  1.00  0.00    -0.387 C  
HETATM    2  S   UNL     1     -10.436  12.585  65.688  1.00  0.00    -0.280 SA 
HETATM    3  C   UNL     1     -10.634  10.824  66.029  1.00  0.00    -0.156 C  
HETATM    4  C   UNL     1     -10.882  10.483  67.494  1.00  0.00    -0.357 C  
HETATM    5  O   UNL     1     -12.193  11.754  70.672  1.00  0.00    -0.371 OA 
HETATM    6  CA  UNL     1     -11.365  11.377  68.410  1.00  0.00    -0.281 C  
HETATM    7  N   UNL     1     -11.754  12.623  67.998  1.00  0.00    -0.341 N  
HETATM    8  O   UNL     1     -12.164  14.121  69.719  1.00  0.00    -0.326 OA 
HETATM    9  C   UNL     1     -11.391  11.020  69.884  1.00  0.00    -0.287 C  
HETATM   10  CA  UNL     1     -11.961  14.517  67.140  1.00  0.00    -0.345 C  
HETATM   11  C   UNL     1     -12.025  13.830  68.551  1.00  0.00    -0.367 C  
HETATM   12  OXT UNL     1     -10.780  10.078  70.367  1.00  0.00    -0.287 OA 
ENDROOT
BRANCH   4  13
HETATM   13  C   UNL     1     -10.388   9.070  67.797  1.00  0.00    -0.246 C  
BRANCH  13  14
HETATM   14  S   UNL     1      -8.629   8.767  67.497  1.00  0.00    -0.127 SA 
BRANCH  14  15
HETATM   15  C   UNL     1      -7.851   9.286  68.935  1.00  0.00    -0.087 A  
HETATM   16  N   UNL     1      -7.644   8.604  70.035  1.00  0.00    -0.065 NA 
HETATM   17  C   UNL     1      -7.328  11.649  68.187  1.00  0.00    -0.092 C  
HETATM   18  N   UNL     1      -7.029   9.476  70.907  1.00  0.00    -0.243 NA 
HETATM   19  N   UNL     1      -6.857  10.664  70.343  1.00  0.00    -0.290 NA 
HETATM   20  N   UNL     1      -7.363  10.547  69.106  1.00  0.00    -0.097 NA 
ENDBRANCH  14  15
ENDBRANCH  13  14
ENDBRANCH   4  13
BRANCH  10  21
HETATM   21  N   UNL     1     -10.739  15.310  66.875  1.00  0.00    -0.309 N  
HETATM   22  C   UNL     1     -10.364  16.435  67.577  1.00  0.00    -0.288 C  
HETATM   23  O   UNL     1     -11.043  16.927  68.473  1.00  0.00    -0.327 OA 
HETATM   24  H   UNL     1     -10.129  15.001  66.117  1.00  0.00     0.000 HD 
BRANCH  22  25
HETATM   25  C   UNL     1      -8.992  16.983  67.128  1.00  0.00    -0.222 C  
HETATM   26  H   UNL     1      -7.766  16.715  65.608  1.00  0.00     0.000 HD 
HETATM   27  O   UNL     1      -8.610  16.378  65.884  1.00  0.00    -0.407 OA 
BRANCH  25  28
HETATM   28  C   UNL     1      -7.916  16.731  68.160  1.00  0.00    -0.181 A  
HETATM   29  C   UNL     1      -7.889  15.515  68.858  1.00  0.00    -0.182 A  
HETATM   30  C   UNL     1      -6.905  15.266  69.817  1.00  0.00    -0.172 A  
HETATM   31  C   UNL     1      -5.930  16.225  70.084  1.00  0.00    -0.126 A  
HETATM   32  C   UNL     1      -5.931  17.430  69.387  1.00  0.00    -0.237 A  
HETATM   33  C   UNL     1      -6.914  17.681  68.428  1.00  0.00    -0.222 A  
ENDBRANCH  25  28
ENDBRANCH  22  25
ENDBRANCH  10  21
TORSDOF 6
ENDMDL
MODEL       44
REMARK 921   NORMALIZED FREE ENERGY PREDICTED BY IDOCK:   -6.05 KCAL/MOL
REMARK 922        TOTAL FREE ENERGY PREDICTED BY IDOCK:   -9.22 KCAL/MOL
REMARK 923 INTER-LIGAND FREE ENERGY PREDICTED BY IDOCK:   -8.43 KCAL/MOL
REMARK 924 INTRA-LIGAND FREE ENERGY PREDICTED BY IDOCK:   -0.79 KCAL/MOL
REMARK 927      BINDING AFFINITY PREDICTED BY RF-SCORE:    0.00 PKD
ROOT
HETATM    1  C   UNL     1     -11.904  11.465  68.176  1.00  0.00    -0.218 C  
HETATM    2  S   UNL     1     -11.197  12.824  69.144  1.00  0.00    -0.205 SA 
HETATM    3  C   UNL     1     -11.676  14.075  67.935  1.00  0.00    -0.362 C  
HETATM    4  C   UNL     1     -11.300  13.745  66.495  1.00  0.00    -0.336 C  
HETATM    5  O   UNL     1     -10.602  11.023  64.142  1.00  0.00    -0.371 OA 
HETATM    6  CA  UNL     1     -11.047  12.477  66.047  1.00  0.00    -0.294 C  
HETATM    7  N   UNL     1     -11.234  11.415  66.888  1.00  0.00    -0.297 N  
HETATM    8  O   UNL     1     -10.386   9.405  66.103  1.00  0.00    -0.232 OA 
HETATM    9  C   UNL     1     -10.483  12.258  64.656  1.00  0.00    -0.303 C  
HETATM   10  CA  UNL     1     -11.300  10.049  68.469  1.00  0.00    -0.052 C  
HETATM   11  C   UNL     1     -10.886  10.107  66.955  1.00  0.00    -0.106 C  
HETATM   12  OXT UNL     1      -9.994  13.145  63.972  1.00  0.00    -0.304 OA 
ENDROOT
BRANCH   4  13
HETATM   13  C   UNL     1     -11.119  15.031  65.691  1.00  0.00    -0.349 C  
BRANCH  13  14
HETATM   14  S   UNL     1      -9.594  15.953  66.008  1.00  0.00    -0.359 SA 
BRANCH  14  15
HETATM   15  C   UNL     1     -10.119  17.546  66.364  1.00  0.00    -0.345 A  
HETATM   16  N   UNL     1     -10.327  18.536  65.530  1.00  0.00    -0.503 NA 
HETATM   17  C   UNL     1     -10.299  17.275  68.876  1.00  0.00    -0.352 C  
HETATM   18  N   UNL     1     -10.690  19.613  66.308  1.00  0.00    -0.456 NA 
HETATM   19  N   UNL     1     -10.711  19.281  67.592  1.00  0.00    -0.451 NA 
HETATM   20  N   UNL     1     -10.362  17.986  67.631  1.00  0.00    -0.371 NA 
ENDBRANCH  14  15
ENDBRANCH  13  14
ENDBRANCH   4  13
BRANCH  10  21
HETATM   21  N   UNL     1     -10.178  10.030  69.434  1.00  0.00    -0.207 N  
HETATM   22  C   UNL     1      -9.286   8.990  69.582  1.00  0.00    -0.167 C  
HETATM   23  O   UNL     1      -9.366   7.939  68.954  1.00  0.00    -0.150 OA 
HETATM   24  H   UNL     1     -10.055  10.847  70.033  1.00  0.00     0.000 HD 
BRANCH  22  25
HETATM   25  C   UNL     1      -8.170   9.308  70.602  1.00  0.00    -0.190 C  
HETATM   26  H   UNL     1      -6.211   9.118  70.692  1.00  0.00     0.000 HD 
HETATM   27  O   UNL     1      -6.896   8.923  70.065  1.00  0.00    -0.040 OA 
BRANCH  25  28
HETATM   28  C   UNL     1      -8.392   8.603  71.922  1.00  0.00    -0.189 A  
HETATM   29  C   UNL     1      -7.312   8.402  72.795  1.00  0.00    -0.113 A  
HETATM   30  C   UNL     1      -7.497   7.750  74.016  1.00  0.00    -0.174 A  
HETATM   31  C   UNL     1      -8.762   7.299  74.384  1.00  0.00    -0.242 A  
HETATM   32  C   UNL     1      -9.848   7.508  73.538  1.00  0.00    -0.372 A  
HETATM   33  C   UNL     1      -9.666   8.159  72.316  1.00  0.00    -0.322 A  
ENDBRANCH  25  28
ENDBRANCH  22  25
ENDBRANCH  10  21
TORSDOF 6
ENDMDL
MODEL       45
REMARK 921   NORMALIZED FREE ENERGY PREDICTED BY IDOCK:   -6.04 KCAL/MOL
REMARK 922        TOTAL FREE ENERGY PREDICTED BY IDOCK:   -9.19 KCAL/MOL
REMARK 923 INTER-LIGAND FREE ENERGY PREDICTED BY IDOCK:   -7.84 KCAL/MOL
REMARK 924 INTRA-LIGAND FREE ENERGY PREDICTED BY IDOCK:   -1.36 KCAL/MOL
REMARK 927      BINDING AFFINITY PREDICTED BY RF-SCORE:    0.00 PKD
ROOT
HETATM    1  C   UNL     1     -11.735  12.096  66.773  1.00  0.00    -0.305 C  
HETATM    2  S   UNL     1     -10.221  12.011  65.780  1.00  0.00    -0.250 SA 
HETATM    3  C   UNL     1     -10.212  10.206  65.757  1.00  0.00    -0.213 C  
HETATM    4  C   UNL     1     -10.397   9.551  67.120  1.00  0.00    -0.320 C  
HETATM    5  O   UNL     1     -11.791   9.996  70.480  1.00  0.00    -0.280 OA 
HETATM    6  CA  UNL     1     -10.963  10.180  68.195  1.00  0.00    -0.259 C  
HETATM    7  N   UNL     1     -11.497  11.430  68.041  1.00  0.00    -0.300 N  
HETATM    8  O   UNL     1     -12.047  12.493  70.027  1.00  0.00    -0.314 OA 
HETATM    9  C   UNL     1     -10.924   9.532  69.566  1.00  0.00    -0.195 C  
HETATM   10  CA  UNL     1     -11.931  13.422  67.582  1.00  0.00    -0.322 C  
HETATM   11  C   UNL     1     -11.894  12.462  68.825  1.00  0.00    -0.311 C  
HETATM   12  OXT UNL     1     -10.202   8.588  69.852  1.00  0.00    -0.194 OA 
ENDROOT
BRANCH   4  13
HETATM   13  C   UNL     1      -9.740   8.172  67.135  1.00  0.00    -0.199 C  
BRANCH  13  14
HETATM   14  S   UNL     1      -7.996   8.122  66.654  1.00  0.00    -0.103 SA 
BRANCH  14  15
HETATM   15  C   UNL     1      -7.269   9.401  67.535  1.00  0.00    -0.079 A  
HETATM   16  N   UNL     1      -7.241   9.577  68.833  1.00  0.00    -0.071 NA 
HETATM   17  C   UNL     1      -6.376  10.696  65.549  1.00  0.00    -0.081 C  
HETATM   18  N   UNL     1      -6.583  10.770  69.037  1.00  0.00    -0.053 NA 
HETATM   19  N   UNL     1      -6.210  11.305  67.882  1.00  0.00    -0.049 NA 
HETATM   20  N   UNL     1      -6.630  10.447  66.940  1.00  0.00    -0.075 NA 
ENDBRANCH  14  15
ENDBRANCH  13  14
ENDBRANCH   4  13
BRANCH  10  21
HETATM   21  N   UNL     1     -10.812  14.387  67.493  1.00  0.00    -0.278 N  
HETATM   22  C   UNL     1     -10.711  15.546  68.231  1.00  0.00    -0.271 C  
HETATM   23  O   UNL     1     -11.578  15.924  69.012  1.00  0.00    -0.370 OA 
HETATM   24  H   UNL     1     -10.059  14.179  66.835  1.00  0.00     0.000 HD 
BRANCH  22  25
HETATM   25  C   UNL     1      -9.382  16.293  67.983  1.00  0.00    -0.214 C  
HETATM   26  H   UNL     1      -7.792  16.784  69.039  1.00  0.00     0.000 HD 
HETATM   27  O   UNL     1      -8.609  16.324  69.192  1.00  0.00    -0.248 OA 
BRANCH  25  28
HETATM   28  C   UNL     1      -9.609  17.706  67.496  1.00  0.00    -0.267 A  
HETATM   29  C   UNL     1      -9.087  18.786  68.223  1.00  0.00    -0.356 A  
HETATM   30  C   UNL     1      -9.289  20.099  67.790  1.00  0.00    -0.455 A  
HETATM   31  C   UNL     1     -10.007  20.348  66.623  1.00  0.00    -0.492 A  
HETATM   32  C   UNL     1     -10.516  19.286  65.879  1.00  0.00    -0.534 A  
HETATM   33  C   UNL     1     -10.315  17.974  66.310  1.00  0.00    -0.384 A  
ENDBRANCH  25  28
ENDBRANCH  22  25
ENDBRANCH  10  21
TORSDOF 6
ENDMDL
MODEL       46
REMARK 921   NORMALIZED FREE ENERGY PREDICTED BY IDOCK:   -6.04 KCAL/MOL
REMARK 922        TOTAL FREE ENERGY PREDICTED BY IDOCK:   -9.19 KCAL/MOL
REMARK 923 INTER-LIGAND FREE ENERGY PREDICTED BY IDOCK:   -8.44 KCAL/MOL
REMARK 924 INTRA-LIGAND FREE ENERGY PREDICTED BY IDOCK:   -0.76 KCAL/MOL
REMARK 927      BINDING AFFINITY PREDICTED BY RF-SCORE:    0.00 PKD
ROOT
HETATM    1  C   UNL     1     -10.811  11.484  66.846  1.00  0.00    -0.284 C  
HETATM    2  S   UNL     1     -12.025  12.502  67.726  1.00  0.00    -0.083 SA 
HETATM    3  C   UNL     1     -11.374  14.046  67.054  1.00  0.00    -0.330 C  
HETATM    4  C   UNL     1      -9.862  14.201  67.166  1.00  0.00    -0.253 C  
HETATM    5  O   UNL     1      -6.685  12.389  67.412  1.00  0.00    -0.133 OA 
HETATM    6  CA  UNL     1      -9.000  13.151  67.324  1.00  0.00    -0.216 C  
HETATM    7  N   UNL     1      -9.480  11.871  67.278  1.00  0.00    -0.174 N  
HETATM    8  O   UNL     1      -7.966  10.250  67.953  1.00  0.00    -0.101 OA 
HETATM    9  C   UNL     1      -7.536  13.405  67.632  1.00  0.00    -0.174 C  
HETATM   10  CA  UNL     1     -10.534  10.077  67.477  1.00  0.00    -0.254 C  
HETATM   11  C   UNL     1      -9.068  10.626  67.619  1.00  0.00    -0.142 C  
HETATM   12  OXT UNL     1      -7.095  14.483  68.001  1.00  0.00    -0.109 OA 
ENDROOT
BRANCH   4  13
HETATM   13  C   UNL     1      -9.488  15.681  67.216  1.00  0.00    -0.216 C  
BRANCH  13  14
HETATM   14  S   UNL     1     -10.429  16.696  68.382  1.00  0.00    -0.342 SA 
BRANCH  14  15
HETATM   15  C   UNL     1     -10.042  18.312  67.959  1.00  0.00    -0.364 A  
HETATM   16  N   UNL     1     -10.829  19.226  67.448  1.00  0.00    -0.487 NA 
HETATM   17  C   UNL     1      -7.597  18.244  68.620  1.00  0.00    -0.296 C  
HETATM   18  N   UNL     1     -10.037  20.334  67.246  1.00  0.00    -0.423 NA 
HETATM   19  N   UNL     1      -8.791  20.100  67.635  1.00  0.00    -0.327 NA 
HETATM   20  N   UNL     1      -8.792  18.838  68.090  1.00  0.00    -0.297 NA 
ENDBRANCH  14  15
ENDBRANCH  13  14
ENDBRANCH   4  13
BRANCH  10  21
HETATM   21  N   UNL     1     -11.237   9.809  68.752  1.00  0.00    -0.469 N  
HETATM   22  C   UNL     1     -10.965   8.752  69.593  1.00  0.00    -0.105 C  
HETATM   23  O   UNL     1     -10.134   7.886  69.339  1.00  0.00    -0.186 OA 
HETATM   24  H   UNL     1     -11.977  10.454  69.029  1.00  0.00     0.000 HD 
BRANCH  22  25
HETATM   25  C   UNL     1     -11.801   8.797  70.891  1.00  0.00    -0.230 C  
HETATM   26  H   UNL     1     -12.223  10.129  72.281  1.00  0.00     0.000 HD 
HETATM   27  O   UNL     1     -11.709  10.101  71.483  1.00  0.00    -0.343 OA 
BRANCH  25  28
HETATM   28  C   UNL     1     -11.348   7.759  71.893  1.00  0.00    -0.315 A  
HETATM   29  C   UNL     1     -11.919   6.477  71.875  1.00  0.00    -0.389 A  
HETATM   30  C   UNL     1     -11.516   5.507  72.795  1.00  0.00    -0.339 A  
HETATM   31  C   UNL     1     -10.533   5.801  73.738  1.00  0.00    -0.291 A  
HETATM   32  C   UNL     1      -9.943   7.062  73.756  1.00  0.00    -0.367 A  
HETATM   33  C   UNL     1     -10.344   8.034  72.838  1.00  0.00    -0.397 A  
ENDBRANCH  25  28
ENDBRANCH  22  25
ENDBRANCH  10  21
TORSDOF 6
ENDMDL
MODEL       47
REMARK 921   NORMALIZED FREE ENERGY PREDICTED BY IDOCK:   -6.01 KCAL/MOL
REMARK 922        TOTAL FREE ENERGY PREDICTED BY IDOCK:   -9.16 KCAL/MOL
REMARK 923 INTER-LIGAND FREE ENERGY PREDICTED BY IDOCK:   -8.02 KCAL/MOL
REMARK 924 INTRA-LIGAND FREE ENERGY PREDICTED BY IDOCK:   -1.14 KCAL/MOL
REMARK 927      BINDING AFFINITY PREDICTED BY RF-SCORE:    0.00 PKD
ROOT
HETATM    1  C   UNL     1      -8.000  10.680  66.990  1.00  0.00    -0.121 C  
HETATM    2  S   UNL     1      -8.835  11.426  68.415  1.00  0.00    -0.161 SA 
HETATM    3  C   UNL     1      -8.310  10.118  69.542  1.00  0.00    -0.168 C  
HETATM    4  C   UNL     1      -8.557   8.702  69.032  1.00  0.00    -0.129 C  
HETATM    5  O   UNL     1      -8.959   6.640  66.029  1.00  0.00    -0.154 OA 
HETATM    6  CA  UNL     1      -8.724   8.389  67.711  1.00  0.00    -0.137 C  
HETATM    7  N   UNL     1      -8.563   9.361  66.761  1.00  0.00    -0.126 N  
HETATM    8  O   UNL     1      -9.266   8.755  64.637  1.00  0.00     0.066 OA 
HETATM    9  C   UNL     1      -9.167   6.995  67.308  1.00  0.00    -0.129 C  
HETATM   10  CA  UNL     1      -8.569  11.091  65.590  1.00  0.00    -0.130 C  
HETATM   11  C   UNL     1      -8.864   9.554  65.454  1.00  0.00    -0.178 C  
HETATM   12  OXT UNL     1      -9.634   6.177  68.086  1.00  0.00    -0.116 OA 
ENDROOT
BRANCH   4  13
HETATM   13  C   UNL     1      -8.724   7.742  70.208  1.00  0.00    -0.143 C  
BRANCH  13  14
HETATM   14  S   UNL     1      -9.234   8.491  71.774  1.00  0.00    -0.266 SA 
BRANCH  14  15
HETATM   15  C   UNL     1     -10.927   8.711  71.617  1.00  0.00    -0.308 A  
HETATM   16  N   UNL     1     -11.575   9.801  71.284  1.00  0.00    -0.373 NA 
HETATM   17  C   UNL     1     -11.620   6.354  72.233  1.00  0.00    -0.299 C  
HETATM   18  N   UNL     1     -12.912   9.477  71.346  1.00  0.00    -0.355 NA 
HETATM   19  N   UNL     1     -13.074   8.210  71.701  1.00  0.00    -0.338 NA 
HETATM   20  N   UNL     1     -11.834   7.725  71.864  1.00  0.00    -0.285 NA 
ENDBRANCH  14  15
ENDBRANCH  13  14
ENDBRANCH   4  13
BRANCH  10  21
HETATM   21  N   UNL     1      -9.764  11.965  65.627  1.00  0.00    -0.233 N  
HETATM   22  C   UNL     1     -10.478  12.368  64.520  1.00  0.00    -0.325 C  
HETATM   23  O   UNL     1     -10.160  12.078  63.371  1.00  0.00    -0.428 OA 
HETATM   24  H   UNL     1     -10.081  12.294  66.539  1.00  0.00     0.000 HD 
BRANCH  22  25
HETATM   25  C   UNL     1     -11.728  13.196  64.891  1.00  0.00    -0.340 C  
HETATM   26  H   UNL     1     -13.085  14.256  63.931  1.00  0.00     0.000 HD 
HETATM   27  O   UNL     1     -12.317  13.746  63.702  1.00  0.00    -0.678 OA 
BRANCH  25  28
HETATM   28  C   UNL     1     -11.400  14.317  65.852  1.00  0.00    -0.328 A  
HETATM   29  C   UNL     1     -10.635  15.409  65.416  1.00  0.00    -0.430 A  
HETATM   30  C   UNL     1     -10.319  16.451  66.290  1.00  0.00    -0.337 A  
HETATM   31  C   UNL     1     -10.770  16.420  67.608  1.00  0.00    -0.312 A  
HETATM   32  C   UNL     1     -11.547  15.352  68.052  1.00  0.00    -0.303 A  
HETATM   33  C   UNL     1     -11.863  14.309  67.179  1.00  0.00    -0.454 A  
ENDBRANCH  25  28
ENDBRANCH  22  25
ENDBRANCH  10  21
TORSDOF 6
ENDMDL
MODEL       48
REMARK 921   NORMALIZED FREE ENERGY PREDICTED BY IDOCK:   -5.97 KCAL/MOL
REMARK 922        TOTAL FREE ENERGY PREDICTED BY IDOCK:   -9.11 KCAL/MOL
REMARK 923 INTER-LIGAND FREE ENERGY PREDICTED BY IDOCK:   -8.27 KCAL/MOL
REMARK 924 INTRA-LIGAND FREE ENERGY PREDICTED BY IDOCK:   -0.84 KCAL/MOL
REMARK 927      BINDING AFFINITY PREDICTED BY RF-SCORE:    0.00 PKD
ROOT
HETATM    1  C   UNL     1     -10.865   9.581  67.951  1.00  0.00    -0.180 C  
HETATM    2  S   UNL     1     -11.783  10.809  68.917  1.00  0.00    -0.208 SA 
HETATM    3  C   UNL     1     -11.287  12.176  67.849  1.00  0.00    -0.300 C  
HETATM    4  C   UNL     1      -9.793  12.242  67.552  1.00  0.00    -0.193 C  
HETATM    5  O   UNL     1      -6.710  10.276  67.306  1.00  0.00    -0.071 OA 
HETATM    6  CA  UNL     1      -8.948  11.173  67.668  1.00  0.00    -0.140 C  
HETATM    7  N   UNL     1      -9.457   9.939  67.964  1.00  0.00    -0.134 N  
HETATM    8  O   UNL     1      -7.864   8.345  68.509  1.00  0.00    -0.115 OA 
HETATM    9  C   UNL     1      -7.448  11.371  67.553  1.00  0.00    -0.113 C  
HETATM   10  CA  UNL     1     -10.472   8.278  68.725  1.00  0.00    -0.177 C  
HETATM   11  C   UNL     1      -9.005   8.738  68.400  1.00  0.00    -0.141 C  
HETATM   12  OXT UNL     1      -6.899  12.461  67.610  1.00  0.00    -0.102 OA 
ENDROOT
BRANCH   4  13
HETATM   13  C   UNL     1      -9.380  13.682  67.252  1.00  0.00    -0.233 C  
BRANCH  13  14
HETATM   14  S   UNL     1     -10.638  14.946  67.557  1.00  0.00    -0.271 SA 
BRANCH  14  15
HETATM   15  C   UNL     1     -11.002  15.577  66.005  1.00  0.00    -0.251 A  
HETATM   16  N   UNL     1     -10.490  16.633  65.420  1.00  0.00    -0.622 NA 
HETATM   17  C   UNL     1     -12.747  13.860  65.356  1.00  0.00    -0.490 C  
HETATM   18  N   UNL     1     -11.142  16.745  64.212  1.00  0.00    -1.010 NA 
HETATM   19  N   UNL     1     -12.028  15.770  64.061  1.00  0.00    -0.570 NA 
HETATM   20  N   UNL     1     -11.937  15.031  65.178  1.00  0.00    -0.203 NA 
ENDBRANCH  14  15
ENDBRANCH  13  14
ENDBRANCH   4  13
BRANCH  10  21
HETATM   21  N   UNL     1     -10.830   8.265  70.161  1.00  0.00    -0.241 N  
HETATM   22  C   UNL     1     -11.548   7.268  70.784  1.00  0.00    -0.302 C  
HETATM   23  O   UNL     1     -12.014   6.302  70.190  1.00  0.00    -0.267 OA 
HETATM   24  H   UNL     1     -10.522   9.053  70.732  1.00  0.00     0.000 HD 
BRANCH  22  25
HETATM   25  C   UNL     1     -11.677   7.494  72.307  1.00  0.00    -0.304 C  
HETATM   26  H   UNL     1     -11.977   9.025  73.511  1.00  0.00     0.000 HD 
HETATM   27  O   UNL     1     -11.898   8.887  72.575  1.00  0.00    -0.291 OA 
BRANCH  25  28
HETATM   28  C   UNL     1     -10.448   7.028  73.054  1.00  0.00    -0.307 A  
HETATM   29  C   UNL     1      -9.478   7.960  73.451  1.00  0.00    -0.341 A  
HETATM   30  C   UNL     1      -8.334   7.548  74.139  1.00  0.00    -0.243 A  
HETATM   31  C   UNL     1      -8.150   6.202  74.447  1.00  0.00    -0.111 A  
HETATM   32  C   UNL     1      -9.113   5.267  74.078  1.00  0.00    -0.118 A  
HETATM   33  C   UNL     1     -10.257   5.676  73.390  1.00  0.00    -0.223 A  
ENDBRANCH  25  28
ENDBRANCH  22  25
ENDBRANCH  10  21
TORSDOF 6
ENDMDL
MODEL       49
REMARK 921   NORMALIZED FREE ENERGY PREDICTED BY IDOCK:   -5.97 KCAL/MOL
REMARK 922        TOTAL FREE ENERGY PREDICTED BY IDOCK:   -9.10 KCAL/MOL
REMARK 923 INTER-LIGAND FREE ENERGY PREDICTED BY IDOCK:   -8.35 KCAL/MOL
REMARK 924 INTRA-LIGAND FREE ENERGY PREDICTED BY IDOCK:   -0.75 KCAL/MOL
REMARK 927      BINDING AFFINITY PREDICTED BY RF-SCORE:    0.00 PKD
ROOT
HETATM    1  C   UNL     1      -8.631  14.338  66.400  1.00  0.00     0.281 C  
HETATM    2  S   UNL     1      -7.946  14.487  68.071  1.00  0.00    -0.150 SA 
HETATM    3  C   UNL     1      -8.037  12.711  68.380  1.00  0.00    -0.137 C  
HETATM    4  C   UNL     1      -9.380  12.075  68.044  1.00  0.00    -0.196 C  
HETATM    5  O   UNL     1     -12.386  12.370  65.968  1.00  0.00    -0.627 OA 
HETATM    6  CA  UNL     1     -10.289  12.628  67.184  1.00  0.00    -0.231 C  
HETATM    7  N   UNL     1      -9.961  13.761  66.492  1.00  0.00    -0.281 N  
HETATM    8  O   UNL     1     -11.738  14.771  65.399  1.00  0.00    -0.344 OA 
HETATM    9  C   UNL     1     -11.681  12.037  67.061  1.00  0.00    -0.267 C  
HETATM   10  CA  UNL     1      -9.306  15.634  65.835  1.00  0.00    -0.321 C  
HETATM   11  C   UNL     1     -10.591  14.731  65.786  1.00  0.00    -0.327 C  
HETATM   12  OXT UNL     1     -12.155  11.241  67.858  1.00  0.00    -0.634 OA 
ENDROOT
BRANCH   4  13
HETATM   13  C   UNL     1      -9.602  10.831  68.902  1.00  0.00    -0.195 C  
BRANCH  13  14
HETATM   14  S   UNL     1      -9.496   9.244  68.037  1.00  0.00    -0.138 SA 
BRANCH  14  15
HETATM   15  C   UNL     1      -8.951   8.139  69.230  1.00  0.00    -0.148 A  
HETATM   16  N   UNL     1      -7.716   7.816  69.531  1.00  0.00    -0.103 NA 
HETATM   17  C   UNL     1     -11.228   7.431  70.082  1.00  0.00    -0.218 C  
HETATM   18  N   UNL     1      -7.809   6.857  70.515  1.00  0.00    -0.103 NA 
HETATM   19  N   UNL     1      -9.077   6.608  70.813  1.00  0.00    -0.151 NA 
HETATM   20  N   UNL     1      -9.795   7.414  70.017  1.00  0.00    -0.179 NA 
ENDBRANCH  14  15
ENDBRANCH  13  14
ENDBRANCH   4  13
BRANCH  10  21
HETATM   21  N   UNL     1      -9.367  16.775  66.776  1.00  0.00    -0.235 N  
HETATM   22  C   UNL     1     -10.017  17.964  66.530  1.00  0.00    -0.357 C  
HETATM   23  O   UNL     1     -10.576  18.219  65.467  1.00  0.00    -0.632 OA 
HETATM   24  H   UNL     1      -8.893  16.673  67.674  1.00  0.00     0.000 HD 
BRANCH  22  25
HETATM   25  C   UNL     1      -9.983  18.920  67.742  1.00  0.00    -0.355 C  
HETATM   26  H   UNL     1     -10.929  20.554  68.309  1.00  0.00     0.000 HD 
HETATM   27  O   UNL     1     -10.950  19.967  67.563  1.00  0.00    -0.308 OA 
BRANCH  25  28
HETATM   28  C   UNL     1      -8.615  19.531  67.944  1.00  0.00    -0.357 A  
HETATM   29  C   UNL     1      -7.998  20.225  66.892  1.00  0.00    -0.349 A  
HETATM   30  C   UNL     1      -6.733  20.792  67.059  1.00  0.00    -0.375 A  
HETATM   31  C   UNL     1      -6.072  20.682  68.281  1.00  0.00    -0.368 A  
HETATM   32  C   UNL     1      -6.678  20.013  69.341  1.00  0.00    -0.315 A  
HETATM   33  C   UNL     1      -7.943  19.444  69.176  1.00  0.00    -0.227 A  
ENDBRANCH  25  28
ENDBRANCH  22  25
ENDBRANCH  10  21
TORSDOF 6
ENDMDL
MODEL       50
REMARK 921   NORMALIZED FREE ENERGY PREDICTED BY IDOCK:   -5.97 KCAL/MOL
REMARK 922        TOTAL FREE ENERGY PREDICTED BY IDOCK:   -9.10 KCAL/MOL
REMARK 923 INTER-LIGAND FREE ENERGY PREDICTED BY IDOCK:   -7.95 KCAL/MOL
REMARK 924 INTRA-LIGAND FREE ENERGY PREDICTED BY IDOCK:   -1.15 KCAL/MOL
REMARK 927      BINDING AFFINITY PREDICTED BY RF-SCORE:    0.00 PKD
ROOT
HETATM    1  C   UNL     1     -11.331  14.545  67.599  1.00  0.00    -0.337 C  
HETATM    2  S   UNL     1     -11.571  14.694  65.809  1.00  0.00    -0.292 SA 
HETATM    3  C   UNL     1     -11.238  12.945  65.512  1.00  0.00    -0.288 C  
HETATM    4  C   UNL     1      -9.974  12.416  66.180  1.00  0.00    -0.267 C  
HETATM    5  O   UNL     1      -7.649  12.898  68.973  1.00  0.00    -0.003 OA 
HETATM    6  CA  UNL     1      -9.375  13.015  67.255  1.00  0.00    -0.220 C  
HETATM    7  N   UNL     1      -9.975  14.090  67.850  1.00  0.00    -0.232 N  
HETATM    8  O   UNL     1      -8.644  15.211  69.381  1.00  0.00    -0.215 OA 
HETATM    9  C   UNL     1      -8.013  12.544  67.729  1.00  0.00    -0.163 C  
HETATM   10  CA  UNL     1     -10.950  15.873  68.336  1.00  0.00    -0.331 C  
HETATM   11  C   UNL     1      -9.643  15.085  68.708  1.00  0.00    -0.220 C  
HETATM   12  OXT UNL     1      -7.276  11.821  67.074  1.00  0.00    -0.140 OA 
ENDROOT
BRANCH   4  13
HETATM   13  C   UNL     1      -9.422  11.228  65.395  1.00  0.00    -0.225 C  
BRANCH  13  14
HETATM   14  S   UNL     1      -9.997   9.595  65.923  1.00  0.00    -0.237 SA 
BRANCH  14  15
HETATM   15  C   UNL     1     -10.215   9.742  67.618  1.00  0.00    -0.213 A  
HETATM   16  N   UNL     1     -11.223  10.278  68.261  1.00  0.00    -0.264 NA 
HETATM   17  C   UNL     1      -8.042   8.646  68.321  1.00  0.00    -0.118 C  
HETATM   18  N   UNL     1     -10.903  10.194  69.598  1.00  0.00    -0.245 NA 
HETATM   19  N   UNL     1      -9.725   9.609  69.764  1.00  0.00    -0.209 NA 
HETATM   20  N   UNL     1      -9.294   9.317  68.528  1.00  0.00    -0.141 NA 
ENDBRANCH  14  15
ENDBRANCH  13  14
ENDBRANCH   4  13
BRANCH  10  21
HETATM   21  N   UNL     1     -10.754  17.049  67.457  1.00  0.00    -0.307 N  
HETATM   22  C   UNL     1     -10.333  18.289  67.884  1.00  0.00    -0.399 C  
HETATM   23  O   UNL     1     -10.125  18.561  69.062  1.00  0.00    -0.384 OA 
HETATM   24  H   UNL     1     -10.945  16.931  66.462  1.00  0.00     0.000 HD 
BRANCH  22  25
HETATM   25  C   UNL     1     -10.133  19.280  66.717  1.00  0.00    -0.389 C  
HETATM   26  H   UNL     1     -10.521  19.322  64.785  1.00  0.00     0.000 HD 
HETATM   27  O   UNL     1     -10.645  18.712  65.502  1.00  0.00    -0.608 OA 
BRANCH  25  28
HETATM   28  C   UNL     1      -8.677  19.643  66.526  1.00  0.00    -0.402 A  
HETATM   29  C   UNL     1      -8.152  20.777  67.163  1.00  0.00    -0.244 A  
HETATM   30  C   UNL     1      -6.811  21.130  66.995  1.00  0.00    -0.356 A  
HETATM   31  C   UNL     1      -5.976  20.350  66.197  1.00  0.00    -0.216 A  
HETATM   32  C   UNL     1      -6.477  19.210  65.574  1.00  0.00    -0.303 A  
HETATM   33  C   UNL     1      -7.817  18.856  65.739  1.00  0.00     0.022 A  
ENDBRANCH  25  28
ENDBRANCH  22  25
ENDBRANCH  10  21
TORSDOF 6
ENDMDL
MODEL       51
REMARK 921   NORMALIZED FREE ENERGY PREDICTED BY IDOCK:   -5.96 KCAL/MOL
REMARK 922        TOTAL FREE ENERGY PREDICTED BY IDOCK:   -9.10 KCAL/MOL
REMARK 923 INTER-LIGAND FREE ENERGY PREDICTED BY IDOCK:   -7.55 KCAL/MOL
REMARK 924 INTRA-LIGAND FREE ENERGY PREDICTED BY IDOCK:   -1.55 KCAL/MOL
REMARK 927      BINDING AFFINITY PREDICTED BY RF-SCORE:    0.00 PKD
ROOT
HETATM    1  C   UNL     1      -8.129   9.571  66.280  1.00  0.00    -0.111 C  
HETATM    2  S   UNL     1      -9.892   9.453  65.874  1.00  0.00    -0.237 SA 
HETATM    3  C   UNL     1      -9.984  11.164  65.307  1.00  0.00    -0.260 C  
HETATM    4  C   UNL     1      -9.376  12.185  66.262  1.00  0.00    -0.221 C  
HETATM    5  O   UNL     1      -6.911  12.680  68.928  1.00  0.00    -0.093 OA 
HETATM    6  CA  UNL     1      -8.454  11.872  67.222  1.00  0.00    -0.172 C  
HETATM    7  N   UNL     1      -7.952  10.601  67.288  1.00  0.00    -0.114 N  
HETATM    8  O   UNL     1      -6.719  10.150  69.199  1.00  0.00    -0.051 OA 
HETATM    9  C   UNL     1      -8.055  12.903  68.261  1.00  0.00    -0.151 C  
HETATM   10  CA  UNL     1      -7.615   8.539  67.340  1.00  0.00    -0.097 C  
HETATM   11  C   UNL     1      -7.270   9.829  68.168  1.00  0.00    -0.079 C  
HETATM   12  OXT UNL     1      -8.676  13.935  68.470  1.00  0.00    -0.175 OA 
ENDROOT
BRANCH   4  13
HETATM   13  C   UNL     1     -10.047  13.544  66.073  1.00  0.00    -0.310 C  
BRANCH  13  14
HETATM   14  S   UNL     1     -11.797  13.632  66.527  1.00  0.00    -0.425 SA 
BRANCH  14  15
HETATM   15  C   UNL     1     -11.894  12.818  68.033  1.00  0.00    -0.336 A  
HETATM   16  N   UNL     1     -12.003  11.530  68.251  1.00  0.00    -0.590 NA 
HETATM   17  C   UNL     1     -11.775  14.866  69.518  1.00  0.00    -0.320 C  
HETATM   18  N   UNL     1     -12.093  11.387  69.618  1.00  0.00    -0.314 NA 
HETATM   19  N   UNL     1     -12.030  12.567  70.220  1.00  0.00    -0.333 NA 
HETATM   20  N   UNL     1     -11.897  13.464  69.232  1.00  0.00    -0.319 NA 
ENDBRANCH  14  15
ENDBRANCH  13  14
ENDBRANCH   4  13
BRANCH  10  21
HETATM   21  N   UNL     1      -8.657   7.668  67.928  1.00  0.00    -0.122 N  
HETATM   22  C   UNL     1      -8.463   6.820  68.997  1.00  0.00    -0.128 C  
HETATM   23  O   UNL     1      -7.376   6.664  69.543  1.00  0.00    -0.086 OA 
HETATM   24  H   UNL     1      -9.588   7.697  67.512  1.00  0.00     0.000 HD 
BRANCH  22  25
HETATM   25  C   UNL     1      -9.764   6.116  69.439  1.00  0.00    -0.145 C  
HETATM   26  H   UNL     1     -11.362   5.368  68.560  1.00  0.00     0.000 HD 
HETATM   27  O   UNL     1     -10.562   5.801  68.287  1.00  0.00    -0.218 OA 
BRANCH  25  28
HETATM   28  C   UNL     1     -10.574   6.967  70.392  1.00  0.00    -0.247 A  
HETATM   29  C   UNL     1     -11.922   6.660  70.627  1.00  0.00    -0.404 A  
HETATM   30  C   UNL     1     -12.686   7.437  71.501  1.00  0.00    -0.409 A  
HETATM   31  C   UNL     1     -12.111   8.523  72.157  1.00  0.00    -0.449 A  
HETATM   32  C   UNL     1     -10.768   8.829  71.950  1.00  0.00    -0.429 A  
HETATM   33  C   UNL     1     -10.003   8.054  71.076  1.00  0.00    -0.208 A  
ENDBRANCH  25  28
ENDBRANCH  22  25
ENDBRANCH  10  21
TORSDOF 6
ENDMDL
MODEL       52
REMARK 921   NORMALIZED FREE ENERGY PREDICTED BY IDOCK:   -5.95 KCAL/MOL
REMARK 922        TOTAL FREE ENERGY PREDICTED BY IDOCK:   -9.08 KCAL/MOL
REMARK 923 INTER-LIGAND FREE ENERGY PREDICTED BY IDOCK:   -7.90 KCAL/MOL
REMARK 924 INTRA-LIGAND FREE ENERGY PREDICTED BY IDOCK:   -1.18 KCAL/MOL
REMARK 927      BINDING AFFINITY PREDICTED BY RF-SCORE:    0.00 PKD
ROOT
HETATM    1  C   UNL     1      -9.230  10.003  67.447  1.00  0.00    -0.137 C  
HETATM    2  S   UNL     1     -11.015  10.304  67.343  1.00  0.00    -0.182 SA 
HETATM    3  C   UNL     1     -10.832  11.584  66.084  1.00  0.00    -0.278 C  
HETATM    4  C   UNL     1      -9.787  12.647  66.403  1.00  0.00    -0.263 C  
HETATM    5  O   UNL     1      -6.704  13.337  68.262  1.00  0.00    -0.082 OA 
HETATM    6  CA  UNL     1      -8.761  12.462  67.289  1.00  0.00    -0.191 C  
HETATM    7  N   UNL     1      -8.575  11.232  67.859  1.00  0.00    -0.130 N  
HETATM    8  O   UNL     1      -7.060  11.203  69.613  1.00  0.00    -0.120 OA 
HETATM    9  C   UNL     1      -7.889  13.632  67.702  1.00  0.00    -0.174 C  
HETATM   10  CA  UNL     1      -8.735   9.368  68.790  1.00  0.00    -0.131 C  
HETATM   11  C   UNL     1      -7.904  10.696  68.907  1.00  0.00    -0.129 C  
HETATM   12  OXT UNL     1      -8.178  14.802  67.497  1.00  0.00    -0.158 OA 
ENDROOT
BRANCH   4  13
HETATM   13  C   UNL     1     -10.140  13.959  65.705  1.00  0.00    -0.313 C  
BRANCH  13  14
HETATM   14  S   UNL     1     -11.732  14.691  66.156  1.00  0.00    -0.263 SA 
BRANCH  14  15
HETATM   15  C   UNL     1     -11.696  14.780  67.868  1.00  0.00    -0.341 A  
HETATM   16  N   UNL     1     -12.072  13.871  68.735  1.00  0.00    -0.351 NA 
HETATM   17  C   UNL     1     -10.747  17.121  68.052  1.00  0.00    -0.372 C  
HETATM   18  N   UNL     1     -11.892  14.439  69.977  1.00  0.00    -0.296 NA 
HETATM   19  N   UNL     1     -11.406  15.668  69.867  1.00  0.00    -0.306 NA 
HETATM   20  N   UNL     1     -11.275  15.882  68.549  1.00  0.00    -0.344 NA 
ENDBRANCH  14  15
ENDBRANCH  13  14
ENDBRANCH   4  13
BRANCH  10  21
HETATM   21  N   UNL     1      -9.780   9.181  69.822  1.00  0.00    -0.173 N  
HETATM   22  C   UNL     1     -10.558   8.052  69.958  1.00  0.00    -0.242 C  
HETATM   23  O   UNL     1     -10.496   7.095  69.193  1.00  0.00    -0.201 OA 
HETATM   24  H   UNL     1      -9.936   9.944  70.481  1.00  0.00     0.000 HD 
BRANCH  22  25
HETATM   25  C   UNL     1     -11.491   8.120  71.187  1.00  0.00    -0.276 C  
HETATM   26  H   UNL     1     -12.024   9.479  72.512  1.00  0.00     0.000 HD 
HETATM   27  O   UNL     1     -11.450   9.437  71.756  1.00  0.00    -0.380 OA 
BRANCH  25  28
HETATM   28  C   UNL     1     -11.112   7.106  72.243  1.00  0.00    -0.289 A  
HETATM   29  C   UNL     1     -10.352   7.504  73.352  1.00  0.00    -0.405 A  
HETATM   30  C   UNL     1      -9.989   6.581  74.335  1.00  0.00    -0.374 A  
HETATM   31  C   UNL     1     -10.389   5.251  74.227  1.00  0.00    -0.308 A  
HETATM   32  C   UNL     1     -11.160   4.843  73.142  1.00  0.00    -0.396 A  
HETATM   33  C   UNL     1     -11.523   5.764  72.158  1.00  0.00    -0.295 A  
ENDBRANCH  25  28
ENDBRANCH  22  25
ENDBRANCH  10  21
TORSDOF 6
ENDMDL
MODEL       53
REMARK 921   NORMALIZED FREE ENERGY PREDICTED BY IDOCK:   -5.94 KCAL/MOL
REMARK 922        TOTAL FREE ENERGY PREDICTED BY IDOCK:   -9.07 KCAL/MOL
REMARK 923 INTER-LIGAND FREE ENERGY PREDICTED BY IDOCK:   -8.11 KCAL/MOL
REMARK 924 INTRA-LIGAND FREE ENERGY PREDICTED BY IDOCK:   -0.95 KCAL/MOL
REMARK 927      BINDING AFFINITY PREDICTED BY RF-SCORE:    0.00 PKD
ROOT
HETATM    1  C   UNL     1      -7.957  14.905  69.427  1.00  0.00    -0.123 C  
HETATM    2  S   UNL     1      -9.488  15.792  69.034  1.00  0.00    -0.264 SA 
HETATM    3  C   UNL     1     -10.477  14.282  68.998  1.00  0.00    -0.204 C  
HETATM    4  C   UNL     1      -9.885  13.154  68.162  1.00  0.00    -0.228 C  
HETATM    5  O   UNL     1      -6.778  11.742  66.826  1.00  0.00    -0.125 OA 
HETATM    6  CA  UNL     1      -8.560  13.066  67.833  1.00  0.00    -0.189 C  
HETATM    7  N   UNL     1      -7.674  13.968  68.354  1.00  0.00    -0.130 N  
HETATM    8  O   UNL     1      -5.567  13.916  67.389  1.00  0.00    -0.351 OA 
HETATM    9  C   UNL     1      -8.090  12.028  66.832  1.00  0.00    -0.127 C  
HETATM   10  CA  UNL     1      -6.634  15.648  69.036  1.00  0.00    -0.130 C  
HETATM   11  C   UNL     1      -6.409  14.393  68.118  1.00  0.00    -0.141 C  
HETATM   12  OXT UNL     1      -8.839  11.408  66.091  1.00  0.00    -0.193 OA 
ENDROOT
BRANCH   4  13
HETATM   13  C   UNL     1     -10.997  12.242  67.647  1.00  0.00    -0.244 C  
BRANCH  13  14
HETATM   14  S   UNL     1     -12.129  11.591  68.900  1.00  0.00    -0.081 SA 
BRANCH  14  15
HETATM   15  C   UNL     1     -11.155  10.569  69.874  1.00  0.00    -0.307 A  
HETATM   16  N   UNL     1      -9.959  10.100  69.611  1.00  0.00    -0.233 NA 
HETATM   17  C   UNL     1     -12.769  10.329  71.810  1.00  0.00    -0.433 C  
HETATM   18  N   UNL     1      -9.629   9.295  70.679  1.00  0.00    -0.255 NA 
HETATM   19  N   UNL     1     -10.603   9.282  71.578  1.00  0.00    -0.352 NA 
HETATM   20  N   UNL     1     -11.557  10.085  71.082  1.00  0.00    -0.377 NA 
ENDBRANCH  14  15
ENDBRANCH  13  14
ENDBRANCH   4  13
BRANCH  10  21
HETATM   21  N   UNL     1      -6.819  16.932  68.322  1.00  0.00    -0.159 N  
HETATM   22  C   UNL     1      -6.307  18.142  68.736  1.00  0.00    -0.216 C  
HETATM   23  O   UNL     1      -5.680  18.287  69.780  1.00  0.00    -0.217 OA 
HETATM   24  H   UNL     1      -7.366  16.919  67.461  1.00  0.00     0.000 HD 
BRANCH  22  25
HETATM   25  C   UNL     1      -6.590  19.279  67.729  1.00  0.00    -0.225 C  
HETATM   26  H   UNL     1      -6.241  21.216  67.616  1.00  0.00     0.000 HD 
HETATM   27  O   UNL     1      -6.067  20.517  68.235  1.00  0.00    -0.270 OA 
BRANCH  25  28
HETATM   28  C   UNL     1      -8.068  19.435  67.452  1.00  0.00    -0.313 A  
HETATM   29  C   UNL     1      -8.983  19.417  68.514  1.00  0.00    -0.418 A  
HETATM   30  C   UNL     1     -10.353  19.557  68.277  1.00  0.00    -0.524 A  
HETATM   31  C   UNL     1     -10.824  19.724  66.976  1.00  0.00    -0.465 A  
HETATM   32  C   UNL     1      -9.927  19.764  65.912  1.00  0.00    -0.462 A  
HETATM   33  C   UNL     1      -8.558  19.624  66.147  1.00  0.00    -0.357 A  
ENDBRANCH  25  28
ENDBRANCH  22  25
ENDBRANCH  10  21
TORSDOF 6
ENDMDL
MODEL       54
REMARK 921   NORMALIZED FREE ENERGY PREDICTED BY IDOCK:   -5.90 KCAL/MOL
REMARK 922        TOTAL FREE ENERGY PREDICTED BY IDOCK:   -9.01 KCAL/MOL
REMARK 923 INTER-LIGAND FREE ENERGY PREDICTED BY IDOCK:   -7.82 KCAL/MOL
REMARK 924 INTRA-LIGAND FREE ENERGY PREDICTED BY IDOCK:   -1.19 KCAL/MOL
REMARK 927      BINDING AFFINITY PREDICTED BY RF-SCORE:    0.00 PKD
ROOT
HETATM    1  C   UNL     1     -10.194  16.126  68.381  1.00  0.00    -0.240 C  
HETATM    2  S   UNL     1      -9.668  14.569  69.146  1.00  0.00     0.023 SA 
HETATM    3  C   UNL     1      -8.105  15.260  69.727  1.00  0.00    -0.028 C  
HETATM    4  C   UNL     1      -7.314  16.022  68.671  1.00  0.00    -0.159 C  
HETATM    5  O   UNL     1      -7.567  17.927  65.550  1.00  0.00    -0.518 OA 
HETATM    6  CA  UNL     1      -7.870  16.547  67.537  1.00  0.00    -0.155 C  
HETATM    7  N   UNL     1      -9.226  16.493  67.363  1.00  0.00    -0.215 N  
HETATM    8  O   UNL     1      -9.947  17.064  65.234  1.00  0.00    -0.472 OA 
HETATM    9  C   UNL     1      -6.983  17.110  66.442  1.00  0.00    -0.261 C  
HETATM   10  CA  UNL     1     -11.249  15.985  67.232  1.00  0.00    -0.041 C  
HETATM   11  C   UNL     1     -10.121  16.640  66.356  1.00  0.00    -0.315 C  
HETATM   12  OXT UNL     1      -5.779  16.911  66.372  1.00  0.00    -0.330 OA 
ENDROOT
BRANCH   4  13
HETATM   13  C   UNL     1      -5.823  15.982  69.000  1.00  0.00    -0.120 C  
BRANCH  13  14
HETATM   14  S   UNL     1      -5.224  14.458  69.772  1.00  0.00    -0.092 SA 
BRANCH  14  15
HETATM   15  C   UNL     1      -5.505  13.241  68.597  1.00  0.00    -0.076 A  
HETATM   16  N   UNL     1      -5.422  13.339  67.293  1.00  0.00    -0.337 NA 
HETATM   17  C   UNL     1      -6.101  11.374  70.202  1.00  0.00    -0.154 C  
HETATM   18  N   UNL     1      -5.788  12.107  66.799  1.00  0.00    -0.263 NA 
HETATM   19  N   UNL     1      -6.080  11.271  67.787  1.00  0.00    -0.047 NA 
HETATM   20  N   UNL     1      -5.896  11.975  68.914  1.00  0.00    -0.051 NA 
ENDBRANCH  14  15
ENDBRANCH  13  14
ENDBRANCH   4  13
BRANCH  10  21
HETATM   21  N   UNL     1     -11.606  14.595  66.872  1.00  0.00    -0.369 N  
HETATM   22  C   UNL     1     -11.976  14.179  65.611  1.00  0.00    -0.396 C  
HETATM   23  O   UNL     1     -12.097  14.943  64.659  1.00  0.00    -0.427 OA 
HETATM   24  H   UNL     1     -11.577  13.892  67.611  1.00  0.00     0.000 HD 
BRANCH  22  25
HETATM   25  C   UNL     1     -12.194  12.653  65.531  1.00  0.00    -0.440 C  
HETATM   26  H   UNL     1     -12.498  11.177  66.802  1.00  0.00     0.000 HD 
HETATM   27  O   UNL     1     -12.363  12.115  66.851  1.00  0.00    -0.402 OA 
BRANCH  25  28
HETATM   28  C   UNL     1     -11.042  11.950  64.848  1.00  0.00    -0.363 A  
HETATM   29  C   UNL     1     -10.147  11.180  65.605  1.00  0.00    -0.304 A  
HETATM   30  C   UNL     1      -9.075  10.527  64.993  1.00  0.00    -0.231 A  
HETATM   31  C   UNL     1      -8.889  10.629  63.616  1.00  0.00    -0.183 A  
HETATM   32  C   UNL     1      -9.779  11.374  62.847  1.00  0.00    -0.344 A  
HETATM   33  C   UNL     1     -10.851  12.028  63.457  1.00  0.00    -0.509 A  
ENDBRANCH  25  28
ENDBRANCH  22  25
ENDBRANCH  10  21
TORSDOF 6
ENDMDL
MODEL       55
REMARK 921   NORMALIZED FREE ENERGY PREDICTED BY IDOCK:   -5.90 KCAL/MOL
REMARK 922        TOTAL FREE ENERGY PREDICTED BY IDOCK:   -9.00 KCAL/MOL
REMARK 923 INTER-LIGAND FREE ENERGY PREDICTED BY IDOCK:   -8.23 KCAL/MOL
REMARK 924 INTRA-LIGAND FREE ENERGY PREDICTED BY IDOCK:   -0.78 KCAL/MOL
REMARK 927      BINDING AFFINITY PREDICTED BY RF-SCORE:    0.00 PKD
ROOT
HETATM    1  C   UNL     1     -11.082   9.517  68.169  1.00  0.00     0.006 C  
HETATM    2  S   UNL     1     -11.574  10.345  69.704  1.00  0.00    -0.215 SA 
HETATM    3  C   UNL     1     -11.646  11.972  68.928  1.00  0.00    -0.321 C  
HETATM    4  C   UNL     1     -10.421  12.336  68.097  1.00  0.00    -0.228 C  
HETATM    5  O   UNL     1      -7.626  10.982  66.151  1.00  0.00    -0.145 OA 
HETATM    6  CA  UNL     1      -9.549  11.414  67.586  1.00  0.00    -0.169 C  
HETATM    7  N   UNL     1      -9.821  10.080  67.722  1.00  0.00    -0.153 N  
HETATM    8  O   UNL     1      -8.063   8.678  67.156  1.00  0.00    -0.100 OA 
HETATM    9  C   UNL     1      -8.249  11.866  66.947  1.00  0.00    -0.157 C  
HETATM   10  CA  UNL     1     -10.331   8.155  68.354  1.00  0.00    -0.199 C  
HETATM   11  C   UNL     1      -9.163   8.900  67.613  1.00  0.00    -0.136 C  
HETATM   12  OXT UNL     1      -7.786  12.991  67.068  1.00  0.00    -0.103 OA 
ENDROOT
BRANCH   4  13
HETATM   13  C   UNL     1     -10.250  13.853  68.049  1.00  0.00    -0.246 C  
BRANCH  13  14
HETATM   14  S   UNL     1     -11.702  14.796  67.522  1.00  0.00    -0.291 SA 
BRANCH  14  15
HETATM   15  C   UNL     1     -12.119  14.131  65.998  1.00  0.00    -0.432 A  
HETATM   16  N   UNL     1     -12.698  12.981  65.747  1.00  0.00    -0.434 NA 
HETATM   17  C   UNL     1     -11.252  16.031  64.565  1.00  0.00    -0.297 C  
HETATM   18  N   UNL     1     -12.770  12.889  64.375  1.00  0.00    -0.700 NA 
HETATM   19  N   UNL     1     -12.251  13.967  63.802  1.00  0.00    -0.651 NA 
HETATM   20  N   UNL     1     -11.851  14.750  64.815  1.00  0.00    -0.423 NA 
ENDBRANCH  14  15
ENDBRANCH  13  14
ENDBRANCH   4  13
BRANCH  10  21
HETATM   21  N   UNL     1     -10.051   7.774  69.757  1.00  0.00    -0.190 N  
HETATM   22  C   UNL     1     -10.810   6.897  70.500  1.00  0.00    -0.253 C  
HETATM   23  O   UNL     1     -11.838   6.374  70.082  1.00  0.00    -0.409 OA 
HETATM   24  H   UNL     1      -9.237   8.193  70.207  1.00  0.00     0.000 HD 
BRANCH  22  25
HETATM   25  C   UNL     1     -10.209   6.630  71.897  1.00  0.00    -0.186 C  
HETATM   26  H   UNL     1      -8.470   6.894  72.786  1.00  0.00     0.000 HD 
HETATM   27  O   UNL     1      -8.839   7.059  71.927  1.00  0.00    -0.126 OA 
BRANCH  25  28
HETATM   28  C   UNL     1     -10.284   5.168  72.277  1.00  0.00    -0.255 A  
HETATM   29  C   UNL     1      -9.514   4.225  71.580  1.00  0.00    -0.220 A  
HETATM   30  C   UNL     1      -9.574   2.871  71.914  1.00  0.00    -0.215 A  
HETATM   31  C   UNL     1     -10.396   2.442  72.953  1.00  0.00    -0.239 A  
HETATM   32  C   UNL     1     -11.153   3.367  73.668  1.00  0.00    -0.316 A  
HETATM   33  C   UNL     1     -11.095   4.721  73.335  1.00  0.00    -0.422 A  
ENDBRANCH  25  28
ENDBRANCH  22  25
ENDBRANCH  10  21
TORSDOF 6
ENDMDL
MODEL       56
REMARK 921   NORMALIZED FREE ENERGY PREDICTED BY IDOCK:   -5.88 KCAL/MOL
REMARK 922        TOTAL FREE ENERGY PREDICTED BY IDOCK:   -8.98 KCAL/MOL
REMARK 923 INTER-LIGAND FREE ENERGY PREDICTED BY IDOCK:   -7.78 KCAL/MOL
REMARK 924 INTRA-LIGAND FREE ENERGY PREDICTED BY IDOCK:   -1.21 KCAL/MOL
REMARK 927      BINDING AFFINITY PREDICTED BY RF-SCORE:    0.00 PKD
ROOT
HETATM    1  C   UNL     1     -10.810  10.266  69.073  1.00  0.00    -0.230 C  
HETATM    2  S   UNL     1      -9.161  10.976  68.822  1.00  0.00    -0.128 SA 
HETATM    3  C   UNL     1      -8.322   9.414  69.157  1.00  0.00    -0.125 C  
HETATM    4  C   UNL     1      -8.780   8.705  70.426  1.00  0.00    -0.165 C  
HETATM    5  O   UNL     1     -11.568   8.282  72.767  1.00  0.00    -0.395 OA 
HETATM    6  CA  UNL     1      -9.986   8.933  71.031  1.00  0.00    -0.256 C  
HETATM    7  N   UNL     1     -10.896   9.761  70.432  1.00  0.00    -0.287 N  
HETATM    8  O   UNL     1     -12.697  10.341  71.770  1.00  0.00    -0.408 OA 
HETATM    9  C   UNL     1     -10.279   8.341  72.397  1.00  0.00    -0.327 C  
HETATM   10  CA  UNL     1     -11.930  11.292  69.456  1.00  0.00    -0.351 C  
HETATM   11  C   UNL     1     -12.024  10.432  70.767  1.00  0.00    -0.363 C  
HETATM   12  OXT UNL     1      -9.424   7.868  73.131  1.00  0.00    -0.233 OA 
ENDROOT
BRANCH   4  13
HETATM   13  C   UNL     1      -7.655   7.831  70.977  1.00  0.00    -0.082 C  
BRANCH  13  14
HETATM   14  S   UNL     1      -7.496   6.188  70.236  1.00  0.00    -0.092 SA 
BRANCH  14  15
HETATM   15  C   UNL     1      -8.478   5.177  71.212  1.00  0.00    -0.123 A  
HETATM   16  N   UNL     1      -8.135   4.504  72.284  1.00  0.00    -0.099 NA 
HETATM   17  C   UNL     1     -10.628   5.449  69.901  1.00  0.00    -0.281 C  
HETATM   18  N   UNL     1      -9.263   3.814  72.671  1.00  0.00    -0.104 NA 
HETATM   19  N   UNL     1     -10.276   4.070  71.854  1.00  0.00    -0.137 NA 
HETATM   20  N   UNL     1      -9.791   4.930  70.945  1.00  0.00    -0.193 NA 
ENDBRANCH  14  15
ENDBRANCH  13  14
ENDBRANCH   4  13
BRANCH  10  21
HETATM   21  N   UNL     1     -11.469  12.687  69.643  1.00  0.00    -0.461 N  
HETATM   22  C   UNL     1     -11.694  13.715  68.755  1.00  0.00    -0.348 C  
HETATM   23  O   UNL     1     -12.264  13.564  67.679  1.00  0.00    -0.312 OA 
HETATM   24  H   UNL     1     -10.947  12.902  70.493  1.00  0.00     0.000 HD 
BRANCH  22  25
HETATM   25  C   UNL     1     -11.174  15.073  69.277  1.00  0.00    -0.286 C  
HETATM   26  H   UNL     1     -11.960  16.730  69.999  1.00  0.00     0.000 HD 
HETATM   27  O   UNL     1     -12.280  15.895  69.679  1.00  0.00    -0.303 OA 
BRANCH  25  28
HETATM   28  C   UNL     1     -10.357  15.805  68.236  1.00  0.00    -0.239 A  
HETATM   29  C   UNL     1     -10.665  17.136  67.917  1.00  0.00    -0.355 A  
HETATM   30  C   UNL     1      -9.924  17.827  66.955  1.00  0.00    -0.322 A  
HETATM   31  C   UNL     1      -8.862  17.200  66.308  1.00  0.00    -0.266 A  
HETATM   32  C   UNL     1      -8.531  15.886  66.626  1.00  0.00    -0.322 A  
HETATM   33  C   UNL     1      -9.271  15.193  67.587  1.00  0.00    -0.181 A  
ENDBRANCH  25  28
ENDBRANCH  22  25
ENDBRANCH  10  21
TORSDOF 6
ENDMDL
MODEL       57
REMARK 921   NORMALIZED FREE ENERGY PREDICTED BY IDOCK:   -5.87 KCAL/MOL
REMARK 922        TOTAL FREE ENERGY PREDICTED BY IDOCK:   -8.97 KCAL/MOL
REMARK 923 INTER-LIGAND FREE ENERGY PREDICTED BY IDOCK:   -9.62 KCAL/MOL
REMARK 924 INTRA-LIGAND FREE ENERGY PREDICTED BY IDOCK:    0.65 KCAL/MOL
REMARK 927      BINDING AFFINITY PREDICTED BY RF-SCORE:    0.00 PKD
ROOT
HETATM    1  C   UNL     1      -9.435  14.570  65.866  1.00  0.00    -0.184 C  
HETATM    2  S   UNL     1      -9.194  13.412  67.241  1.00  0.00    -0.231 SA 
HETATM    3  C   UNL     1      -8.960  11.997  66.146  1.00  0.00    -0.079 C  
HETATM    4  C   UNL     1     -10.020  11.850  65.060  1.00  0.00    -0.276 C  
HETATM    5  O   UNL     1     -12.469  13.656  63.017  1.00  0.00    -0.719 OA 
HETATM    6  CA  UNL     1     -10.809  12.879  64.625  1.00  0.00    -0.342 C  
HETATM    7  N   UNL     1     -10.591  14.144  65.098  1.00  0.00    -0.373 N  
HETATM    8  O   UNL     1     -12.253  15.670  64.568  1.00  0.00    -0.189 OA 
HETATM    9  C   UNL     1     -11.973  12.605  63.691  1.00  0.00    -0.535 C  
HETATM   10  CA  UNL     1     -10.232  15.871  66.218  1.00  0.00    -0.311 C  
HETATM   11  C   UNL     1     -11.243  15.331  65.143  1.00  0.00    -0.370 C  
HETATM   12  OXT UNL     1     -12.428  11.491  63.479  1.00  0.00    -0.326 OA 
ENDROOT
BRANCH   4  13
HETATM   13  C   UNL     1     -10.151  10.385  64.648  1.00  0.00    -0.308 C  
BRANCH  13  14
HETATM   14  S   UNL     1      -8.785   9.302  65.134  1.00  0.00    -0.194 SA 
BRANCH  14  15
HETATM   15  C   UNL     1      -9.247   8.688  66.667  1.00  0.00    -0.181 A  
HETATM   16  N   UNL     1     -10.456   8.443  67.112  1.00  0.00    -0.315 NA 
HETATM   17  C   UNL     1      -6.920   8.477  67.646  1.00  0.00    -0.078 C  
HETATM   18  N   UNL     1     -10.298   8.011  68.410  1.00  0.00    -0.207 NA 
HETATM   19  N   UNL     1      -9.015   7.985  68.745  1.00  0.00    -0.141 NA 
HETATM   20  N   UNL     1      -8.353   8.400  67.655  1.00  0.00    -0.129 NA 
ENDBRANCH  14  15
ENDBRANCH  13  14
ENDBRANCH   4  13
BRANCH  10  21
HETATM   21  N   UNL     1     -10.753  15.936  67.603  1.00  0.00    -0.308 N  
HETATM   22  C   UNL     1     -11.804  15.186  68.084  1.00  0.00    -0.228 C  
HETATM   23  O   UNL     1     -12.455  14.414  67.387  1.00  0.00    -0.184 OA 
HETATM   24  H   UNL     1     -10.301  16.584  68.248  1.00  0.00     0.000 HD 
BRANCH  22  25
HETATM   25  C   UNL     1     -12.048  15.408  69.592  1.00  0.00    -0.327 C  
HETATM   26  H   UNL     1     -11.031  16.123  71.122  1.00  0.00     0.000 HD 
HETATM   27  O   UNL     1     -10.881  15.986  70.194  1.00  0.00    -0.321 OA 
BRANCH  25  28
HETATM   28  C   UNL     1     -12.394  14.120  70.306  1.00  0.00    -0.421 A  
HETATM   29  C   UNL     1     -11.913  12.899  69.813  1.00  0.00    -0.365 A  
HETATM   30  C   UNL     1     -12.225  11.699  70.456  1.00  0.00    -0.451 A  
HETATM   31  C   UNL     1     -13.014  11.705  71.605  1.00  0.00    -0.483 A  
HETATM   32  C   UNL     1     -13.484  12.911  72.118  1.00  0.00    -0.619 A  
HETATM   33  C   UNL     1     -13.174  14.111  71.476  1.00  0.00    -0.423 A  
ENDBRANCH  25  28
ENDBRANCH  22  25
ENDBRANCH  10  21
TORSDOF 6
ENDMDL
MODEL       58
REMARK 921   NORMALIZED FREE ENERGY PREDICTED BY IDOCK:   -5.86 KCAL/MOL
REMARK 922        TOTAL FREE ENERGY PREDICTED BY IDOCK:   -8.95 KCAL/MOL
REMARK 923 INTER-LIGAND FREE ENERGY PREDICTED BY IDOCK:   -8.41 KCAL/MOL
REMARK 924 INTRA-LIGAND FREE ENERGY PREDICTED BY IDOCK:   -0.54 KCAL/MOL
REMARK 927      BINDING AFFINITY PREDICTED BY RF-SCORE:    0.00 PKD
ROOT
HETATM    1  C   UNL     1      -8.260   9.374  69.694  1.00  0.00    -0.136 C  
HETATM    2  S   UNL     1      -8.072   8.450  68.146  1.00  0.00    -0.121 SA 
HETATM    3  C   UNL     1      -8.435   9.889  67.120  1.00  0.00    -0.121 C  
HETATM    4  C   UNL     1      -9.684  10.662  67.526  1.00  0.00    -0.189 C  
HETATM    5  O   UNL     1     -11.919  11.468  70.317  1.00  0.00    -0.333 OA 
HETATM    6  CA  UNL     1     -10.244  10.600  68.773  1.00  0.00    -0.190 C  
HETATM    7  N   UNL     1      -9.613   9.897  69.762  1.00  0.00    -0.225 N  
HETATM    8  O   UNL     1     -10.885   9.570  71.672  1.00  0.00    -0.343 OA 
HETATM    9  C   UNL     1     -11.596  11.236  69.034  1.00  0.00    -0.319 C  
HETATM   10  CA  UNL     1      -8.603   8.509  70.954  1.00  0.00    -0.158 C  
HETATM   11  C   UNL     1      -9.908   9.383  70.981  1.00  0.00    -0.247 C  
HETATM   12  OXT UNL     1     -12.361  11.597  68.152  1.00  0.00    -0.429 OA 
ENDROOT
BRANCH   4  13
HETATM   13  C   UNL     1     -10.274  11.383  66.315  1.00  0.00    -0.233 C  
BRANCH  13  14
HETATM   14  S   UNL     1      -9.938  13.158  66.212  1.00  0.00    -0.287 SA 
BRANCH  14  15
HETATM   15  C   UNL     1     -11.098  13.752  65.096  1.00  0.00    -0.328 A  
HETATM   16  N   UNL     1     -11.897  13.066  64.316  1.00  0.00    -0.372 NA 
HETATM   17  C   UNL     1     -10.690  16.221  65.488  1.00  0.00    -0.313 C  
HETATM   18  N   UNL     1     -12.595  13.997  63.580  1.00  0.00    -0.792 NA 
HETATM   19  N   UNL     1     -12.232  15.229  63.913  1.00  0.00    -0.534 NA 
HETATM   20  N   UNL     1     -11.301  15.080  64.868  1.00  0.00    -0.408 NA 
ENDBRANCH  14  15
ENDBRANCH  13  14
ENDBRANCH   4  13
BRANCH  10  21
HETATM   21  N   UNL     1      -8.811   7.067  70.690  1.00  0.00    -0.149 N  
HETATM   22  C   UNL     1      -9.506   6.209  71.514  1.00  0.00    -0.148 C  
HETATM   23  O   UNL     1      -9.985   6.549  72.591  1.00  0.00    -0.170 OA 
HETATM   24  H   UNL     1      -8.410   6.680  69.835  1.00  0.00     0.000 HD 
BRANCH  22  25
HETATM   25  C   UNL     1      -9.631   4.789  70.919  1.00  0.00    -0.177 C  
HETATM   26  H   UNL     1      -8.520   3.163  70.837  1.00  0.00     0.000 HD 
HETATM   27  O   UNL     1      -8.442   4.036  71.202  1.00  0.00    -0.074 OA 
BRANCH  25  28
HETATM   28  C   UNL     1      -9.862   4.818  69.425  1.00  0.00    -0.282 A  
HETATM   29  C   UNL     1      -9.292   3.828  68.612  1.00  0.00    -0.226 A  
HETATM   30  C   UNL     1      -9.491   3.841  67.229  1.00  0.00    -0.238 A  
HETATM   31  C   UNL     1     -10.269   4.838  66.644  1.00  0.00    -0.274 A  
HETATM   32  C   UNL     1     -10.858   5.817  67.439  1.00  0.00    -0.279 A  
HETATM   33  C   UNL     1     -10.660   5.806  68.821  1.00  0.00    -0.321 A  
ENDBRANCH  25  28
ENDBRANCH  22  25
ENDBRANCH  10  21
TORSDOF 6
ENDMDL
MODEL       59
REMARK 921   NORMALIZED FREE ENERGY PREDICTED BY IDOCK:   -5.85 KCAL/MOL
REMARK 922        TOTAL FREE ENERGY PREDICTED BY IDOCK:   -8.95 KCAL/MOL
REMARK 923 INTER-LIGAND FREE ENERGY PREDICTED BY IDOCK:   -8.17 KCAL/MOL
REMARK 924 INTRA-LIGAND FREE ENERGY PREDICTED BY IDOCK:   -0.77 KCAL/MOL
REMARK 927      BINDING AFFINITY PREDICTED BY RF-SCORE:    0.00 PKD
ROOT
HETATM    1  C   UNL     1     -11.439  10.363  69.096  1.00  0.00    -0.196 C  
HETATM    2  S   UNL     1      -9.654  10.428  68.786  1.00  0.00    -0.185 SA 
HETATM    3  C   UNL     1      -9.414   8.686  69.191  1.00  0.00    -0.157 C  
HETATM    4  C   UNL     1     -10.055   8.242  70.501  1.00  0.00    -0.210 C  
HETATM    5  O   UNL     1     -12.738   8.942  72.898  1.00  0.00    -0.301 OA 
HETATM    6  CA  UNL     1     -11.082   8.911  71.109  1.00  0.00    -0.285 C  
HETATM    7  N   UNL     1     -11.657   9.981  70.480  1.00  0.00    -0.301 N  
HETATM    8  O   UNL     1     -13.093  11.222  71.811  1.00  0.00    -0.472 OA 
HETATM    9  C   UNL     1     -11.523   8.522  72.507  1.00  0.00    -0.298 C  
HETATM   10  CA  UNL     1     -12.110  11.736  69.440  1.00  0.00    -0.238 C  
HETATM   11  C   UNL     1     -12.463  11.024  70.795  1.00  0.00    -0.396 C  
HETATM   12  OXT UNL     1     -10.870   7.808  73.254  1.00  0.00    -0.383 OA 
ENDROOT
BRANCH   4  13
HETATM   13  C   UNL     1      -9.296   7.050  71.081  1.00  0.00    -0.158 C  
BRANCH  13  14
HETATM   14  S   UNL     1      -7.497   7.089  70.887  1.00  0.00    -0.082 SA 
BRANCH  14  15
HETATM   15  C   UNL     1      -6.944   8.069  72.181  1.00  0.00    -0.077 A  
HETATM   16  N   UNL     1      -7.109   7.880  73.468  1.00  0.00    -0.104 NA 
HETATM   17  C   UNL     1      -5.818   9.853  70.779  1.00  0.00    -0.086 C  
HETATM   18  N   UNL     1      -6.525   8.965  74.084  1.00  0.00    -0.319 NA 
HETATM   19  N   UNL     1      -6.007   9.794  73.188  1.00  0.00    -0.100 NA 
HETATM   20  N   UNL     1      -6.260   9.233  71.996  1.00  0.00    -0.267 NA 
ENDBRANCH  14  15
ENDBRANCH  13  14
ENDBRANCH   4  13
BRANCH  10  21
HETATM   21  N   UNL     1     -11.179  12.882  69.549  1.00  0.00    -0.460 N  
HETATM   22  C   UNL     1     -11.282  14.050  68.826  1.00  0.00    -0.271 C  
HETATM   23  O   UNL     1     -12.139  14.239  67.969  1.00  0.00    -0.338 OA 
HETATM   24  H   UNL     1     -10.404  12.801  70.208  1.00  0.00     0.000 HD 
BRANCH  22  25
HETATM   25  C   UNL     1     -10.219  15.094  69.233  1.00  0.00    -0.251 C  
HETATM   26  H   UNL     1      -9.793  16.162  70.834  1.00  0.00     0.000 HD 
HETATM   27  O   UNL     1     -10.447  15.520  70.584  1.00  0.00    -0.265 OA 
BRANCH  25  28
HETATM   28  C   UNL     1     -10.229  16.299  68.319  1.00  0.00    -0.253 A  
HETATM   29  C   UNL     1      -9.972  16.139  66.950  1.00  0.00    -0.258 A  
HETATM   30  C   UNL     1      -9.974  17.240  66.091  1.00  0.00    -0.288 A  
HETATM   31  C   UNL     1     -10.241  18.514  66.588  1.00  0.00    -0.429 A  
HETATM   32  C   UNL     1     -10.518  18.688  67.942  1.00  0.00    -0.431 A  
HETATM   33  C   UNL     1     -10.516  17.588  68.801  1.00  0.00    -0.318 A  
ENDBRANCH  25  28
ENDBRANCH  22  25
ENDBRANCH  10  21
TORSDOF 6
ENDMDL
MODEL       60
REMARK 921   NORMALIZED FREE ENERGY PREDICTED BY IDOCK:   -5.84 KCAL/MOL
REMARK 922        TOTAL FREE ENERGY PREDICTED BY IDOCK:   -8.93 KCAL/MOL
REMARK 923 INTER-LIGAND FREE ENERGY PREDICTED BY IDOCK:   -8.36 KCAL/MOL
REMARK 924 INTRA-LIGAND FREE ENERGY PREDICTED BY IDOCK:   -0.57 KCAL/MOL
REMARK 927      BINDING AFFINITY PREDICTED BY RF-SCORE:    0.00 PKD
ROOT
HETATM    1  C   UNL     1     -10.497  15.536  69.137  1.00  0.00    -0.232 C  
HETATM    2  S   UNL     1     -11.509  15.648  67.637  1.00  0.00    -0.082 SA 
HETATM    3  C   UNL     1     -11.667  13.857  67.483  1.00  0.00    -0.380 C  
HETATM    4  C   UNL     1     -10.355  13.090  67.592  1.00  0.00    -0.222 C  
HETATM    5  O   UNL     1      -6.956  13.171  68.962  1.00  0.00    -0.100 OA 
HETATM    6  CA  UNL     1      -9.230  13.590  68.189  1.00  0.00    -0.208 C  
HETATM    7  N   UNL     1      -9.284  14.800  68.824  1.00  0.00    -0.197 N  
HETATM    8  O   UNL     1      -7.219  15.666  69.425  1.00  0.00    -0.188 OA 
HETATM    9  C   UNL     1      -7.912  12.848  68.075  1.00  0.00    -0.158 C  
HETATM   10  CA  UNL     1      -9.588  16.779  69.426  1.00  0.00    -0.010 C  
HETATM   11  C   UNL     1      -8.421  15.735  69.291  1.00  0.00    -0.258 C  
HETATM   12  OXT UNL     1      -7.704  11.948  67.275  1.00  0.00    -0.147 OA 
ENDROOT
BRANCH   4  13
HETATM   13  C   UNL     1     -10.450  11.772  66.826  1.00  0.00    -0.225 C  
BRANCH  13  14
HETATM   14  S   UNL     1     -10.037  11.849  65.066  1.00  0.00    -0.260 SA 
BRANCH  14  15
HETATM   15  C   UNL     1     -10.942  13.176  64.467  1.00  0.00    -0.372 A  
HETATM   16  N   UNL     1     -10.615  14.446  64.468  1.00  0.00    -0.292 NA 
HETATM   17  C   UNL     1     -12.959  11.864  63.677  1.00  0.00    -0.187 C  
HETATM   18  N   UNL     1     -11.692  15.111  63.924  1.00  0.00    -0.157 NA 
HETATM   19  N   UNL     1     -12.652  14.260  63.590  1.00  0.00    -0.755 NA 
HETATM   20  N   UNL     1     -12.183  13.047  63.921  1.00  0.00    -0.567 NA 
ENDBRANCH  14  15
ENDBRANCH  13  14
ENDBRANCH   4  13
BRANCH  10  21
HETATM   21  N   UNL     1      -9.618  17.836  68.390  1.00  0.00    -0.310 N  
HETATM   22  C   UNL     1      -9.892  19.164  68.629  1.00  0.00    -0.420 C  
HETATM   23  O   UNL     1     -10.193  19.601  69.735  1.00  0.00    -0.131 OA 
HETATM   24  H   UNL     1      -9.421  17.560  67.427  1.00  0.00     0.000 HD 
BRANCH  22  25
HETATM   25  C   UNL     1      -9.752  20.036  67.362  1.00  0.00    -0.417 C  
HETATM   26  H   UNL     1     -10.448  20.011  65.518  1.00  0.00     0.000 HD 
HETATM   27  O   UNL     1     -10.535  19.475  66.297  1.00  0.00    -0.446 OA 
BRANCH  25  28
HETATM   28  C   UNL     1      -8.312  20.159  66.914  1.00  0.00    -0.370 A  
HETATM   29  C   UNL     1      -7.423  20.964  67.640  1.00  0.00    -0.239 A  
HETATM   30  C   UNL     1      -6.091  21.092  67.240  1.00  0.00    -0.403 A  
HETATM   31  C   UNL     1      -5.629  20.411  66.116  1.00  0.00    -0.204 A  
HETATM   32  C   UNL     1      -6.495  19.592  65.395  1.00  0.00    -0.300 A  
HETATM   33  C   UNL     1      -7.826  19.463  65.793  1.00  0.00    -0.120 A  
ENDBRANCH  25  28
ENDBRANCH  22  25
ENDBRANCH  10  21
TORSDOF 6
ENDMDL
MODEL       61
REMARK 921   NORMALIZED FREE ENERGY PREDICTED BY IDOCK:   -5.80 KCAL/MOL
REMARK 922        TOTAL FREE ENERGY PREDICTED BY IDOCK:   -8.88 KCAL/MOL
REMARK 923 INTER-LIGAND FREE ENERGY PREDICTED BY IDOCK:   -7.87 KCAL/MOL
REMARK 924 INTRA-LIGAND FREE ENERGY PREDICTED BY IDOCK:   -1.00 KCAL/MOL
REMARK 927      BINDING AFFINITY PREDICTED BY RF-SCORE:    0.00 PKD
ROOT
HETATM    1  C   UNL     1     -11.531  12.043  66.538  1.00  0.00    -0.349 C  
HETATM    2  S   UNL     1     -10.039  12.079  65.510  1.00  0.00    -0.255 SA 
HETATM    3  C   UNL     1     -10.004  10.286  65.312  1.00  0.00    -0.317 C  
HETATM    4  C   UNL     1     -10.147   9.499  66.610  1.00  0.00    -0.321 C  
HETATM    5  O   UNL     1     -11.471   9.595  70.026  1.00  0.00    -0.225 OA 
HETATM    6  CA  UNL     1     -10.698  10.013  67.752  1.00  0.00    -0.280 C  
HETATM    7  N   UNL     1     -11.254  11.262  67.731  1.00  0.00    -0.271 N  
HETATM    8  O   UNL     1     -11.773  12.120  69.821  1.00  0.00    -0.310 OA 
HETATM    9  C   UNL     1     -10.617   9.236  69.053  1.00  0.00    -0.205 C  
HETATM   10  CA  UNL     1     -11.728  13.281  67.476  1.00  0.00    -0.366 C  
HETATM   11  C   UNL     1     -11.648  12.207  68.619  1.00  0.00    -0.321 C  
HETATM   12  OXT UNL     1      -9.875   8.282  69.232  1.00  0.00    -0.178 OA 
ENDROOT
BRANCH   4  13
HETATM   13  C   UNL     1      -9.470   8.137  66.477  1.00  0.00    -0.221 C  
BRANCH  13  14
HETATM   14  S   UNL     1      -7.665   8.161  66.339  1.00  0.00    -0.093 SA 
BRANCH  14  15
HETATM   15  C   UNL     1      -7.357   7.919  64.670  1.00  0.00    -0.084 A  
HETATM   16  N   UNL     1      -7.530   6.828  63.964  1.00  0.00    -0.090 NA 
HETATM   17  C   UNL     1      -6.504  10.247  64.155  1.00  0.00    -0.084 C  
HETATM   18  N   UNL     1      -7.093   7.129  62.693  1.00  0.00    -0.064 NA 
HETATM   19  N   UNL     1      -6.669   8.384  62.626  1.00  0.00    -0.091 NA 
HETATM   20  N   UNL     1      -6.840   8.884  63.859  1.00  0.00    -0.087 NA 
ENDBRANCH  14  15
ENDBRANCH  13  14
ENDBRANCH   4  13
BRANCH  10  21
HETATM   21  N   UNL     1     -10.626  14.270  67.456  1.00  0.00    -0.260 N  
HETATM   22  C   UNL     1     -10.488  15.313  68.345  1.00  0.00    -0.236 C  
HETATM   23  O   UNL     1     -11.307  15.560  69.225  1.00  0.00    -0.279 OA 
HETATM   24  H   UNL     1      -9.916  14.171  66.730  1.00  0.00     0.000 HD 
BRANCH  22  25
HETATM   25  C   UNL     1      -9.185  16.111  68.124  1.00  0.00    -0.193 C  
HETATM   26  H   UNL     1      -7.649  16.685  69.219  1.00  0.00     0.000 HD 
HETATM   27  O   UNL     1      -8.451  16.194  69.355  1.00  0.00    -0.227 OA 
BRANCH  25  28
HETATM   28  C   UNL     1      -9.456  17.507  67.608  1.00  0.00    -0.256 A  
HETATM   29  C   UNL     1      -8.836  18.608  68.216  1.00  0.00    -0.353 A  
HETATM   30  C   UNL     1      -9.077  19.904  67.755  1.00  0.00    -0.418 A  
HETATM   31  C   UNL     1      -9.932  20.116  66.676  1.00  0.00    -0.595 A  
HETATM   32  C   UNL     1     -10.541  19.032  66.049  1.00  0.00    -0.499 A  
HETATM   33  C   UNL     1     -10.302  17.735  66.508  1.00  0.00    -0.345 A  
ENDBRANCH  25  28
ENDBRANCH  22  25
ENDBRANCH  10  21
TORSDOF 6
ENDMDL
MODEL       62
REMARK 921   NORMALIZED FREE ENERGY PREDICTED BY IDOCK:   -5.79 KCAL/MOL
REMARK 922        TOTAL FREE ENERGY PREDICTED BY IDOCK:   -8.87 KCAL/MOL
REMARK 923 INTER-LIGAND FREE ENERGY PREDICTED BY IDOCK:   -7.91 KCAL/MOL
REMARK 924 INTRA-LIGAND FREE ENERGY PREDICTED BY IDOCK:   -0.95 KCAL/MOL
REMARK 927      BINDING AFFINITY PREDICTED BY RF-SCORE:    0.00 PKD
ROOT
HETATM    1  C   UNL     1      -7.974  10.617  69.532  1.00  0.00    -0.069 C  
HETATM    2  S   UNL     1      -6.869  10.594  68.095  1.00  0.00    -0.069 SA 
HETATM    3  C   UNL     1      -7.528  12.137  67.431  1.00  0.00    -0.156 C  
HETATM    4  C   UNL     1      -9.049  12.201  67.358  1.00  0.00    -0.181 C  
HETATM    5  O   UNL     1     -12.162  10.915  68.803  1.00  0.00    -0.518 OA 
HETATM    6  CA  UNL     1      -9.879  11.415  68.109  1.00  0.00    -0.191 C  
HETATM    7  N   UNL     1      -9.348  10.589  69.062  1.00  0.00    -0.192 N  
HETATM    8  O   UNL     1     -10.843   9.057  69.951  1.00  0.00    -0.228 OA 
HETATM    9  C   UNL     1     -11.370  11.396  67.831  1.00  0.00    -0.303 C  
HETATM   10  CA  UNL     1      -8.242   9.223  70.193  1.00  0.00    -0.167 C  
HETATM   11  C   UNL     1      -9.735   9.523  69.803  1.00  0.00    -0.214 C  
HETATM   12  OXT UNL     1     -11.879  11.844  66.814  1.00  0.00    -0.598 OA 
ENDROOT
BRANCH   4  13
HETATM   13  C   UNL     1      -9.483  13.153  66.245  1.00  0.00    -0.185 C  
BRANCH  13  14
HETATM   14  S   UNL     1      -9.213  14.914  66.561  1.00  0.00    -0.277 SA 
BRANCH  14  15
HETATM   15  C   UNL     1     -10.294  15.715  65.498  1.00  0.00    -0.396 A  
HETATM   16  N   UNL     1     -11.070  15.186  64.583  1.00  0.00    -0.358 NA 
HETATM   17  C   UNL     1      -9.838  18.077  66.288  1.00  0.00    -0.307 C  
HETATM   18  N   UNL     1     -11.701  16.245  63.969  1.00  0.00    -0.975 NA 
HETATM   19  N   UNL     1     -11.321  17.396  64.506  1.00  0.00    -0.696 NA 
HETATM   20  N   UNL     1     -10.447  17.068  65.469  1.00  0.00    -0.604 NA 
ENDBRANCH  14  15
ENDBRANCH  13  14
ENDBRANCH   4  13
BRANCH  10  21
HETATM   21  N   UNL     1      -7.626   8.068  69.502  1.00  0.00    -0.098 N  
HETATM   22  C   UNL     1      -7.988   6.753  69.692  1.00  0.00    -0.124 C  
HETATM   23  O   UNL     1      -8.837   6.398  70.504  1.00  0.00    -0.142 OA 
HETATM   24  H   UNL     1      -6.877   8.261  68.835  1.00  0.00     0.000 HD 
BRANCH  22  25
HETATM   25  C   UNL     1      -7.228   5.788  68.755  1.00  0.00    -0.082 C  
HETATM   26  H   UNL     1      -5.727   5.906  67.483  1.00  0.00     0.000 HD 
HETATM   27  O   UNL     1      -6.194   6.500  68.059  1.00  0.00    -0.029 OA 
BRANCH  25  28
HETATM   28  C   UNL     1      -8.148   5.130  67.751  1.00  0.00    -0.099 A  
HETATM   29  C   UNL     1      -8.501   5.813  66.578  1.00  0.00    -0.116 A  
HETATM   30  C   UNL     1      -9.353   5.223  65.641  1.00  0.00    -0.126 A  
HETATM   31  C   UNL     1      -9.854   3.942  65.859  1.00  0.00    -0.137 A  
HETATM   32  C   UNL     1      -9.497   3.243  67.010  1.00  0.00    -0.161 A  
HETATM   33  C   UNL     1      -8.647   3.831  67.948  1.00  0.00    -0.113 A  
ENDBRANCH  25  28
ENDBRANCH  22  25
ENDBRANCH  10  21
TORSDOF 6
ENDMDL
MODEL       63
REMARK 921   NORMALIZED FREE ENERGY PREDICTED BY IDOCK:   -5.79 KCAL/MOL
REMARK 922        TOTAL FREE ENERGY PREDICTED BY IDOCK:   -8.86 KCAL/MOL
REMARK 923 INTER-LIGAND FREE ENERGY PREDICTED BY IDOCK:   -7.20 KCAL/MOL
REMARK 924 INTRA-LIGAND FREE ENERGY PREDICTED BY IDOCK:   -1.66 KCAL/MOL
REMARK 927      BINDING AFFINITY PREDICTED BY RF-SCORE:    0.00 PKD
ROOT
HETATM    1  C   UNL     1     -10.604  10.417  66.490  1.00  0.00    -0.151 C  
HETATM    2  S   UNL     1      -9.903  11.250  67.939  1.00  0.00    -0.181 SA 
HETATM    3  C   UNL     1     -11.287  12.399  68.080  1.00  0.00    -0.291 C  
HETATM    4  C   UNL     1     -11.673  13.093  66.779  1.00  0.00    -0.439 C  
HETATM    5  O   UNL     1     -11.622  12.825  63.124  1.00  0.00    -0.445 OA 
HETATM    6  CA  UNL     1     -11.357  12.612  65.538  1.00  0.00    -0.321 C  
HETATM    7  N   UNL     1     -10.752  11.390  65.422  1.00  0.00    -0.272 N  
HETATM    8  O   UNL     1      -9.939  10.916  63.304  1.00  0.00    -0.322 OA 
HETATM    9  C   UNL     1     -11.598  13.463  64.306  1.00  0.00    -0.402 C  
HETATM   10  CA  UNL     1      -9.569   9.675  65.578  1.00  0.00    -0.283 C  
HETATM   11  C   UNL     1     -10.073  10.685  64.486  1.00  0.00    -0.353 C  
HETATM   12  OXT UNL     1     -11.828  14.662  64.341  1.00  0.00    -0.423 OA 
ENDROOT
BRANCH   4  13
HETATM   13  C   UNL     1     -12.324  14.443  67.076  1.00  0.00    -0.097 C  
BRANCH  13  14
HETATM   14  S   UNL     1     -11.412  15.530  68.199  1.00  0.00    -0.288 SA 
BRANCH  14  15
HETATM   15  C   UNL     1     -10.309  16.368  67.187  1.00  0.00    -0.290 A  
HETATM   16  N   UNL     1     -10.472  17.526  66.594  1.00  0.00    -0.305 NA 
HETATM   17  C   UNL     1      -8.439  14.661  67.262  1.00  0.00    -0.215 C  
HETATM   18  N   UNL     1      -9.326  17.737  65.862  1.00  0.00    -0.514 NA 
HETATM   19  N   UNL     1      -8.476  16.730  66.014  1.00  0.00    -0.487 NA 
HETATM   20  N   UNL     1      -9.085  15.875  66.850  1.00  0.00    -0.217 NA 
ENDBRANCH  14  15
ENDBRANCH  13  14
ENDBRANCH   4  13
BRANCH  10  21
HETATM   21  N   UNL     1      -8.152   9.828  65.979  1.00  0.00    -0.112 N  
HETATM   22  C   UNL     1      -7.396   8.849  66.586  1.00  0.00    -0.085 C  
HETATM   23  O   UNL     1      -7.844   7.753  66.906  1.00  0.00    -0.104 OA 
HETATM   24  H   UNL     1      -7.702  10.725  65.792  1.00  0.00     0.000 HD 
BRANCH  22  25
HETATM   25  C   UNL     1      -5.927   9.278  66.792  1.00  0.00    -0.060 C  
HETATM   26  H   UNL     1      -4.287   8.475  67.534  1.00  0.00     0.000 HD 
HETATM   27  O   UNL     1      -5.190   8.211  67.407  1.00  0.00    -0.031 OA 
BRANCH  25  28
HETATM   28  C   UNL     1      -5.814  10.522  67.645  1.00  0.00    -0.044 A  
HETATM   29  C   UNL     1      -6.221  10.487  68.987  1.00  0.00    -0.044 A  
HETATM   30  C   UNL     1      -6.128  11.626  69.789  1.00  0.00    -0.131 A  
HETATM   31  C   UNL     1      -5.619  12.812  69.264  1.00  0.00    -0.076 A  
HETATM   32  C   UNL     1      -5.192  12.858  67.939  1.00  0.00    -0.107 A  
HETATM   33  C   UNL     1      -5.285  11.721  67.136  1.00  0.00    -0.109 A  
ENDBRANCH  25  28
ENDBRANCH  22  25
ENDBRANCH  10  21
TORSDOF 6
ENDMDL
MODEL       64
REMARK 921   NORMALIZED FREE ENERGY PREDICTED BY IDOCK:   -5.77 KCAL/MOL
REMARK 922        TOTAL FREE ENERGY PREDICTED BY IDOCK:   -8.84 KCAL/MOL
REMARK 923 INTER-LIGAND FREE ENERGY PREDICTED BY IDOCK:   -8.07 KCAL/MOL
REMARK 924 INTRA-LIGAND FREE ENERGY PREDICTED BY IDOCK:   -0.77 KCAL/MOL
REMARK 927      BINDING AFFINITY PREDICTED BY RF-SCORE:    0.00 PKD
ROOT
HETATM    1  C   UNL     1     -11.951  11.531  67.995  1.00  0.00    -0.104 C  
HETATM    2  S   UNL     1     -11.669  12.186  69.662  1.00  0.00    -0.298 SA 
HETATM    3  C   UNL     1     -12.232  13.842  69.221  1.00  0.00    -0.277 C  
HETATM    4  C   UNL     1     -11.613  14.407  67.948  1.00  0.00    -0.374 C  
HETATM    5  O   UNL     1     -10.073  13.537  64.738  1.00  0.00    -0.333 OA 
HETATM    6  CA  UNL     1     -11.050  13.635  66.970  1.00  0.00    -0.301 C  
HETATM    7  N   UNL     1     -11.123  12.272  67.060  1.00  0.00    -0.271 N  
HETATM    8  O   UNL     1      -9.788  11.133  65.545  1.00  0.00    -0.212 OA 
HETATM    9  C   UNL     1     -10.277  14.282  65.836  1.00  0.00    -0.324 C  
HETATM   10  CA  UNL     1     -11.115  10.260  67.625  1.00  0.00    -0.251 C  
HETATM   11  C   UNL     1     -10.527  11.190  66.503  1.00  0.00    -0.255 C  
HETATM   12  OXT UNL     1      -9.895  15.443  65.849  1.00  0.00    -0.303 OA 
ENDROOT
BRANCH   4  13
HETATM   13  C   UNL     1     -11.595  15.933  68.004  1.00  0.00    -0.168 C  
BRANCH  13  14
HETATM   14  S   UNL     1     -10.557  16.665  69.293  1.00  0.00    -0.331 SA 
BRANCH  14  15
HETATM   15  C   UNL     1      -9.872  18.055  68.559  1.00  0.00    -0.378 A  
HETATM   16  N   UNL     1     -10.485  19.134  68.137  1.00  0.00    -0.376 NA 
HETATM   17  C   UNL     1      -7.460  17.282  68.588  1.00  0.00    -0.251 C  
HETATM   18  N   UNL     1      -9.507  19.930  67.585  1.00  0.00    -0.348 NA 
HETATM   19  N   UNL     1      -8.318  19.350  67.678  1.00  0.00    -0.292 NA 
HETATM   20  N   UNL     1      -8.541  18.179  68.295  1.00  0.00    -0.281 NA 
ENDBRANCH  14  15
ENDBRANCH  13  14
ENDBRANCH   4  13
BRANCH  10  21
HETATM   21  N   UNL     1     -10.147   9.819  68.655  1.00  0.00    -0.163 N  
HETATM   22  C   UNL     1      -9.744   8.517  68.850  1.00  0.00    -0.170 C  
HETATM   23  O   UNL     1     -10.192   7.570  68.211  1.00  0.00    -0.175 OA 
HETATM   24  H   UNL     1      -9.750  10.533  69.267  1.00  0.00     0.000 HD 
BRANCH  22  25
HETATM   25  C   UNL     1      -8.654   8.390  69.937  1.00  0.00    -0.131 C  
HETATM   26  H   UNL     1      -6.990   7.364  70.189  1.00  0.00     0.000 HD 
HETATM   27  O   UNL     1      -7.660   7.441  69.521  1.00  0.00    -0.094 OA 
BRANCH  25  28
HETATM   28  C   UNL     1      -9.229   7.962  71.269  1.00  0.00    -0.170 A  
HETATM   29  C   UNL     1     -10.565   8.254  71.578  1.00  0.00    -0.296 A  
HETATM   30  C   UNL     1     -11.112   7.870  72.804  1.00  0.00    -0.462 A  
HETATM   31  C   UNL     1     -10.334   7.181  73.732  1.00  0.00    -0.390 A  
HETATM   32  C   UNL     1      -9.012   6.866  73.433  1.00  0.00    -0.156 A  
HETATM   33  C   UNL     1      -8.462   7.250  72.208  1.00  0.00    -0.129 A  
ENDBRANCH  25  28
ENDBRANCH  22  25
ENDBRANCH  10  21
TORSDOF 6
ENDMDL
MODEL       65
REMARK 921   NORMALIZED FREE ENERGY PREDICTED BY IDOCK:   -5.77 KCAL/MOL
REMARK 922        TOTAL FREE ENERGY PREDICTED BY IDOCK:   -8.83 KCAL/MOL
REMARK 923 INTER-LIGAND FREE ENERGY PREDICTED BY IDOCK:   -7.65 KCAL/MOL
REMARK 924 INTRA-LIGAND FREE ENERGY PREDICTED BY IDOCK:   -1.18 KCAL/MOL
REMARK 927      BINDING AFFINITY PREDICTED BY RF-SCORE:    0.00 PKD
ROOT
HETATM    1  C   UNL     1      -8.056  12.736  67.100  1.00  0.00    -0.129 C  
HETATM    2  S   UNL     1      -7.763  12.268  68.826  1.00  0.00     0.050 SA 
HETATM    3  C   UNL     1      -6.956  10.717  68.379  1.00  0.00    -0.070 C  
HETATM    4  C   UNL     1      -7.719   9.872  67.366  1.00  0.00    -0.091 C  
HETATM    5  O   UNL     1     -10.155   9.970  64.629  1.00  0.00    -0.271 OA 
HETATM    6  CA  UNL     1      -8.667  10.375  66.517  1.00  0.00    -0.136 C  
HETATM    7  N   UNL     1      -8.892  11.724  66.480  1.00  0.00    -0.189 N  
HETATM    8  O   UNL     1     -10.783  12.351  65.295  1.00  0.00    -0.272 OA 
HETATM    9  C   UNL     1      -9.522   9.436  65.686  1.00  0.00    -0.262 C  
HETATM   10  CA  UNL     1      -9.229  13.749  66.870  1.00  0.00    -0.255 C  
HETATM   11  C   UNL     1      -9.841  12.576  66.022  1.00  0.00    -0.257 C  
HETATM   12  OXT UNL     1      -9.609   8.234  65.890  1.00  0.00    -0.137 OA 
ENDROOT
BRANCH   4  13
HETATM   13  C   UNL     1      -7.368   8.396  67.542  1.00  0.00    -0.093 C  
BRANCH  13  14
HETATM   14  S   UNL     1      -7.476   7.754  69.230  1.00  0.00    -0.095 SA 
BRANCH  14  15
HETATM   15  C   UNL     1      -9.140   7.408  69.455  1.00  0.00    -0.143 A  
HETATM   16  N   UNL     1      -9.892   6.571  68.782  1.00  0.00    -0.138 NA 
HETATM   17  C   UNL     1      -9.544   8.996  71.387  1.00  0.00    -0.285 C  
HETATM   18  N   UNL     1     -11.157   6.692  69.313  1.00  0.00    -0.292 NA 
HETATM   19  N   UNL     1     -11.172   7.581  70.298  1.00  0.00    -0.263 NA 
HETATM   20  N   UNL     1      -9.910   8.025  70.395  1.00  0.00    -0.183 NA 
ENDBRANCH  14  15
ENDBRANCH  13  14
ENDBRANCH   4  13
BRANCH  10  21
HETATM   21  N   UNL     1      -9.991  14.117  68.085  1.00  0.00    -0.226 N  
HETATM   22  C   UNL     1     -11.296  14.559  68.092  1.00  0.00    -0.298 C  
HETATM   23  O   UNL     1     -11.950  14.742  67.070  1.00  0.00    -0.350 OA 
HETATM   24  H   UNL     1      -9.514  14.038  68.984  1.00  0.00     0.000 HD 
BRANCH  22  25
HETATM   25  C   UNL     1     -11.842  14.770  69.521  1.00  0.00    -0.326 C  
HETATM   26  H   UNL     1     -11.192  15.563  71.204  1.00  0.00     0.000 HD 
HETATM   27  O   UNL     1     -10.856  15.433  70.325  1.00  0.00    -0.285 OA 
BRANCH  25  28
HETATM   28  C   UNL     1     -12.231  13.465  70.178  1.00  0.00    -0.385 A  
HETATM   29  C   UNL     1     -12.956  13.477  71.378  1.00  0.00    -0.421 A  
HETATM   30  C   UNL     1     -13.320  12.281  72.002  1.00  0.00    -0.491 A  
HETATM   31  C   UNL     1     -12.972  11.059  71.430  1.00  0.00    -0.517 A  
HETATM   32  C   UNL     1     -12.269  11.030  70.228  1.00  0.00    -0.447 A  
HETATM   33  C   UNL     1     -11.903  12.224  69.604  1.00  0.00    -0.393 A  
ENDBRANCH  25  28
ENDBRANCH  22  25
ENDBRANCH  10  21
TORSDOF 6
ENDMDL
MODEL       66
REMARK 921   NORMALIZED FREE ENERGY PREDICTED BY IDOCK:   -5.75 KCAL/MOL
REMARK 922        TOTAL FREE ENERGY PREDICTED BY IDOCK:   -8.81 KCAL/MOL
REMARK 923 INTER-LIGAND FREE ENERGY PREDICTED BY IDOCK:   -9.31 KCAL/MOL
REMARK 924 INTRA-LIGAND FREE ENERGY PREDICTED BY IDOCK:    0.50 KCAL/MOL
REMARK 927      BINDING AFFINITY PREDICTED BY RF-SCORE:    0.00 PKD
ROOT
HETATM    1  C   UNL     1     -11.549  13.873  67.429  1.00  0.00    -0.368 C  
HETATM    2  S   UNL     1     -10.043  13.447  68.345  1.00  0.00    -0.223 SA 
HETATM    3  C   UNL     1      -9.837  15.120  68.991  1.00  0.00    -0.238 C  
HETATM    4  C   UNL     1      -9.937  16.223  67.944  1.00  0.00    -0.241 C  
HETATM    5  O   UNL     1     -11.340  17.122  64.680  1.00  0.00    -0.909 OA 
HETATM    6  CA  UNL     1     -10.558  16.070  66.735  1.00  0.00    -0.297 C  
HETATM    7  N   UNL     1     -11.227  14.908  66.463  1.00  0.00    -0.343 N  
HETATM    8  O   UNL     1     -11.872  14.664  64.249  1.00  0.00    -0.405 OA 
HETATM    9  C   UNL     1     -10.436  17.145  65.672  1.00  0.00    -0.197 C  
HETATM   10  CA  UNL     1     -11.881  12.938  66.217  1.00  0.00    -0.416 C  
HETATM   11  C   UNL     1     -11.728  14.261  65.382  1.00  0.00    -0.354 C  
HETATM   12  OXT UNL     1      -9.612  18.048  65.709  1.00  0.00    -0.505 OA 
ENDROOT
BRANCH   4  13
HETATM   13  C   UNL     1      -9.133  17.444  68.388  1.00  0.00    -0.274 C  
BRANCH  13  14
HETATM   14  S   UNL     1      -7.360  17.176  68.633  1.00  0.00    -0.248 SA 
BRANCH  14  15
HETATM   15  C   UNL     1      -6.719  18.745  68.894  1.00  0.00    -0.280 A  
HETATM   16  N   UNL     1      -6.249  19.254  70.007  1.00  0.00    -0.239 NA 
HETATM   17  C   UNL     1      -7.020  19.616  66.534  1.00  0.00    -0.214 C  
HETATM   18  N   UNL     1      -5.903  20.553  69.710  1.00  0.00    -0.356 NA 
HETATM   19  N   UNL     1      -6.150  20.827  68.436  1.00  0.00    -0.336 NA 
HETATM   20  N   UNL     1      -6.653  19.696  67.920  1.00  0.00    -0.231 NA 
ENDBRANCH  14  15
ENDBRANCH  13  14
ENDBRANCH   4  13
BRANCH  10  21
HETATM   21  N   UNL     1     -10.875  11.889  65.935  1.00  0.00    -0.287 N  
HETATM   22  C   UNL     1     -10.192  11.754  64.746  1.00  0.00    -0.282 C  
HETATM   23  O   UNL     1     -10.391  12.470  63.770  1.00  0.00    -0.418 OA 
HETATM   24  H   UNL     1     -10.672  11.217  66.675  1.00  0.00     0.000 HD 
BRANCH  22  25
HETATM   25  C   UNL     1      -9.141  10.624  64.792  1.00  0.00    -0.209 C  
HETATM   26  H   UNL     1      -8.686   9.040  63.710  1.00  0.00     0.000 HD 
HETATM   27  O   UNL     1      -9.333   9.735  63.681  1.00  0.00    -0.253 OA 
BRANCH  25  28
HETATM   28  C   UNL     1      -9.211   9.837  66.082  1.00  0.00    -0.221 A  
HETATM   29  C   UNL     1      -8.370  10.175  67.152  1.00  0.00    -0.125 A  
HETATM   30  C   UNL     1      -8.418   9.457  68.349  1.00  0.00    -0.120 A  
HETATM   31  C   UNL     1      -9.312   8.399  68.495  1.00  0.00    -0.139 A  
HETATM   32  C   UNL     1     -10.168   8.063  67.449  1.00  0.00    -0.330 A  
HETATM   33  C   UNL     1     -10.121   8.779  66.251  1.00  0.00    -0.254 A  
ENDBRANCH  25  28
ENDBRANCH  22  25
ENDBRANCH  10  21
TORSDOF 6
ENDMDL
MODEL       67
REMARK 921   NORMALIZED FREE ENERGY PREDICTED BY IDOCK:   -5.71 KCAL/MOL
REMARK 922        TOTAL FREE ENERGY PREDICTED BY IDOCK:   -8.76 KCAL/MOL
REMARK 923 INTER-LIGAND FREE ENERGY PREDICTED BY IDOCK:   -7.66 KCAL/MOL
REMARK 924 INTRA-LIGAND FREE ENERGY PREDICTED BY IDOCK:   -1.09 KCAL/MOL
REMARK 927      BINDING AFFINITY PREDICTED BY RF-SCORE:    0.00 PKD
ROOT
HETATM    1  C   UNL     1      -8.471   8.822  69.628  1.00  0.00    -0.129 C  
HETATM    2  S   UNL     1      -8.201   8.835  71.420  1.00  0.00    -0.127 SA 
HETATM    3  C   UNL     1      -7.278   7.284  71.398  1.00  0.00    -0.076 C  
HETATM    4  C   UNL     1      -7.950   6.154  70.627  1.00  0.00    -0.111 C  
HETATM    5  O   UNL     1     -10.300   5.370  67.926  1.00  0.00    -0.188 OA 
HETATM    6  CA  UNL     1      -8.903   6.352  69.666  1.00  0.00    -0.137 C  
HETATM    7  N   UNL     1      -9.217   7.626  69.279  1.00  0.00    -0.145 N  
HETATM    8  O   UNL     1     -11.109   7.789  67.948  1.00  0.00     0.045 OA 
HETATM    9  C   UNL     1      -9.666   5.172  69.094  1.00  0.00    -0.163 C  
HETATM   10  CA  UNL     1      -9.702   9.654  69.130  1.00  0.00    -0.178 C  
HETATM   11  C   UNL     1     -10.206   8.261  68.605  1.00  0.00    -0.204 C  
HETATM   12  OXT UNL     1      -9.678   4.060  69.599  1.00  0.00    -0.206 OA 
ENDROOT
BRANCH   4  13
HETATM   13  C   UNL     1      -7.506   4.802  71.182  1.00  0.00    -0.072 C  
BRANCH  13  14
HETATM   14  S   UNL     1      -7.689   4.582  72.969  1.00  0.00    -0.088 SA 
BRANCH  14  15
HETATM   15  C   UNL     1      -9.350   4.215  73.191  1.00  0.00    -0.113 A  
HETATM   16  N   UNL     1      -9.943   3.051  73.086  1.00  0.00    -0.113 NA 
HETATM   17  C   UNL     1     -10.133   6.564  73.726  1.00  0.00    -0.277 C  
HETATM   18  N   UNL     1     -11.281   3.290  73.309  1.00  0.00    -0.135 NA 
HETATM   19  N   UNL     1     -11.496   4.575  73.553  1.00  0.00    -0.274 NA 
HETATM   20  N   UNL     1     -10.289   5.157  73.488  1.00  0.00    -0.196 NA 
ENDBRANCH  14  15
ENDBRANCH  13  14
ENDBRANCH   4  13
BRANCH  10  21
HETATM   21  N   UNL     1     -10.525  10.264  70.200  1.00  0.00    -0.412 N  
HETATM   22  C   UNL     1     -11.791  10.776  70.022  1.00  0.00    -0.344 C  
HETATM   23  O   UNL     1     -12.352  10.823  68.932  1.00  0.00    -0.433 OA 
HETATM   24  H   UNL     1     -10.124  10.309  71.137  1.00  0.00     0.000 HD 
BRANCH  22  25
HETATM   25  C   UNL     1     -12.427  11.255  71.346  1.00  0.00    -0.287 C  
HETATM   26  H   UNL     1     -14.006  10.793  72.430  1.00  0.00     0.000 HD 
HETATM   27  O   UNL     1     -13.616  10.497  71.617  1.00  0.00    -0.225 OA 
BRANCH  25  28
HETATM   28  C   UNL     1     -12.769  12.728  71.309  1.00  0.00    -0.364 A  
HETATM   29  C   UNL     1     -13.690  13.253  72.227  1.00  0.00    -0.686 A  
HETATM   30  C   UNL     1     -14.021  14.610  72.206  1.00  0.00    -0.589 A  
HETATM   31  C   UNL     1     -13.429  15.460  71.275  1.00  0.00    -0.598 A  
HETATM   32  C   UNL     1     -12.497  14.959  70.370  1.00  0.00    -0.403 A  
HETATM   33  C   UNL     1     -12.166  13.603  70.388  1.00  0.00    -0.434 A  
ENDBRANCH  25  28
ENDBRANCH  22  25
ENDBRANCH  10  21
TORSDOF 6
ENDMDL
MODEL       68
REMARK 921   NORMALIZED FREE ENERGY PREDICTED BY IDOCK:   -5.68 KCAL/MOL
REMARK 922        TOTAL FREE ENERGY PREDICTED BY IDOCK:   -8.72 KCAL/MOL
REMARK 923 INTER-LIGAND FREE ENERGY PREDICTED BY IDOCK:   -8.16 KCAL/MOL
REMARK 924 INTRA-LIGAND FREE ENERGY PREDICTED BY IDOCK:   -0.56 KCAL/MOL
REMARK 927      BINDING AFFINITY PREDICTED BY RF-SCORE:    0.00 PKD
ROOT
HETATM    1  C   UNL     1      -8.999   9.019  70.063  1.00  0.00    -0.175 C  
HETATM    2  S   UNL     1      -8.913   7.746  68.775  1.00  0.00    -0.140 SA 
HETATM    3  C   UNL     1      -8.866   8.955  67.436  1.00  0.00    -0.129 C  
HETATM    4  C   UNL     1      -9.934  10.039  67.518  1.00  0.00    -0.232 C  
HETATM    5  O   UNL     1     -12.126  11.902  69.789  1.00  0.00    -0.290 OA 
HETATM    6  CA  UNL     1     -10.583  10.380  68.673  1.00  0.00    -0.209 C  
HETATM    7  N   UNL     1     -10.201   9.808  69.856  1.00  0.00    -0.238 N  
HETATM    8  O   UNL     1     -11.649  10.196  71.624  1.00  0.00    -0.267 OA 
HETATM    9  C   UNL     1     -11.772  11.322  68.631  1.00  0.00    -0.324 C  
HETATM   10  CA  UNL     1      -9.620   8.555  71.424  1.00  0.00    -0.215 C  
HETATM   11  C   UNL     1     -10.692   9.660  71.110  1.00  0.00    -0.294 C  
HETATM   12  OXT UNL     1     -12.368  11.619  67.607  1.00  0.00    -0.301 OA 
ENDROOT
BRANCH   4  13
HETATM   13  C   UNL     1     -10.256  10.567  66.122  1.00  0.00    -0.236 C  
BRANCH  13  14
HETATM   14  S   UNL     1      -9.763  12.277  65.790  1.00  0.00    -0.173 SA 
BRANCH  14  15
HETATM   15  C   UNL     1     -11.023  12.908  64.814  1.00  0.00    -0.318 A  
HETATM   16  N   UNL     1     -11.850  12.254  64.036  1.00  0.00    -0.407 NA 
HETATM   17  C   UNL     1     -10.686  15.352  65.389  1.00  0.00    -0.400 C  
HETATM   18  N   UNL     1     -12.636  13.211  63.434  1.00  0.00    -0.707 NA 
HETATM   19  N   UNL     1     -12.299  14.426  63.846  1.00  0.00    -0.762 NA 
HETATM   20  N   UNL     1     -11.295  14.240  64.716  1.00  0.00    -0.368 NA 
ENDBRANCH  14  15
ENDBRANCH  13  14
ENDBRANCH   4  13
BRANCH  10  21
HETATM   21  N   UNL     1     -10.129   7.164  71.442  1.00  0.00    -0.189 N  
HETATM   22  C   UNL     1      -9.470   6.093  72.004  1.00  0.00    -0.152 C  
HETATM   23  O   UNL     1      -8.354   6.177  72.507  1.00  0.00    -0.115 OA 
HETATM   24  H   UNL     1     -11.035   6.987  71.007  1.00  0.00     0.000 HD 
BRANCH  22  25
HETATM   25  C   UNL     1     -10.300   4.792  71.949  1.00  0.00    -0.172 C  
HETATM   26  H   UNL     1     -10.764   3.332  73.189  1.00  0.00     0.000 HD 
HETATM   27  O   UNL     1     -10.254   4.132  73.223  1.00  0.00    -0.138 OA 
BRANCH  25  28
HETATM   28  C   UNL     1      -9.803   3.847  70.877  1.00  0.00    -0.213 A  
HETATM   29  C   UNL     1      -9.460   2.530  71.213  1.00  0.00    -0.220 A  
HETATM   30  C   UNL     1      -8.996   1.645  70.238  1.00  0.00    -0.134 A  
HETATM   31  C   UNL     1      -8.878   2.061  68.914  1.00  0.00    -0.138 A  
HETATM   32  C   UNL     1      -9.234   3.361  68.560  1.00  0.00    -0.229 A  
HETATM   33  C   UNL     1      -9.697   4.247  69.533  1.00  0.00    -0.272 A  
ENDBRANCH  25  28
ENDBRANCH  22  25
ENDBRANCH  10  21
TORSDOF 6
ENDMDL
MODEL       69
REMARK 921   NORMALIZED FREE ENERGY PREDICTED BY IDOCK:   -5.68 KCAL/MOL
REMARK 922        TOTAL FREE ENERGY PREDICTED BY IDOCK:   -8.71 KCAL/MOL
REMARK 923 INTER-LIGAND FREE ENERGY PREDICTED BY IDOCK:   -9.31 KCAL/MOL
REMARK 924 INTRA-LIGAND FREE ENERGY PREDICTED BY IDOCK:    0.60 KCAL/MOL
REMARK 927      BINDING AFFINITY PREDICTED BY RF-SCORE:    0.00 PKD
ROOT
HETATM    1  C   UNL     1      -9.365  14.617  65.993  1.00  0.00    -0.181 C  
HETATM    2  S   UNL     1      -9.151  13.445  67.359  1.00  0.00    -0.227 SA 
HETATM    3  C   UNL     1      -8.946  12.033  66.253  1.00  0.00    -0.129 C  
HETATM    4  C   UNL     1     -10.007  11.917  65.165  1.00  0.00    -0.276 C  
HETATM    5  O   UNL     1     -12.415  13.790  63.134  1.00  0.00    -0.786 OA 
HETATM    6  CA  UNL     1     -10.774  12.966  64.738  1.00  0.00    -0.333 C  
HETATM    7  N   UNL     1     -10.529  14.222  65.220  1.00  0.00    -0.364 N  
HETATM    8  O   UNL     1     -12.158  15.788  64.700  1.00  0.00    -0.077 OA 
HETATM    9  C   UNL     1     -11.942  12.724  63.800  1.00  0.00    -0.510 C  
HETATM   10  CA  UNL     1     -10.135  15.933  66.354  1.00  0.00    -0.292 C  
HETATM   11  C   UNL     1     -11.155  15.423  65.274  1.00  0.00    -0.360 C  
HETATM   12  OXT UNL     1     -12.421  11.622  63.580  1.00  0.00    -0.442 OA 
ENDROOT
BRANCH   4  13
HETATM   13  C   UNL     1     -10.169  10.459  64.742  1.00  0.00    -0.249 C  
BRANCH  13  14
HETATM   14  S   UNL     1      -9.057   9.275  65.541  1.00  0.00    -0.226 SA 
BRANCH  14  15
HETATM   15  C   UNL     1      -7.821   8.997  64.385  1.00  0.00    -0.125 A  
HETATM   16  N   UNL     1      -7.358   9.823  63.480  1.00  0.00    -0.119 NA 
HETATM   17  C   UNL     1      -7.306   6.602  65.032  1.00  0.00    -0.082 C  
HETATM   18  N   UNL     1      -6.413   9.114  62.772  1.00  0.00    -0.094 NA 
HETATM   19  N   UNL     1      -6.298   7.880  63.245  1.00  0.00    -0.067 NA 
HETATM   20  N   UNL     1      -7.172   7.805  64.260  1.00  0.00    -0.074 NA 
ENDBRANCH  14  15
ENDBRANCH  13  14
ENDBRANCH   4  13
BRANCH  10  21
HETATM   21  N   UNL     1     -10.656  15.998  67.738  1.00  0.00    -0.301 N  
HETATM   22  C   UNL     1     -11.731  15.277  68.209  1.00  0.00    -0.301 C  
HETATM   23  O   UNL     1     -12.406  14.536  67.503  1.00  0.00    -0.240 OA 
HETATM   24  H   UNL     1     -10.183  16.624  68.392  1.00  0.00     0.000 HD 
BRANCH  22  25
HETATM   25  C   UNL     1     -11.971  15.490  69.720  1.00  0.00    -0.364 C  
HETATM   26  H   UNL     1     -10.946  16.186  71.253  1.00  0.00     0.000 HD 
HETATM   27  O   UNL     1     -10.798  16.056  70.324  1.00  0.00    -0.324 OA 
BRANCH  25  28
HETATM   28  C   UNL     1     -12.323  14.199  70.425  1.00  0.00    -0.428 A  
HETATM   29  C   UNL     1     -13.142  14.227  71.563  1.00  0.00    -0.413 A  
HETATM   30  C   UNL     1     -13.476  13.045  72.229  1.00  0.00    -0.645 A  
HETATM   31  C   UNL     1     -13.002  11.821  71.761  1.00  0.00    -0.466 A  
HETATM   32  C   UNL     1     -12.203  11.774  70.622  1.00  0.00    -0.443 A  
HETATM   33  C   UNL     1     -11.869  12.954  69.955  1.00  0.00    -0.373 A  
ENDBRANCH  25  28
ENDBRANCH  22  25
ENDBRANCH  10  21
TORSDOF 6
ENDMDL
MODEL       70
REMARK 921   NORMALIZED FREE ENERGY PREDICTED BY IDOCK:   -5.68 KCAL/MOL
REMARK 922        TOTAL FREE ENERGY PREDICTED BY IDOCK:   -8.71 KCAL/MOL
REMARK 923 INTER-LIGAND FREE ENERGY PREDICTED BY IDOCK:   -8.00 KCAL/MOL
REMARK 924 INTRA-LIGAND FREE ENERGY PREDICTED BY IDOCK:   -0.71 KCAL/MOL
REMARK 927      BINDING AFFINITY PREDICTED BY RF-SCORE:    0.00 PKD
ROOT
HETATM    1  C   UNL     1      -9.789   8.764  66.847  1.00  0.00    -0.229 C  
HETATM    2  S   UNL     1     -10.962   9.260  68.137  1.00  0.00     0.099 SA 
HETATM    3  C   UNL     1     -11.171  10.918  67.457  1.00  0.00    -0.293 C  
HETATM    4  C   UNL     1      -9.869  11.644  67.138  1.00  0.00    -0.205 C  
HETATM    5  O   UNL     1      -6.337  11.194  66.270  1.00  0.00    -0.132 OA 
HETATM    6  CA  UNL     1      -8.675  11.009  66.935  1.00  0.00    -0.148 C  
HETATM    7  N   UNL     1      -8.634   9.642  66.907  1.00  0.00    -0.127 N  
HETATM    8  O   UNL     1      -6.498   8.741  66.951  1.00  0.00    -0.059 OA 
HETATM    9  C   UNL     1      -7.392  11.811  66.826  1.00  0.00    -0.052 C  
HETATM   10  CA  UNL     1      -8.830   7.586  67.230  1.00  0.00    -0.124 C  
HETATM   11  C   UNL     1      -7.706   8.658  66.991  1.00  0.00    -0.095 C  
HETATM   12  OXT UNL     1      -7.294  12.985  67.154  1.00  0.00    -0.096 OA 
ENDROOT
BRANCH   4  13
HETATM   13  C   UNL     1     -10.076  13.155  67.220  1.00  0.00    -0.233 C  
BRANCH  13  14
HETATM   14  S   UNL     1     -11.792  13.724  67.134  1.00  0.00    -0.411 SA 
BRANCH  14  15
HETATM   15  C   UNL     1     -12.233  13.520  65.490  1.00  0.00    -0.451 A  
HETATM   16  N   UNL     1     -12.812  12.486  64.928  1.00  0.00    -0.800 NA 
HETATM   17  C   UNL     1     -11.396  15.758  64.649  1.00  0.00    -0.337 C  
HETATM   18  N   UNL     1     -12.906  12.791  63.588  1.00  0.00    -0.698 NA 
HETATM   19  N   UNL     1     -12.401  13.992  63.341  1.00  0.00    -0.720 NA 
HETATM   20  N   UNL     1     -11.986  14.455  64.530  1.00  0.00    -0.460 NA 
ENDBRANCH  14  15
ENDBRANCH  13  14
ENDBRANCH   4  13
BRANCH  10  21
HETATM   21  N   UNL     1      -8.956   7.098  68.622  1.00  0.00    -0.132 N  
HETATM   22  C   UNL     1      -8.975   5.772  68.992  1.00  0.00    -0.117 C  
HETATM   23  O   UNL     1      -8.940   4.847  68.186  1.00  0.00    -0.106 OA 
HETATM   24  H   UNL     1      -9.035   7.797  69.363  1.00  0.00     0.000 HD 
BRANCH  22  25
HETATM   25  C   UNL     1      -9.020   5.584  70.524  1.00  0.00    -0.136 C  
HETATM   26  H   UNL     1      -9.360   4.104  71.781  1.00  0.00     0.000 HD 
HETATM   27  O   UNL     1      -9.332   4.219  70.839  1.00  0.00    -0.126 OA 
BRANCH  25  28
HETATM   28  C   UNL     1     -10.036   6.495  71.177  1.00  0.00    -0.202 A  
HETATM   29  C   UNL     1     -11.354   6.051  71.359  1.00  0.00    -0.301 A  
HETATM   30  C   UNL     1     -12.307   6.879  71.957  1.00  0.00    -0.305 A  
HETATM   31  C   UNL     1     -11.953   8.156  72.388  1.00  0.00    -0.431 A  
HETATM   32  C   UNL     1     -10.644   8.604  72.232  1.00  0.00    -0.375 A  
HETATM   33  C   UNL     1      -9.690   7.778  71.635  1.00  0.00    -0.200 A  
ENDBRANCH  25  28
ENDBRANCH  22  25
ENDBRANCH  10  21
TORSDOF 6
ENDMDL
MODEL       71
REMARK 921   NORMALIZED FREE ENERGY PREDICTED BY IDOCK:   -5.66 KCAL/MOL
REMARK 922        TOTAL FREE ENERGY PREDICTED BY IDOCK:   -8.69 KCAL/MOL
REMARK 923 INTER-LIGAND FREE ENERGY PREDICTED BY IDOCK:   -7.37 KCAL/MOL
REMARK 924 INTRA-LIGAND FREE ENERGY PREDICTED BY IDOCK:   -1.33 KCAL/MOL
REMARK 927      BINDING AFFINITY PREDICTED BY RF-SCORE:    0.00 PKD
ROOT
HETATM    1  C   UNL     1      -7.453   8.641  68.579  1.00  0.00    -0.093 C  
HETATM    2  S   UNL     1      -7.687   9.683  70.044  1.00  0.00    -0.171 SA 
HETATM    3  C   UNL     1      -8.095   8.281  71.105  1.00  0.00    -0.111 C  
HETATM    4  C   UNL     1      -9.144   7.334  70.534  1.00  0.00    -0.158 C  
HETATM    5  O   UNL     1     -10.658   6.073  67.444  1.00  0.00    -0.217 OA 
HETATM    6  CA  UNL     1      -9.439   7.243  69.201  1.00  0.00    -0.148 C  
HETATM    7  N   UNL     1      -8.699   7.952  68.295  1.00  0.00    -0.130 N  
HETATM    8  O   UNL     1      -9.580   7.990  66.151  1.00  0.00    -0.179 OA 
HETATM    9  C   UNL     1     -10.632   6.428  68.739  1.00  0.00    -0.251 C  
HETATM   10  CA  UNL     1      -7.622   9.372  67.204  1.00  0.00    -0.091 C  
HETATM   11  C   UNL     1      -8.792   8.342  67.001  1.00  0.00    -0.134 C  
HETATM   12  OXT UNL     1     -11.518   6.034  69.483  1.00  0.00    -0.384 OA 
ENDROOT
BRANCH   4  13
HETATM   13  C   UNL     1      -9.887   6.628  71.666  1.00  0.00    -0.166 C  
BRANCH  13  14
HETATM   14  S   UNL     1     -10.638   7.706  72.911  1.00  0.00    -0.380 SA 
BRANCH  14  15
HETATM   15  C   UNL     1     -11.732   8.688  72.028  1.00  0.00    -0.369 A  
HETATM   16  N   UNL     1     -11.552   9.912  71.593  1.00  0.00    -0.309 NA 
HETATM   17  C   UNL     1     -13.644   7.031  71.922  1.00  0.00    -0.145 C  
HETATM   18  N   UNL     1     -12.736  10.274  70.990  1.00  0.00    -0.368 NA 
HETATM   19  N   UNL     1     -13.617   9.285  71.050  1.00  0.00    -0.147 NA 
HETATM   20  N   UNL     1     -12.990   8.288  71.692  1.00  0.00    -0.335 NA 
ENDBRANCH  14  15
ENDBRANCH  13  14
ENDBRANCH   4  13
BRANCH  10  21
HETATM   21  N   UNL     1      -8.035  10.791  67.290  1.00  0.00    -0.115 N  
HETATM   22  C   UNL     1      -8.577  11.517  66.253  1.00  0.00    -0.133 C  
HETATM   23  O   UNL     1      -8.727  11.067  65.122  1.00  0.00    -0.161 OA 
HETATM   24  H   UNL     1      -7.908  11.267  68.184  1.00  0.00     0.000 HD 
BRANCH  22  25
HETATM   25  C   UNL     1      -8.993  12.942  66.681  1.00  0.00    -0.136 C  
HETATM   26  H   UNL     1      -9.437  13.863  68.366  1.00  0.00     0.000 HD 
HETATM   27  O   UNL     1      -9.181  12.987  68.103  1.00  0.00    -0.204 OA 
BRANCH  25  28
HETATM   28  C   UNL     1     -10.263  13.392  65.993  1.00  0.00    -0.301 A  
HETATM   29  C   UNL     1     -11.419  12.603  66.078  1.00  0.00    -0.414 A  
HETATM   30  C   UNL     1     -12.600  13.001  65.447  1.00  0.00    -0.481 A  
HETATM   31  C   UNL     1     -12.642  14.195  64.731  1.00  0.00    -0.326 A  
HETATM   32  C   UNL     1     -11.508  14.999  64.652  1.00  0.00    -0.382 A  
HETATM   33  C   UNL     1     -10.327  14.603  65.282  1.00  0.00    -0.425 A  
ENDBRANCH  25  28
ENDBRANCH  22  25
ENDBRANCH  10  21
TORSDOF 6
ENDMDL
MODEL       72
REMARK 921   NORMALIZED FREE ENERGY PREDICTED BY IDOCK:   -5.66 KCAL/MOL
REMARK 922        TOTAL FREE ENERGY PREDICTED BY IDOCK:   -8.69 KCAL/MOL
REMARK 923 INTER-LIGAND FREE ENERGY PREDICTED BY IDOCK:   -7.72 KCAL/MOL
REMARK 924 INTRA-LIGAND FREE ENERGY PREDICTED BY IDOCK:   -0.97 KCAL/MOL
REMARK 927      BINDING AFFINITY PREDICTED BY RF-SCORE:    0.00 PKD
ROOT
HETATM    1  C   UNL     1      -7.814  10.562  67.404  1.00  0.00    -0.106 C  
HETATM    2  S   UNL     1      -7.812  11.349  69.037  1.00  0.00     0.021 SA 
HETATM    3  C   UNL     1      -7.663   9.777  69.911  1.00  0.00    -0.157 C  
HETATM    4  C   UNL     1      -8.648   8.704  69.464  1.00  0.00    -0.131 C  
HETATM    5  O   UNL     1     -10.713   7.524  66.674  1.00  0.00    -0.239 OA 
HETATM    6  CA  UNL     1      -9.279   8.710  68.250  1.00  0.00    -0.137 C  
HETATM    7  N   UNL     1      -8.951   9.662  67.324  1.00  0.00    -0.134 N  
HETATM    8  O   UNL     1     -10.381   9.766  65.502  1.00  0.00    -0.178 OA 
HETATM    9  C   UNL     1     -10.393   7.721  67.964  1.00  0.00    -0.209 C  
HETATM   10  CA  UNL     1      -8.479  11.397  66.258  1.00  0.00    -0.138 C  
HETATM   11  C   UNL     1      -9.462  10.174  66.178  1.00  0.00    -0.188 C  
HETATM   12  OXT UNL     1     -10.957   7.064  68.826  1.00  0.00    -0.183 OA 
ENDROOT
BRANCH   4  13
HETATM   13  C   UNL     1      -8.917   7.727  70.607  1.00  0.00    -0.145 C  
BRANCH  13  14
HETATM   14  S   UNL     1      -9.576   8.454  72.128  1.00  0.00    -0.319 SA 
BRANCH  14  15
HETATM   15  C   UNL     1     -11.262   8.589  71.847  1.00  0.00    -0.327 A  
HETATM   16  N   UNL     1     -11.954   9.670  71.580  1.00  0.00    -0.384 NA 
HETATM   17  C   UNL     1     -11.838   6.140  72.140  1.00  0.00    -0.285 C  
HETATM   18  N   UNL     1     -13.267   9.262  71.488  1.00  0.00    -0.360 NA 
HETATM   19  N   UNL     1     -13.369   7.955  71.688  1.00  0.00    -0.342 NA 
HETATM   20  N   UNL     1     -12.115   7.529  71.905  1.00  0.00    -0.296 NA 
ENDBRANCH  14  15
ENDBRANCH  13  14
ENDBRANCH   4  13
BRANCH  10  21
HETATM   21  N   UNL     1      -9.091  12.676  66.684  1.00  0.00    -0.297 N  
HETATM   22  C   UNL     1     -10.125  13.309  66.031  1.00  0.00    -0.299 C  
HETATM   23  O   UNL     1     -10.616  12.894  64.986  1.00  0.00    -0.294 OA 
HETATM   24  H   UNL     1      -8.719  13.122  67.524  1.00  0.00     0.000 HD 
BRANCH  22  25
HETATM   25  C   UNL     1     -10.608  14.575  66.773  1.00  0.00    -0.276 C  
HETATM   26  H   UNL     1      -9.798  16.240  67.447  1.00  0.00     0.000 HD 
HETATM   27  O   UNL     1      -9.501  15.462  66.991  1.00  0.00    -0.210 OA 
BRANCH  25  28
HETATM   28  C   UNL     1     -11.253  14.243  68.100  1.00  0.00    -0.295 A  
HETATM   29  C   UNL     1     -11.421  12.903  68.478  1.00  0.00    -0.345 A  
HETATM   30  C   UNL     1     -12.018  12.577  69.698  1.00  0.00    -0.339 A  
HETATM   31  C   UNL     1     -12.447  13.585  70.558  1.00  0.00    -0.373 A  
HETATM   32  C   UNL     1     -12.271  14.921  70.207  1.00  0.00    -0.389 A  
HETATM   33  C   UNL     1     -11.674  15.249  68.988  1.00  0.00    -0.368 A  
ENDBRANCH  25  28
ENDBRANCH  22  25
ENDBRANCH  10  21
TORSDOF 6
ENDMDL
MODEL       73
REMARK 921   NORMALIZED FREE ENERGY PREDICTED BY IDOCK:   -5.65 KCAL/MOL
REMARK 922        TOTAL FREE ENERGY PREDICTED BY IDOCK:   -8.68 KCAL/MOL
REMARK 923 INTER-LIGAND FREE ENERGY PREDICTED BY IDOCK:   -8.03 KCAL/MOL
REMARK 924 INTRA-LIGAND FREE ENERGY PREDICTED BY IDOCK:   -0.64 KCAL/MOL
REMARK 927      BINDING AFFINITY PREDICTED BY RF-SCORE:    0.00 PKD
ROOT
HETATM    1  C   UNL     1     -10.463   8.360  67.317  1.00  0.00    -0.303 C  
HETATM    2  S   UNL     1     -10.518   9.644  68.596  1.00  0.00    -0.212 SA 
HETATM    3  C   UNL     1     -11.531  10.749  67.593  1.00  0.00    -0.151 C  
HETATM    4  C   UNL     1     -11.027  10.959  66.170  1.00  0.00    -0.099 C  
HETATM    5  O   UNL     1      -9.066   9.479  63.450  1.00  0.00    -0.233 OA 
HETATM    6  CA  UNL     1     -10.184  10.095  65.527  1.00  0.00    -0.218 C  
HETATM    7  N   UNL     1      -9.839   8.915  66.129  1.00  0.00    -0.277 N  
HETATM    8  O   UNL     1      -8.113   7.772  65.087  1.00  0.00    -0.126 OA 
HETATM    9  C   UNL     1      -9.569  10.478  64.194  1.00  0.00    -0.313 C  
HETATM   10  CA  UNL     1      -9.251   7.373  67.411  1.00  0.00    -0.132 C  
HETATM   11  C   UNL     1      -8.900   7.949  65.991  1.00  0.00    -0.158 C  
HETATM   12  OXT UNL     1      -9.566  11.615  63.748  1.00  0.00    -0.244 OA 
ENDROOT
BRANCH   4  13
HETATM   13  C   UNL     1     -11.485  12.318  65.645  1.00  0.00    -0.368 C  
BRANCH  13  14
HETATM   14  S   UNL     1     -10.543  13.750  66.227  1.00  0.00    -0.293 SA 
BRANCH  14  15
HETATM   15  C   UNL     1     -11.107  15.056  65.271  1.00  0.00    -0.386 A  
HETATM   16  N   UNL     1     -12.042  15.043  64.352  1.00  0.00    -0.440 NA 
HETATM   17  C   UNL     1      -9.573  16.837  66.216  1.00  0.00    -0.289 C  
HETATM   18  N   UNL     1     -12.087  16.322  63.844  1.00  0.00    -0.820 NA 
HETATM   19  N   UNL     1     -11.202  17.102  64.450  1.00  0.00    -0.986 NA 
HETATM   20  N   UNL     1     -10.592  16.315  65.349  1.00  0.00    -0.515 NA 
ENDBRANCH  14  15
ENDBRANCH  13  14
ENDBRANCH   4  13
BRANCH  10  21
HETATM   21  N   UNL     1      -8.271   7.677  68.479  1.00  0.00    -0.124 N  
HETATM   22  C   UNL     1      -7.833   6.775  69.423  1.00  0.00    -0.113 C  
HETATM   23  O   UNL     1      -8.256   5.626  69.506  1.00  0.00    -0.100 OA 
HETATM   24  H   UNL     1      -7.893   8.624  68.518  1.00  0.00     0.000 HD 
BRANCH  22  25
HETATM   25  C   UNL     1      -6.739   7.363  70.341  1.00  0.00    -0.047 C  
HETATM   26  H   UNL     1      -4.965   6.810  70.999  1.00  0.00     0.000 HD 
HETATM   27  O   UNL     1      -5.638   6.448  70.434  1.00  0.00    -0.017 OA 
BRANCH  25  28
HETATM   28  C   UNL     1      -7.264   7.659  71.729  1.00  0.00    -0.064 A  
HETATM   29  C   UNL     1      -6.365   7.927  72.772  1.00  0.00    -0.068 A  
HETATM   30  C   UNL     1      -6.830   8.198  74.060  1.00  0.00    -0.158 A  
HETATM   31  C   UNL     1      -8.198   8.214  74.321  1.00  0.00    -0.290 A  
HETATM   32  C   UNL     1      -9.105   7.970  73.293  1.00  0.00    -0.349 A  
HETATM   33  C   UNL     1      -8.642   7.698  72.004  1.00  0.00    -0.136 A  
ENDBRANCH  25  28
ENDBRANCH  22  25
ENDBRANCH  10  21
TORSDOF 6
ENDMDL
MODEL       74
REMARK 921   NORMALIZED FREE ENERGY PREDICTED BY IDOCK:   -5.65 KCAL/MOL
REMARK 922        TOTAL FREE ENERGY PREDICTED BY IDOCK:   -8.68 KCAL/MOL
REMARK 923 INTER-LIGAND FREE ENERGY PREDICTED BY IDOCK:   -7.70 KCAL/MOL
REMARK 924 INTRA-LIGAND FREE ENERGY PREDICTED BY IDOCK:   -0.98 KCAL/MOL
REMARK 927      BINDING AFFINITY PREDICTED BY RF-SCORE:    0.00 PKD
ROOT
HETATM    1  C   UNL     1      -7.889  11.742  67.404  1.00  0.00    -0.155 C  
HETATM    2  S   UNL     1      -7.513  12.122  69.136  1.00  0.00     0.215 SA 
HETATM    3  C   UNL     1      -7.135  10.404  69.541  1.00  0.00    -0.113 C  
HETATM    4  C   UNL     1      -8.182   9.397  69.078  1.00  0.00    -0.108 C  
HETATM    5  O   UNL     1     -10.831   8.758  66.627  1.00  0.00    -0.079 OA 
HETATM    6  CA  UNL     1      -9.082   9.642  68.078  1.00  0.00    -0.125 C  
HETATM    7  N   UNL     1      -8.999  10.806  67.365  1.00  0.00    -0.139 N  
HETATM    8  O   UNL     1     -10.822  11.230  65.997  1.00  0.00    -0.267 OA 
HETATM    9  C   UNL     1     -10.217   8.669  67.819  1.00  0.00    -0.225 C  
HETATM   10  CA  UNL     1      -8.821  12.772  66.680  1.00  0.00    -0.108 C  
HETATM   11  C   UNL     1      -9.776  11.534  66.527  1.00  0.00    -0.203 C  
HETATM   12  OXT UNL     1     -10.550   7.788  68.598  1.00  0.00    -0.192 OA 
ENDROOT
BRANCH   4  13
HETATM   13  C   UNL     1      -8.156   8.162  69.977  1.00  0.00    -0.114 C  
BRANCH  13  14
HETATM   14  S   UNL     1      -8.454   8.460  71.737  1.00  0.00    -0.174 SA 
BRANCH  14  15
HETATM   15  C   UNL     1     -10.146   8.721  71.851  1.00  0.00    -0.339 A  
HETATM   16  N   UNL     1     -10.854   9.683  71.311  1.00  0.00    -0.343 NA 
HETATM   17  C   UNL     1     -10.682   6.738  73.332  1.00  0.00    -0.305 C  
HETATM   18  N   UNL     1     -12.148   9.480  71.737  1.00  0.00    -0.386 NA 
HETATM   19  N   UNL     1     -12.226   8.408  72.514  1.00  0.00    -0.370 NA 
HETATM   20  N   UNL     1     -10.976   7.926  72.581  1.00  0.00    -0.349 NA 
ENDBRANCH  14  15
ENDBRANCH  13  14
ENDBRANCH   4  13
BRANCH  10  21
HETATM   21  N   UNL     1      -9.334  13.867  67.534  1.00  0.00    -0.209 N  
HETATM   22  C   UNL     1      -9.381  15.194  67.167  1.00  0.00    -0.212 C  
HETATM   23  O   UNL     1      -8.948  15.614  66.099  1.00  0.00    -0.323 OA 
HETATM   24  H   UNL     1      -9.678  13.621  68.463  1.00  0.00     0.000 HD 
BRANCH  22  25
HETATM   25  C   UNL     1     -10.057  16.081  68.236  1.00  0.00    -0.229 C  
HETATM   26  H   UNL     1     -11.878  16.336  68.946  1.00  0.00     0.000 HD 
HETATM   27  O   UNL     1     -11.463  15.791  68.289  1.00  0.00    -0.361 OA 
BRANCH  25  28
HETATM   28  C   UNL     1      -9.859  17.554  67.959  1.00  0.00    -0.299 A  
HETATM   29  C   UNL     1      -8.754  18.224  68.504  1.00  0.00    -0.325 A  
HETATM   30  C   UNL     1      -8.557  19.585  68.262  1.00  0.00    -0.380 A  
HETATM   31  C   UNL     1      -9.455  20.292  67.465  1.00  0.00    -0.539 A  
HETATM   32  C   UNL     1     -10.547  19.637  66.901  1.00  0.00    -0.603 A  
HETATM   33  C   UNL     1     -10.747  18.277  67.142  1.00  0.00    -0.334 A  
ENDBRANCH  25  28
ENDBRANCH  22  25
ENDBRANCH  10  21
TORSDOF 6
ENDMDL
MODEL       75
REMARK 921   NORMALIZED FREE ENERGY PREDICTED BY IDOCK:   -5.64 KCAL/MOL
REMARK 922        TOTAL FREE ENERGY PREDICTED BY IDOCK:   -8.66 KCAL/MOL
REMARK 923 INTER-LIGAND FREE ENERGY PREDICTED BY IDOCK:   -7.60 KCAL/MOL
REMARK 924 INTRA-LIGAND FREE ENERGY PREDICTED BY IDOCK:   -1.05 KCAL/MOL
REMARK 927      BINDING AFFINITY PREDICTED BY RF-SCORE:    0.00 PKD
ROOT
HETATM    1  C   UNL     1     -11.756  11.543  67.260  1.00  0.00    -0.111 C  
HETATM    2  S   UNL     1     -10.187  11.156  66.440  1.00  0.00    -0.240 SA 
HETATM    3  C   UNL     1     -10.204   9.436  66.987  1.00  0.00    -0.255 C  
HETATM    4  C   UNL     1     -10.480   9.243  68.474  1.00  0.00    -0.240 C  
HETATM    5  O   UNL     1     -12.067  10.718  71.430  1.00  0.00    -0.307 OA 
HETATM    6  CA  UNL     1     -11.100  10.177  69.258  1.00  0.00    -0.225 C  
HETATM    7  N   UNL     1     -11.605  11.312  68.686  1.00  0.00    -0.295 N  
HETATM    8  O   UNL     1     -12.257  12.944  70.198  1.00  0.00    -0.322 OA 
HETATM    9  C   UNL     1     -11.153   9.994  70.763  1.00  0.00    -0.334 C  
HETATM   10  CA  UNL     1     -11.981  13.056  67.597  1.00  0.00    -0.301 C  
HETATM   11  C   UNL     1     -12.033  12.536  69.079  1.00  0.00    -0.233 C  
HETATM   12  OXT UNL     1     -10.464   9.192  71.376  1.00  0.00    -0.295 OA 
ENDROOT
BRANCH   4  13
HETATM   13  C   UNL     1      -9.846   7.942  68.962  1.00  0.00    -0.171 C  
BRANCH  13  14
HETATM   14  S   UNL     1     -10.908   6.477  68.909  1.00  0.00    -0.309 SA 
BRANCH  14  15
HETATM   15  C   UNL     1     -10.922   5.895  70.522  1.00  0.00    -0.292 A  
HETATM   16  N   UNL     1     -10.080   5.067  71.091  1.00  0.00    -0.215 NA 
HETATM   17  C   UNL     1     -13.001   7.119  71.292  1.00  0.00    -0.324 C  
HETATM   18  N   UNL     1     -10.548   4.876  72.372  1.00  0.00    -0.211 NA 
HETATM   19  N   UNL     1     -11.651   5.584  72.580  1.00  0.00    -0.284 NA 
HETATM   20  N   UNL     1     -11.883   6.229  71.427  1.00  0.00    -0.271 NA 
ENDBRANCH  14  15
ENDBRANCH  13  14
ENDBRANCH   4  13
BRANCH  10  21
HETATM   21  N   UNL     1     -10.843  13.948  67.277  1.00  0.00    -0.284 N  
HETATM   22  C   UNL     1     -10.738  15.262  67.678  1.00  0.00    -0.282 C  
HETATM   23  O   UNL     1     -11.615  15.847  68.306  1.00  0.00    -0.355 OA 
HETATM   24  H   UNL     1     -10.081  13.562  66.720  1.00  0.00     0.000 HD 
BRANCH  22  25
HETATM   25  C   UNL     1      -9.392  15.900  67.270  1.00  0.00    -0.211 C  
HETATM   26  H   UNL     1      -8.365  16.144  65.605  1.00  0.00     0.000 HD 
HETATM   27  O   UNL     1      -9.193  15.752  65.856  1.00  0.00    -0.340 OA 
BRANCH  25  28
HETATM   28  C   UNL     1      -8.225  15.281  68.007  1.00  0.00    -0.143 A  
HETATM   29  C   UNL     1      -7.448  14.296  67.381  1.00  0.00    -0.172 A  
HETATM   30  C   UNL     1      -6.369  13.711  68.048  1.00  0.00    -0.139 A  
HETATM   31  C   UNL     1      -6.048  14.108  69.344  1.00  0.00    -0.104 A  
HETATM   32  C   UNL     1      -6.799  15.099  69.973  1.00  0.00    -0.109 A  
HETATM   33  C   UNL     1      -7.878  15.685  69.308  1.00  0.00    -0.230 A  
ENDBRANCH  25  28
ENDBRANCH  22  25
ENDBRANCH  10  21
TORSDOF 6
ENDMDL
MODEL       76
REMARK 921   NORMALIZED FREE ENERGY PREDICTED BY IDOCK:   -5.63 KCAL/MOL
REMARK 922        TOTAL FREE ENERGY PREDICTED BY IDOCK:   -8.64 KCAL/MOL
REMARK 923 INTER-LIGAND FREE ENERGY PREDICTED BY IDOCK:   -7.67 KCAL/MOL
REMARK 924 INTRA-LIGAND FREE ENERGY PREDICTED BY IDOCK:   -0.97 KCAL/MOL
REMARK 927      BINDING AFFINITY PREDICTED BY RF-SCORE:    0.00 PKD
ROOT
HETATM    1  C   UNL     1     -11.564  11.617  67.711  1.00  0.00    -0.289 C  
HETATM    2  S   UNL     1      -9.886  11.290  67.108  1.00  0.00    -0.192 SA 
HETATM    3  C   UNL     1      -9.951   9.544  67.559  1.00  0.00    -0.186 C  
HETATM    4  C   UNL     1     -10.434   9.270  68.978  1.00  0.00    -0.233 C  
HETATM    5  O   UNL     1     -12.455  10.572  71.745  1.00  0.00    -0.373 OA 
HETATM    6  CA  UNL     1     -11.177  10.155  69.711  1.00  0.00    -0.272 C  
HETATM    7  N   UNL     1     -11.614  11.314  69.130  1.00  0.00    -0.288 N  
HETATM    8  O   UNL     1     -12.505  12.858  70.613  1.00  0.00    -0.323 OA 
HETATM    9  C   UNL     1     -11.443   9.893  71.182  1.00  0.00    -0.383 C  
HETATM   10  CA  UNL     1     -11.860  13.108  68.088  1.00  0.00    -0.348 C  
HETATM   11  C   UNL     1     -12.116  12.511  69.519  1.00  0.00    -0.187 C  
HETATM   12  OXT UNL     1     -10.835   9.067  71.847  1.00  0.00    -0.350 OA 
ENDROOT
BRANCH   4  13
HETATM   13  C   UNL     1      -9.855   7.952  69.486  1.00  0.00    -0.176 C  
BRANCH  13  14
HETATM   14  S   UNL     1      -8.211   7.520  68.866  1.00  0.00    -0.129 SA 
BRANCH  14  15
HETATM   15  C   UNL     1      -7.131   8.100  70.065  1.00  0.00    -0.048 A  
HETATM   16  N   UNL     1      -6.706   9.326  70.247  1.00  0.00    -0.057 NA 
HETATM   17  C   UNL     1      -6.704   5.885  71.217  1.00  0.00    -0.061 C  
HETATM   18  N   UNL     1      -5.822   9.265  71.301  1.00  0.00    -0.062 NA 
HETATM   19  N   UNL     1      -5.718   8.024  71.758  1.00  0.00    -0.035 NA 
HETATM   20  N   UNL     1      -6.542   7.293  70.992  1.00  0.00    -0.043 NA 
ENDBRANCH  14  15
ENDBRANCH  13  14
ENDBRANCH   4  13
BRANCH  10  21
HETATM   21  N   UNL     1     -10.705  14.028  67.981  1.00  0.00    -0.242 N  
HETATM   22  C   UNL     1     -10.721  15.357  68.344  1.00  0.00    -0.256 C  
HETATM   23  O   UNL     1     -11.726  15.932  68.751  1.00  0.00    -0.387 OA 
HETATM   24  H   UNL     1      -9.832  13.650  67.612  1.00  0.00     0.000 HD 
BRANCH  22  25
HETATM   25  C   UNL     1      -9.336  16.025  68.205  1.00  0.00    -0.199 C  
HETATM   26  H   UNL     1      -7.783  16.369  69.370  1.00  0.00     0.000 HD 
HETATM   27  O   UNL     1      -8.635  15.957  69.456  1.00  0.00    -0.237 OA 
BRANCH  25  28
HETATM   28  C   UNL     1      -9.445  17.470  67.770  1.00  0.00    -0.269 A  
HETATM   29  C   UNL     1      -9.099  18.495  68.662  1.00  0.00    -0.325 A  
HETATM   30  C   UNL     1      -9.197  19.835  68.279  1.00  0.00    -0.388 A  
HETATM   31  C   UNL     1      -9.633  20.166  66.999  1.00  0.00    -0.558 A  
HETATM   32  C   UNL     1      -9.963  19.160  66.094  1.00  0.00    -0.441 A  
HETATM   33  C   UNL     1      -9.866  17.820  66.475  1.00  0.00    -0.331 A  
ENDBRANCH  25  28
ENDBRANCH  22  25
ENDBRANCH  10  21
TORSDOF 6
ENDMDL
MODEL       77
REMARK 921   NORMALIZED FREE ENERGY PREDICTED BY IDOCK:   -5.62 KCAL/MOL
REMARK 922        TOTAL FREE ENERGY PREDICTED BY IDOCK:   -8.63 KCAL/MOL
REMARK 923 INTER-LIGAND FREE ENERGY PREDICTED BY IDOCK:   -7.58 KCAL/MOL
REMARK 924 INTRA-LIGAND FREE ENERGY PREDICTED BY IDOCK:   -1.05 KCAL/MOL
REMARK 927      BINDING AFFINITY PREDICTED BY RF-SCORE:    0.00 PKD
ROOT
HETATM    1  C   UNL     1      -9.054   8.802  71.404  1.00  0.00    -0.243 C  
HETATM    2  S   UNL     1      -8.852   8.847  69.603  1.00  0.00    -0.148 SA 
HETATM    3  C   UNL     1      -9.816  10.362  69.427  1.00  0.00    -0.213 C  
HETATM    4  C   UNL     1     -11.157  10.352  70.152  1.00  0.00    -0.383 C  
HETATM    5  O   UNL     1     -13.023   8.900  72.953  1.00  0.00    -0.330 OA 
HETATM    6  CA  UNL     1     -11.449   9.518  71.197  1.00  0.00    -0.360 C  
HETATM    7  N   UNL     1     -10.471   8.711  71.710  1.00  0.00    -0.295 N  
HETATM    8  O   UNL     1     -11.232   7.099  73.192  1.00  0.00    -0.278 OA 
HETATM    9  C   UNL     1     -12.867   9.429  71.728  1.00  0.00    -0.399 C  
HETATM   10  CA  UNL     1      -8.890   7.390  72.062  1.00  0.00    -0.124 C  
HETATM   11  C   UNL     1     -10.378   7.620  72.509  1.00  0.00    -0.255 C  
HETATM   12  OXT UNL     1     -13.844   9.862  71.136  1.00  0.00    -0.198 OA 
ENDROOT
BRANCH   4  13
HETATM   13  C   UNL     1     -12.139  11.291  69.456  1.00  0.00    -0.317 C  
BRANCH  13  14
HETATM   14  S   UNL     1     -11.776  13.059  69.595  1.00  0.00    -0.264 SA 
BRANCH  14  15
HETATM   15  C   UNL     1     -12.560  13.549  71.039  1.00  0.00    -0.359 A  
HETATM   16  N   UNL     1     -13.441  12.885  71.748  1.00  0.00    -0.353 NA 
HETATM   17  C   UNL     1     -11.478  15.830  71.239  1.00  0.00    -0.422 C  
HETATM   18  N   UNL     1     -13.802  13.723  72.780  1.00  0.00    -0.689 NA 
HETATM   19  N   UNL     1     -13.145  14.873  72.704  1.00  0.00    -0.390 NA 
HETATM   20  N   UNL     1     -12.361  14.764  71.621  1.00  0.00    -0.330 NA 
ENDBRANCH  14  15
ENDBRANCH  13  14
ENDBRANCH   4  13
BRANCH  10  21
HETATM   21  N   UNL     1      -8.677   6.274  71.113  1.00  0.00    -0.128 N  
HETATM   22  C   UNL     1      -7.453   5.719  70.813  1.00  0.00    -0.090 C  
HETATM   23  O   UNL     1      -6.394   6.135  71.271  1.00  0.00    -0.045 OA 
HETATM   24  H   UNL     1      -9.499   5.887  70.647  1.00  0.00     0.000 HD 
BRANCH  22  25
HETATM   25  C   UNL     1      -7.569   4.507  69.862  1.00  0.00    -0.054 C  
HETATM   26  H   UNL     1      -6.336   3.224  69.015  1.00  0.00     0.000 HD 
HETATM   27  O   UNL     1      -6.264   3.968  69.600  1.00  0.00    -0.026 OA 
BRANCH  25  28
HETATM   28  C   UNL     1      -8.231   4.876  68.553  1.00  0.00    -0.084 A  
HETATM   29  C   UNL     1      -7.617   5.802  67.697  1.00  0.00    -0.089 A  
HETATM   30  C   UNL     1      -8.215   6.158  66.486  1.00  0.00    -0.111 A  
HETATM   31  C   UNL     1      -9.429   5.586  66.111  1.00  0.00    -0.166 A  
HETATM   32  C   UNL     1     -10.042   4.650  66.940  1.00  0.00    -0.227 A  
HETATM   33  C   UNL     1      -9.446   4.294  68.151  1.00  0.00    -0.213 A  
ENDBRANCH  25  28
ENDBRANCH  22  25
ENDBRANCH  10  21
TORSDOF 6
ENDMDL
MODEL       78
REMARK 921   NORMALIZED FREE ENERGY PREDICTED BY IDOCK:   -5.62 KCAL/MOL
REMARK 922        TOTAL FREE ENERGY PREDICTED BY IDOCK:   -8.63 KCAL/MOL
REMARK 923 INTER-LIGAND FREE ENERGY PREDICTED BY IDOCK:   -7.81 KCAL/MOL
REMARK 924 INTRA-LIGAND FREE ENERGY PREDICTED BY IDOCK:   -0.82 KCAL/MOL
REMARK 927      BINDING AFFINITY PREDICTED BY RF-SCORE:    0.00 PKD
ROOT
HETATM    1  C   UNL     1      -8.139   9.275  70.491  1.00  0.00    -0.174 C  
HETATM    2  S   UNL     1      -7.592   8.430  68.984  1.00  0.00    -0.093 SA 
HETATM    3  C   UNL     1      -8.031   9.819  67.919  1.00  0.00    -0.104 C  
HETATM    4  C   UNL     1      -9.432  10.376  68.145  1.00  0.00    -0.152 C  
HETATM    5  O   UNL     1     -12.135  10.753  70.592  1.00  0.00    -0.308 OA 
HETATM    6  CA  UNL     1     -10.144  10.196  69.299  1.00  0.00    -0.222 C  
HETATM    7  N   UNL     1      -9.554   9.577  70.367  1.00  0.00    -0.261 N  
HETATM    8  O   UNL     1     -11.013   9.008  72.076  1.00  0.00    -0.358 OA 
HETATM    9  C   UNL     1     -11.603  10.606  69.367  1.00  0.00    -0.280 C  
HETATM   10  CA  UNL     1      -8.513   8.336  71.687  1.00  0.00    -0.149 C  
HETATM   11  C   UNL     1      -9.931   8.994  71.530  1.00  0.00    -0.321 C  
HETATM   12  OXT UNL     1     -12.284  10.864  68.386  1.00  0.00    -0.540 OA 
ENDROOT
BRANCH   4  13
HETATM   13  C   UNL     1      -9.953  11.024  66.864  1.00  0.00    -0.196 C  
BRANCH  13  14
HETATM   14  S   UNL     1      -9.910  12.833  66.820  1.00  0.00    -0.247 SA 
BRANCH  14  15
HETATM   15  C   UNL     1     -11.236  13.273  65.825  1.00  0.00    -0.294 A  
HETATM   16  N   UNL     1     -12.235  12.522  65.428  1.00  0.00    -0.578 NA 
HETATM   17  C   UNL     1     -10.572  15.687  65.446  1.00  0.00    -0.415 C  
HETATM   18  N   UNL     1     -13.005  13.321  64.613  1.00  0.00    -0.686 NA 
HETATM   19  N   UNL     1     -12.488  14.539  64.523  1.00  0.00    -0.647 NA 
HETATM   20  N   UNL     1     -11.385  14.515  65.287  1.00  0.00    -0.339 NA 
ENDBRANCH  14  15
ENDBRANCH  13  14
ENDBRANCH   4  13
BRANCH  10  21
HETATM   21  N   UNL     1      -8.450   6.886  71.394  1.00  0.00    -0.119 N  
HETATM   22  C   UNL     1      -7.852   5.945  72.203  1.00  0.00    -0.103 C  
HETATM   23  O   UNL     1      -7.258   6.227  73.239  1.00  0.00    -0.086 OA 
HETATM   24  H   UNL     1      -8.882   6.560  70.529  1.00  0.00     0.000 HD 
BRANCH  22  25
HETATM   25  C   UNL     1      -8.036   4.506  71.674  1.00  0.00    -0.100 C  
HETATM   26  H   UNL     1      -8.758   3.655  70.049  1.00  0.00     0.000 HD 
HETATM   27  O   UNL     1      -8.646   4.540  70.375  1.00  0.00    -0.076 OA 
BRANCH  25  28
HETATM   28  C   UNL     1      -8.882   3.664  72.603  1.00  0.00    -0.106 A  
HETATM   29  C   UNL     1      -8.270   2.930  73.629  1.00  0.00    -0.072 A  
HETATM   30  C   UNL     1      -9.034   2.144  74.494  1.00  0.00    -0.080 A  
HETATM   31  C   UNL     1     -10.419   2.089  74.351  1.00  0.00    -0.188 A  
HETATM   32  C   UNL     1     -11.044   2.827  73.349  1.00  0.00    -0.286 A  
HETATM   33  C   UNL     1     -10.282   3.613  72.483  1.00  0.00    -0.229 A  
ENDBRANCH  25  28
ENDBRANCH  22  25
ENDBRANCH  10  21
TORSDOF 6
ENDMDL
MODEL       79
REMARK 921   NORMALIZED FREE ENERGY PREDICTED BY IDOCK:   -5.61 KCAL/MOL
REMARK 922        TOTAL FREE ENERGY PREDICTED BY IDOCK:   -8.62 KCAL/MOL
REMARK 923 INTER-LIGAND FREE ENERGY PREDICTED BY IDOCK:   -7.58 KCAL/MOL
REMARK 924 INTRA-LIGAND FREE ENERGY PREDICTED BY IDOCK:   -1.04 KCAL/MOL
REMARK 927      BINDING AFFINITY PREDICTED BY RF-SCORE:    0.00 PKD
ROOT
HETATM    1  C   UNL     1      -9.211   8.606  71.560  1.00  0.00    -0.246 C  
HETATM    2  S   UNL     1      -8.531   8.166  69.938  1.00  0.00    -0.126 SA 
HETATM    3  C   UNL     1      -8.696   9.845  69.297  1.00  0.00    -0.169 C  
HETATM    4  C   UNL     1     -10.062  10.482  69.524  1.00  0.00    -0.208 C  
HETATM    5  O   UNL     1     -13.040  10.474  71.660  1.00  0.00    -0.412 OA 
HETATM    6  CA  UNL     1     -10.942  10.070  70.486  1.00  0.00    -0.326 C  
HETATM    7  N   UNL     1     -10.564   9.103  71.377  1.00  0.00    -0.317 N  
HETATM    8  O   UNL     1     -12.292   8.254  72.668  1.00  0.00    -0.338 OA 
HETATM    9  C   UNL     1     -12.356  10.619  70.513  1.00  0.00    -0.359 C  
HETATM   10  CA  UNL     1      -9.830   7.418  72.372  1.00  0.00    -0.167 C  
HETATM   11  C   UNL     1     -11.150   8.263  72.265  1.00  0.00    -0.359 C  
HETATM   12  OXT UNL     1     -12.867  11.229  69.585  1.00  0.00    -0.038 OA 
ENDROOT
BRANCH   4  13
HETATM   13  C   UNL     1     -10.340  11.529  68.447  1.00  0.00    -0.202 C  
BRANCH  13  14
HETATM   14  S   UNL     1     -10.314  10.931  66.738  1.00  0.00    -0.250 SA 
BRANCH  14  15
HETATM   15  C   UNL     1     -11.385  11.975  65.900  1.00  0.00    -0.337 A  
HETATM   16  N   UNL     1     -12.392  12.662  66.384  1.00  0.00    -0.459 NA 
HETATM   17  C   UNL     1     -10.380  11.687  63.593  1.00  0.00    -0.419 C  
HETATM   18  N   UNL     1     -12.964  13.300  65.305  1.00  0.00    -0.668 NA 
HETATM   19  N   UNL     1     -12.311  13.013  64.187  1.00  0.00    -0.569 NA 
HETATM   20  N   UNL     1     -11.317  12.190  64.556  1.00  0.00    -0.322 NA 
ENDBRANCH  14  15
ENDBRANCH  13  14
ENDBRANCH   4  13
BRANCH  10  21
HETATM   21  N   UNL     1      -9.850   6.116  71.667  1.00  0.00    -0.169 N  
HETATM   22  C   UNL     1      -9.056   5.037  71.985  1.00  0.00    -0.136 C  
HETATM   23  O   UNL     1      -8.203   5.064  72.867  1.00  0.00    -0.107 OA 
HETATM   24  H   UNL     1     -10.501   6.011  70.888  1.00  0.00     0.000 HD 
BRANCH  22  25
HETATM   25  C   UNL     1      -9.378   3.792  71.130  1.00  0.00    -0.149 C  
HETATM   26  H   UNL     1      -8.994   1.860  71.204  1.00  0.00     0.000 HD 
HETATM   27  O   UNL     1      -8.796   2.625  71.731  1.00  0.00    -0.071 OA 
BRANCH  25  28
HETATM   28  C   UNL     1      -8.871   3.931  69.712  1.00  0.00    -0.143 A  
HETATM   29  C   UNL     1      -7.491   3.905  69.459  1.00  0.00    -0.053 A  
HETATM   30  C   UNL     1      -7.004   4.036  68.157  1.00  0.00    -0.051 A  
HETATM   31  C   UNL     1      -7.888   4.187  67.091  1.00  0.00    -0.096 A  
HETATM   32  C   UNL     1      -9.261   4.196  67.322  1.00  0.00    -0.178 A  
HETATM   33  C   UNL     1      -9.750   4.065  68.623  1.00  0.00    -0.138 A  
ENDBRANCH  25  28
ENDBRANCH  22  25
ENDBRANCH  10  21
TORSDOF 6
ENDMDL
MODEL       80
REMARK 921   NORMALIZED FREE ENERGY PREDICTED BY IDOCK:   -5.59 KCAL/MOL
REMARK 922        TOTAL FREE ENERGY PREDICTED BY IDOCK:   -8.59 KCAL/MOL
REMARK 923 INTER-LIGAND FREE ENERGY PREDICTED BY IDOCK:   -7.76 KCAL/MOL
REMARK 924 INTRA-LIGAND FREE ENERGY PREDICTED BY IDOCK:   -0.84 KCAL/MOL
REMARK 927      BINDING AFFINITY PREDICTED BY RF-SCORE:    0.00 PKD
ROOT
HETATM    1  C   UNL     1     -10.818   6.847  72.144  1.00  0.00    -0.225 C  
HETATM    2  S   UNL     1     -11.285   6.601  70.410  1.00  0.00    -0.370 SA 
HETATM    3  C   UNL     1     -10.432   5.014  70.296  1.00  0.00    -0.173 C  
HETATM    4  C   UNL     1      -9.000   5.023  70.818  1.00  0.00    -0.165 C  
HETATM    5  O   UNL     1      -6.673   6.672  73.120  1.00  0.00    -0.067 OA 
HETATM    6  CA  UNL     1      -8.518   5.954  71.696  1.00  0.00    -0.128 C  
HETATM    7  N   UNL     1      -9.369   6.880  72.234  1.00  0.00    -0.138 N  
HETATM    8  O   UNL     1      -8.320   8.604  73.375  1.00  0.00    -0.398 OA 
HETATM    9  C   UNL     1      -7.034   6.013  72.007  1.00  0.00    -0.078 C  
HETATM   10  CA  UNL     1     -10.815   8.335  72.632  1.00  0.00    -0.311 C  
HETATM   11  C   UNL     1      -9.290   8.063  72.891  1.00  0.00    -0.271 C  
HETATM   12  OXT UNL     1      -6.177   5.448  71.343  1.00  0.00    -0.031 OA 
ENDROOT
BRANCH   4  13
HETATM   13  C   UNL     1      -8.178   3.943  70.117  1.00  0.00    -0.056 C  
BRANCH  13  14
HETATM   14  S   UNL     1      -8.308   3.899  68.312  1.00  0.00    -0.092 SA 
BRANCH  14  15
HETATM   15  C   UNL     1      -8.038   5.519  67.820  1.00  0.00    -0.101 A  
HETATM   16  N   UNL     1      -6.984   6.267  68.038  1.00  0.00    -0.077 NA 
HETATM   17  C   UNL     1     -10.254   5.874  66.644  1.00  0.00    -0.205 C  
HETATM   18  N   UNL     1      -7.275   7.495  67.486  1.00  0.00    -0.088 NA 
HETATM   19  N   UNL     1      -8.481   7.491  66.935  1.00  0.00    -0.120 NA 
HETATM   20  N   UNL     1      -8.959   6.253  67.135  1.00  0.00    -0.111 NA 
ENDBRANCH  14  15
ENDBRANCH  13  14
ENDBRANCH   4  13
BRANCH  10  21
HETATM   21  N   UNL     1     -11.111   9.342  71.587  1.00  0.00    -0.369 N  
HETATM   22  C   UNL     1     -12.335   9.945  71.401  1.00  0.00    -0.404 C  
HETATM   23  O   UNL     1     -13.331   9.667  72.061  1.00  0.00    -0.409 OA 
HETATM   24  H   UNL     1     -10.352   9.608  70.958  1.00  0.00     0.000 HD 
BRANCH  22  25
HETATM   25  C   UNL     1     -12.303  11.021  70.293  1.00  0.00    -0.328 C  
HETATM   26  H   UNL     1     -11.009  11.662  68.951  1.00  0.00     0.000 HD 
HETATM   27  O   UNL     1     -11.029  11.001  69.632  1.00  0.00    -0.251 OA 
BRANCH  25  28
HETATM   28  C   UNL     1     -12.561  12.407  70.841  1.00  0.00    -0.337 A  
HETATM   29  C   UNL     1     -13.279  12.562  72.036  1.00  0.00    -0.524 A  
HETATM   30  C   UNL     1     -13.530  13.834  72.555  1.00  0.00    -0.682 A  
HETATM   31  C   UNL     1     -13.060  14.966  71.893  1.00  0.00    -0.425 A  
HETATM   32  C   UNL     1     -12.329  14.828  70.715  1.00  0.00    -0.397 A  
HETATM   33  C   UNL     1     -12.078  13.558  70.194  1.00  0.00    -0.425 A  
ENDBRANCH  25  28
ENDBRANCH  22  25
ENDBRANCH  10  21
TORSDOF 6
ENDMDL
MODEL       81
REMARK 921   NORMALIZED FREE ENERGY PREDICTED BY IDOCK:   -5.59 KCAL/MOL
REMARK 922        TOTAL FREE ENERGY PREDICTED BY IDOCK:   -8.59 KCAL/MOL
REMARK 923 INTER-LIGAND FREE ENERGY PREDICTED BY IDOCK:   -7.68 KCAL/MOL
REMARK 924 INTRA-LIGAND FREE ENERGY PREDICTED BY IDOCK:   -0.91 KCAL/MOL
REMARK 927      BINDING AFFINITY PREDICTED BY RF-SCORE:    0.00 PKD
ROOT
HETATM    1  C   UNL     1     -10.694   7.527  67.118  1.00  0.00    -0.309 C  
HETATM    2  S   UNL     1     -10.509   8.611  68.559  1.00  0.00    -0.129 SA 
HETATM    3  C   UNL     1     -10.492  10.113  67.559  1.00  0.00    -0.253 C  
HETATM    4  C   UNL     1      -9.539  10.076  66.370  1.00  0.00    -0.248 C  
HETATM    5  O   UNL     1      -7.816   7.879  63.994  1.00  0.00    -0.130 OA 
HETATM    6  CA  UNL     1      -9.072   8.920  65.807  1.00  0.00    -0.221 C  
HETATM    7  N   UNL     1      -9.548   7.715  66.246  1.00  0.00    -0.136 N  
HETATM    8  O   UNL     1      -8.370   5.874  65.471  1.00  0.00    -0.133 OA 
HETATM    9  C   UNL     1      -7.972   8.970  64.763  1.00  0.00    -0.129 C  
HETATM   10  CA  UNL     1     -10.210   6.052  67.324  1.00  0.00    -0.195 C  
HETATM   11  C   UNL     1      -9.206   6.406  66.169  1.00  0.00    -0.106 C  
HETATM   12  OXT UNL     1      -7.280   9.954  64.550  1.00  0.00    -0.127 OA 
ENDROOT
BRANCH   4  13
HETATM   13  C   UNL     1      -9.092  11.491  66.009  1.00  0.00    -0.198 C  
BRANCH  13  14
HETATM   14  S   UNL     1     -10.016  12.836  66.792  1.00  0.00    -0.242 SA 
BRANCH  14  15
HETATM   15  C   UNL     1     -11.306  13.160  65.710  1.00  0.00    -0.306 A  
HETATM   16  N   UNL     1     -12.296  12.371  65.369  1.00  0.00    -0.614 NA 
HETATM   17  C   UNL     1     -10.614  15.513  65.076  1.00  0.00    -0.409 C  
HETATM   18  N   UNL     1     -13.033  13.073  64.441  1.00  0.00    -0.652 NA 
HETATM   19  N   UNL     1     -12.506  14.271  64.229  1.00  0.00    -0.692 NA 
HETATM   20  N   UNL     1     -11.430  14.333  65.027  1.00  0.00    -0.347 NA 
ENDBRANCH  14  15
ENDBRANCH  13  14
ENDBRANCH   4  13
BRANCH  10  21
HETATM   21  N   UNL     1      -9.590   5.769  68.639  1.00  0.00    -0.123 N  
HETATM   22  C   UNL     1      -9.345   4.509  69.138  1.00  0.00    -0.149 C  
HETATM   23  O   UNL     1      -9.668   3.478  68.555  1.00  0.00    -0.126 OA 
HETATM   24  H   UNL     1      -9.325   6.566  69.218  1.00  0.00     0.000 HD 
BRANCH  22  25
HETATM   25  C   UNL     1      -8.602   4.542  70.491  1.00  0.00    -0.085 C  
HETATM   26  H   UNL     1      -7.016   3.677  71.280  1.00  0.00     0.000 HD 
HETATM   27  O   UNL     1      -7.473   3.656  70.448  1.00  0.00    -0.041 OA 
BRANCH  25  28
HETATM   28  C   UNL     1      -9.502   4.151  71.642  1.00  0.00    -0.216 A  
HETATM   29  C   UNL     1      -9.476   2.837  72.132  1.00  0.00    -0.185 A  
HETATM   30  C   UNL     1     -10.302   2.456  73.192  1.00  0.00    -0.220 A  
HETATM   31  C   UNL     1     -11.158   3.385  73.780  1.00  0.00    -0.286 A  
HETATM   32  C   UNL     1     -11.182   4.698  73.318  1.00  0.00    -0.411 A  
HETATM   33  C   UNL     1     -10.357   5.081  72.259  1.00  0.00    -0.267 A  
ENDBRANCH  25  28
ENDBRANCH  22  25
ENDBRANCH  10  21
TORSDOF 6
ENDMDL
MODEL       82
REMARK 921   NORMALIZED FREE ENERGY PREDICTED BY IDOCK:   -5.59 KCAL/MOL
REMARK 922        TOTAL FREE ENERGY PREDICTED BY IDOCK:   -8.59 KCAL/MOL
REMARK 923 INTER-LIGAND FREE ENERGY PREDICTED BY IDOCK:   -7.62 KCAL/MOL
REMARK 924 INTRA-LIGAND FREE ENERGY PREDICTED BY IDOCK:   -0.97 KCAL/MOL
REMARK 927      BINDING AFFINITY PREDICTED BY RF-SCORE:    0.00 PKD
ROOT
HETATM    1  C   UNL     1      -9.963   9.999  66.860  1.00  0.00    -0.209 C  
HETATM    2  S   UNL     1     -10.699  10.966  68.205  1.00  0.00    -0.224 SA 
HETATM    3  C   UNL     1     -10.123  12.538  67.532  1.00  0.00    -0.207 C  
HETATM    4  C   UNL     1      -8.648  12.564  67.147  1.00  0.00    -0.200 C  
HETATM    5  O   UNL     1      -5.800  10.506  66.106  1.00  0.00    -0.076 OA 
HETATM    6  CA  UNL     1      -7.912  11.441  66.886  1.00  0.00    -0.158 C  
HETATM    7  N   UNL     1      -8.528  10.220  66.860  1.00  0.00    -0.126 N  
HETATM    8  O   UNL     1      -7.079   8.411  66.801  1.00  0.00    -0.072 OA 
HETATM    9  C   UNL     1      -6.408  11.539  66.712  1.00  0.00    -0.134 C  
HETATM   10  CA  UNL     1      -9.665   8.500  67.199  1.00  0.00    -0.192 C  
HETATM   11  C   UNL     1      -8.178   8.912  66.901  1.00  0.00    -0.112 C  
HETATM   12  OXT UNL     1      -5.748  12.517  67.030  1.00  0.00    -0.315 OA 
ENDROOT
BRANCH   4  13
HETATM   13  C   UNL     1      -8.107  13.989  67.234  1.00  0.00    -0.156 C  
BRANCH  13  14
HETATM   14  S   UNL     1      -7.779  14.609  68.903  1.00  0.00    -0.137 SA 
BRANCH  14  15
HETATM   15  C   UNL     1      -9.086  15.668  69.235  1.00  0.00    -0.270 A  
HETATM   16  N   UNL     1     -10.176  15.419  69.920  1.00  0.00    -0.286 NA 
HETATM   17  C   UNL     1      -8.192  17.687  67.995  1.00  0.00    -0.242 C  
HETATM   18  N   UNL     1     -10.930  16.570  69.857  1.00  0.00    -0.336 NA 
HETATM   19  N   UNL     1     -10.306  17.504  69.153  1.00  0.00    -0.319 NA 
HETATM   20  N   UNL     1      -9.148  16.946  68.769  1.00  0.00    -0.263 NA 
ENDBRANCH  14  15
ENDBRANCH  13  14
ENDBRANCH   4  13
BRANCH  10  21
HETATM   21  N   UNL     1      -9.945   8.101  68.597  1.00  0.00    -0.184 N  
HETATM   22  C   UNL     1     -10.628   6.964  68.969  1.00  0.00    -0.217 C  
HETATM   23  O   UNL     1     -11.124   6.182  68.164  1.00  0.00    -0.332 OA 
HETATM   24  H   UNL     1      -9.607   8.714  69.340  1.00  0.00     0.000 HD 
BRANCH  22  25
HETATM   25  C   UNL     1     -10.675   6.776  70.501  1.00  0.00    -0.238 C  
HETATM   26  H   UNL     1     -10.741   5.261  71.760  1.00  0.00     0.000 HD 
HETATM   27  O   UNL     1     -10.712   5.376  70.818  1.00  0.00    -0.248 OA 
BRANCH  25  28
HETATM   28  C   UNL     1     -11.872   7.462  71.120  1.00  0.00    -0.330 A  
HETATM   29  C   UNL     1     -11.750   8.770  71.610  1.00  0.00    -0.402 A  
HETATM   30  C   UNL     1     -12.844   9.419  72.188  1.00  0.00    -0.480 A  
HETATM   31  C   UNL     1     -14.075   8.771  72.276  1.00  0.00    -0.511 A  
HETATM   32  C   UNL     1     -14.218   7.479  71.777  1.00  0.00    -0.548 A  
HETATM   33  C   UNL     1     -13.125   6.830  71.199  1.00  0.00    -0.096 A  
ENDBRANCH  25  28
ENDBRANCH  22  25
ENDBRANCH  10  21
TORSDOF 6
ENDMDL
MODEL       83
REMARK 921   NORMALIZED FREE ENERGY PREDICTED BY IDOCK:   -5.58 KCAL/MOL
REMARK 922        TOTAL FREE ENERGY PREDICTED BY IDOCK:   -8.58 KCAL/MOL
REMARK 923 INTER-LIGAND FREE ENERGY PREDICTED BY IDOCK:   -7.60 KCAL/MOL
REMARK 924 INTRA-LIGAND FREE ENERGY PREDICTED BY IDOCK:   -0.98 KCAL/MOL
REMARK 927      BINDING AFFINITY PREDICTED BY RF-SCORE:    0.00 PKD
ROOT
HETATM    1  C   UNL     1      -6.696  14.989  67.440  1.00  0.00    -0.071 C  
HETATM    2  S   UNL     1      -8.000  15.853  66.523  1.00  0.00    -0.089 SA 
HETATM    3  C   UNL     1      -7.039  17.374  66.383  1.00  0.00    -0.293 C  
HETATM    4  C   UNL     1      -6.425  17.862  67.689  1.00  0.00    -0.187 C  
HETATM    5  O   UNL     1      -5.229  16.826  70.995  1.00  0.00    -0.207 OA 
HETATM    6  CA  UNL     1      -6.203  17.057  68.772  1.00  0.00    -0.167 C  
HETATM    7  N   UNL     1      -6.439  15.713  68.673  1.00  0.00    -0.105 N  
HETATM    8  O   UNL     1      -6.392  14.576  70.693  1.00  0.00    -0.187 OA 
HETATM    9  C   UNL     1      -5.780  17.660  70.098  1.00  0.00    -0.227 C  
HETATM   10  CA  UNL     1      -7.180  13.790  68.324  1.00  0.00    -0.114 C  
HETATM   11  C   UNL     1      -6.598  14.652  69.501  1.00  0.00    -0.149 C  
HETATM   12  OXT UNL     1      -5.856  18.852  70.359  1.00  0.00    -0.226 OA 
ENDROOT
BRANCH   4  13
HETATM   13  C   UNL     1      -6.234  19.377  67.647  1.00  0.00    -0.203 C  
BRANCH  13  14
HETATM   14  S   UNL     1      -7.676  20.369  68.109  1.00  0.00     0.027 SA 
BRANCH  14  15
HETATM   15  C   UNL     1      -8.950  19.758  67.136  1.00  0.00    -0.327 A  
HETATM   16  N   UNL     1      -9.236  20.060  65.893  1.00  0.00    -0.255 NA 
HETATM   17  C   UNL     1      -9.968  18.214  68.867  1.00  0.00    -0.338 C  
HETATM   18  N   UNL     1     -10.371  19.343  65.585  1.00  0.00    -0.496 NA 
HETATM   19  N   UNL     1     -10.762  18.611  66.620  1.00  0.00    -0.334 NA 
HETATM   20  N   UNL     1      -9.870  18.861  67.590  1.00  0.00    -0.319 NA 
ENDBRANCH  14  15
ENDBRANCH  13  14
ENDBRANCH   4  13
BRANCH  10  21
HETATM   21  N   UNL     1      -8.646  13.582  68.355  1.00  0.00    -0.237 N  
HETATM   22  C   UNL     1      -9.263  12.366  68.553  1.00  0.00    -0.076 C  
HETATM   23  O   UNL     1      -8.649  11.311  68.674  1.00  0.00    -0.153 OA 
HETATM   24  H   UNL     1      -9.242  14.398  68.220  1.00  0.00     0.000 HD 
BRANCH  22  25
HETATM   25  C   UNL     1     -10.800  12.488  68.629  1.00  0.00    -0.248 C  
HETATM   26  H   UNL     1     -12.305  11.350  69.201  1.00  0.00     0.000 HD 
HETATM   27  O   UNL     1     -11.359  11.275  69.155  1.00  0.00    -0.231 OA 
BRANCH  25  28
HETATM   28  C   UNL     1     -11.414  12.777  67.276  1.00  0.00    -0.393 A  
HETATM   29  C   UNL     1     -11.215  11.882  66.215  1.00  0.00    -0.392 A  
HETATM   30  C   UNL     1     -11.770  12.133  64.959  1.00  0.00    -0.371 A  
HETATM   31  C   UNL     1     -12.538  13.277  64.749  1.00  0.00    -0.398 A  
HETATM   32  C   UNL     1     -12.760  14.166  65.798  1.00  0.00    -0.443 A  
HETATM   33  C   UNL     1     -12.206  13.917  67.054  1.00  0.00    -0.392 A  
ENDBRANCH  25  28
ENDBRANCH  22  25
ENDBRANCH  10  21
TORSDOF 6
ENDMDL
MODEL       84
REMARK 921   NORMALIZED FREE ENERGY PREDICTED BY IDOCK:   -5.55 KCAL/MOL
REMARK 922        TOTAL FREE ENERGY PREDICTED BY IDOCK:   -8.54 KCAL/MOL
REMARK 923 INTER-LIGAND FREE ENERGY PREDICTED BY IDOCK:   -7.62 KCAL/MOL
REMARK 924 INTRA-LIGAND FREE ENERGY PREDICTED BY IDOCK:   -0.93 KCAL/MOL
REMARK 927      BINDING AFFINITY PREDICTED BY RF-SCORE:    0.00 PKD
ROOT
HETATM    1  C   UNL     1     -11.857  13.482  67.699  1.00  0.00    -0.363 C  
HETATM    2  S   UNL     1     -10.380  12.454  67.481  1.00  0.00    -0.217 SA 
HETATM    3  C   UNL     1     -11.184  10.974  68.129  1.00  0.00    -0.302 C  
HETATM    4  C   UNL     1     -11.917  11.176  69.450  1.00  0.00    -0.420 C  
HETATM    5  O   UNL     1     -13.606  13.632  71.582  1.00  0.00    -0.348 OA 
HETATM    6  CA  UNL     1     -12.341  12.394  69.906  1.00  0.00    -0.048 C  
HETATM    7  N   UNL     1     -12.208  13.497  69.108  1.00  0.00    -0.269 N  
HETATM    8  O   UNL     1     -12.605  15.514  70.180  1.00  0.00    -0.380 OA 
HETATM    9  C   UNL     1     -12.878  12.535  71.318  1.00  0.00    -0.241 C  
HETATM   10  CA  UNL     1     -11.590  15.020  67.818  1.00  0.00    -0.319 C  
HETATM   11  C   UNL     1     -12.244  14.845  69.236  1.00  0.00    -0.186 C  
HETATM   12  OXT UNL     1     -12.736  11.689  72.188  1.00  0.00    -0.139 OA 
ENDROOT
BRANCH   4  13
HETATM   13  C   UNL     1     -11.974   9.861  70.226  1.00  0.00    -0.138 C  
BRANCH  13  14
HETATM   14  S   UNL     1     -10.470   9.407  71.125  1.00  0.00    -0.293 SA 
BRANCH  14  15
HETATM   15  C   UNL     1      -9.532   8.536  69.984  1.00  0.00    -0.164 A  
HETATM   16  N   UNL     1      -9.718   7.315  69.545  1.00  0.00    -0.158 NA 
HETATM   17  C   UNL     1      -7.808  10.338  69.537  1.00  0.00    -0.168 C  
HETATM   18  N   UNL     1      -8.674   7.061  68.684  1.00  0.00    -0.123 NA 
HETATM   19  N   UNL     1      -7.871   8.113  68.595  1.00  0.00    -0.112 NA 
HETATM   20  N   UNL     1      -8.409   9.041  69.400  1.00  0.00    -0.116 NA 
ENDBRANCH  14  15
ENDBRANCH  13  14
ENDBRANCH   4  13
BRANCH  10  21
HETATM   21  N   UNL     1     -10.163  15.415  67.822  1.00  0.00    -0.238 N  
HETATM   22  C   UNL     1      -9.698  16.682  68.096  1.00  0.00    -0.244 C  
HETATM   23  O   UNL     1     -10.436  17.637  68.319  1.00  0.00    -0.366 OA 
HETATM   24  H   UNL     1      -9.473  14.695  67.605  1.00  0.00     0.000 HD 
BRANCH  22  25
HETATM   25  C   UNL     1      -8.156  16.756  68.116  1.00  0.00    -0.197 C  
HETATM   26  H   UNL     1      -6.720  16.433  69.427  1.00  0.00     0.000 HD 
HETATM   27  O   UNL     1      -7.668  16.388  69.416  1.00  0.00    -0.221 OA 
BRANCH  25  28
HETATM   28  C   UNL     1      -7.649  18.136  67.763  1.00  0.00    -0.222 A  
HETATM   29  C   UNL     1      -7.070  18.941  68.755  1.00  0.00    -0.342 A  
HETATM   30  C   UNL     1      -6.601  20.220  68.448  1.00  0.00    -0.335 A  
HETATM   31  C   UNL     1      -6.695  20.707  67.146  1.00  0.00    -0.350 A  
HETATM   32  C   UNL     1      -7.250  19.913  66.146  1.00  0.00    -0.304 A  
HETATM   33  C   UNL     1      -7.721  18.635  66.450  1.00  0.00    -0.292 A  
ENDBRANCH  25  28
ENDBRANCH  22  25
ENDBRANCH  10  21
TORSDOF 6
ENDMDL
MODEL       85
REMARK 921   NORMALIZED FREE ENERGY PREDICTED BY IDOCK:   -5.55 KCAL/MOL
REMARK 922        TOTAL FREE ENERGY PREDICTED BY IDOCK:   -8.54 KCAL/MOL
REMARK 923 INTER-LIGAND FREE ENERGY PREDICTED BY IDOCK:   -7.98 KCAL/MOL
REMARK 924 INTRA-LIGAND FREE ENERGY PREDICTED BY IDOCK:   -0.55 KCAL/MOL
REMARK 927      BINDING AFFINITY PREDICTED BY RF-SCORE:    0.00 PKD
ROOT
HETATM    1  C   UNL     1     -10.979   6.834  71.886  1.00  0.00    -0.239 C  
HETATM    2  S   UNL     1     -11.300   6.698  70.107  1.00  0.00    -0.388 SA 
HETATM    3  C   UNL     1     -10.402   5.140  69.957  1.00  0.00    -0.276 C  
HETATM    4  C   UNL     1      -9.017   5.139  70.594  1.00  0.00    -0.162 C  
HETATM    5  O   UNL     1      -6.923   6.670  73.183  1.00  0.00    -0.076 OA 
HETATM    6  CA  UNL     1      -8.629   6.017  71.569  1.00  0.00    -0.132 C  
HETATM    7  N   UNL     1      -9.543   6.888  72.096  1.00  0.00    -0.146 N  
HETATM    8  O   UNL     1      -8.631   8.548  73.432  1.00  0.00    -0.350 OA 
HETATM    9  C   UNL     1      -7.177   6.081  72.003  1.00  0.00    -0.092 C  
HETATM   10  CA  UNL     1     -11.051   8.285  72.471  1.00  0.00    -0.368 C  
HETATM   11  C   UNL     1      -9.545   8.023  72.835  1.00  0.00    -0.279 C  
HETATM   12  OXT UNL     1      -6.256   5.580  71.375  1.00  0.00    -0.031 OA 
ENDROOT
BRANCH   4  13
HETATM   13  C   UNL     1      -8.116   4.126  69.892  1.00  0.00    -0.055 C  
BRANCH  13  14
HETATM   14  S   UNL     1      -7.319   4.698  68.371  1.00  0.00    -0.065 SA 
BRANCH  14  15
HETATM   15  C   UNL     1      -8.416   4.275  67.123  1.00  0.00    -0.100 A  
HETATM   16  N   UNL     1      -8.626   3.093  66.595  1.00  0.00    -0.112 NA 
HETATM   17  C   UNL     1      -9.363   6.590  66.724  1.00  0.00    -0.156 C  
HETATM   18  N   UNL     1      -9.561   3.286  65.603  1.00  0.00    -0.095 NA 
HETATM   19  N   UNL     1      -9.921   4.561  65.535  1.00  0.00    -0.210 NA 
HETATM   20  N   UNL     1      -9.212   5.181  66.490  1.00  0.00    -0.131 NA 
ENDBRANCH  14  15
ENDBRANCH  13  14
ENDBRANCH   4  13
BRANCH  10  21
HETATM   21  N   UNL     1     -11.287   9.355  71.475  1.00  0.00    -0.379 N  
HETATM   22  C   UNL     1     -12.494   9.984  71.268  1.00  0.00    -0.392 C  
HETATM   23  O   UNL     1     -13.524   9.679  71.862  1.00  0.00    -0.400 OA 
HETATM   24  H   UNL     1     -10.496   9.648  70.900  1.00  0.00     0.000 HD 
BRANCH  22  25
HETATM   25  C   UNL     1     -12.398  11.123  70.229  1.00  0.00    -0.315 C  
HETATM   26  H   UNL     1     -11.056  11.789  68.949  1.00  0.00     0.000 HD 
HETATM   27  O   UNL     1     -11.114  11.089  69.587  1.00  0.00    -0.251 OA 
BRANCH  25  28
HETATM   28  C   UNL     1     -12.609  12.482  70.857  1.00  0.00    -0.331 A  
HETATM   29  C   UNL     1     -12.138  13.632  70.206  1.00  0.00    -0.427 A  
HETATM   30  C   UNL     1     -12.320  14.895  70.772  1.00  0.00    -0.392 A  
HETATM   31  C   UNL     1     -12.982  15.027  71.991  1.00  0.00    -0.427 A  
HETATM   32  C   UNL     1     -13.473  13.897  72.641  1.00  0.00    -0.652 A  
HETATM   33  C   UNL     1     -13.291  12.634  72.077  1.00  0.00    -0.555 A  
ENDBRANCH  25  28
ENDBRANCH  22  25
ENDBRANCH  10  21
TORSDOF 6
ENDMDL
MODEL       86
REMARK 921   NORMALIZED FREE ENERGY PREDICTED BY IDOCK:   -5.55 KCAL/MOL
REMARK 922        TOTAL FREE ENERGY PREDICTED BY IDOCK:   -8.53 KCAL/MOL
REMARK 923 INTER-LIGAND FREE ENERGY PREDICTED BY IDOCK:   -7.18 KCAL/MOL
REMARK 924 INTRA-LIGAND FREE ENERGY PREDICTED BY IDOCK:   -1.36 KCAL/MOL
REMARK 927      BINDING AFFINITY PREDICTED BY RF-SCORE:    0.00 PKD
ROOT
HETATM    1  C   UNL     1      -8.226   9.615  69.852  1.00  0.00    -0.174 C  
HETATM    2  S   UNL     1      -9.788   8.831  70.329  1.00  0.00    -0.184 SA 
HETATM    3  C   UNL     1      -9.009   7.236  70.658  1.00  0.00    -0.156 C  
HETATM    4  C   UNL     1      -8.088   6.737  69.552  1.00  0.00    -0.126 C  
HETATM    5  O   UNL     1      -5.948   7.767  66.760  1.00  0.00    -0.044 OA 
HETATM    6  CA  UNL     1      -7.519   7.553  68.612  1.00  0.00    -0.101 C  
HETATM    7  N   UNL     1      -7.682   8.908  68.706  1.00  0.00    -0.095 N  
HETATM    8  O   UNL     1      -6.996  10.091  66.834  1.00  0.00    -0.086 OA 
HETATM    9  C   UNL     1      -6.782   6.954  67.428  1.00  0.00    -0.067 C  
HETATM   10  CA  UNL     1      -8.362  10.871  68.926  1.00  0.00    -0.139 C  
HETATM   11  C   UNL     1      -7.532   9.999  67.917  1.00  0.00    -0.089 C  
HETATM   12  OXT UNL     1      -6.862   5.779  67.100  1.00  0.00    -0.060 OA 
ENDROOT
BRANCH   4  13
HETATM   13  C   UNL     1      -8.018   5.212  69.573  1.00  0.00    -0.079 C  
BRANCH  13  14
HETATM   14  S   UNL     1      -9.586   4.345  69.318  1.00  0.00    -0.185 SA 
BRANCH  14  15
HETATM   15  C   UNL     1      -9.696   4.142  67.619  1.00  0.00    -0.122 A  
HETATM   16  N   UNL     1      -9.227   3.159  66.889  1.00  0.00    -0.172 NA 
HETATM   17  C   UNL     1     -10.971   6.272  67.119  1.00  0.00    -0.370 C  
HETATM   18  N   UNL     1      -9.529   3.483  65.585  1.00  0.00    -0.160 NA 
HETATM   19  N   UNL     1     -10.179   4.638  65.525  1.00  0.00    -0.215 NA 
HETATM   20  N   UNL     1     -10.292   5.049  66.796  1.00  0.00    -0.249 NA 
ENDBRANCH  14  15
ENDBRANCH  13  14
ENDBRANCH   4  13
BRANCH  10  21
HETATM   21  N   UNL     1      -9.743  11.193  68.500  1.00  0.00    -0.190 N  
HETATM   22  C   UNL     1     -10.179  12.445  68.126  1.00  0.00    -0.225 C  
HETATM   23  O   UNL     1      -9.467  13.444  68.159  1.00  0.00    -0.208 OA 
HETATM   24  H   UNL     1     -10.422  10.432  68.481  1.00  0.00     0.000 HD 
BRANCH  22  25
HETATM   25  C   UNL     1     -11.645  12.442  67.642  1.00  0.00    -0.357 C  
HETATM   26  H   UNL     1     -13.187  11.218  67.740  1.00  0.00     0.000 HD 
HETATM   27  O   UNL     1     -12.285  11.219  68.038  1.00  0.00    -0.621 OA 
BRANCH  25  28
HETATM   28  C   UNL     1     -11.747  12.598  66.141  1.00  0.00    -0.461 A  
HETATM   29  C   UNL     1     -11.150  11.649  65.299  1.00  0.00    -0.298 A  
HETATM   30  C   UNL     1     -11.231  11.779  63.911  1.00  0.00    -0.493 A  
HETATM   31  C   UNL     1     -11.915  12.853  63.347  1.00  0.00    -0.612 A  
HETATM   32  C   UNL     1     -12.530  13.794  64.169  1.00  0.00    -0.293 A  
HETATM   33  C   UNL     1     -12.450  13.667  65.557  1.00  0.00    -0.544 A  
ENDBRANCH  25  28
ENDBRANCH  22  25
ENDBRANCH  10  21
TORSDOF 6
ENDMDL
MODEL       87
REMARK 921   NORMALIZED FREE ENERGY PREDICTED BY IDOCK:   -5.55 KCAL/MOL
REMARK 922        TOTAL FREE ENERGY PREDICTED BY IDOCK:   -8.53 KCAL/MOL
REMARK 923 INTER-LIGAND FREE ENERGY PREDICTED BY IDOCK:   -7.45 KCAL/MOL
REMARK 924 INTRA-LIGAND FREE ENERGY PREDICTED BY IDOCK:   -1.08 KCAL/MOL
REMARK 927      BINDING AFFINITY PREDICTED BY RF-SCORE:    0.00 PKD
ROOT
HETATM    1  C   UNL     1      -9.980  11.585  65.774  1.00  0.00    -0.233 C  
HETATM    2  S   UNL     1     -11.398  11.617  66.902  1.00  0.00    -0.239 SA 
HETATM    3  C   UNL     1     -11.262  13.392  67.193  1.00  0.00    -0.302 C  
HETATM    4  C   UNL     1      -9.859  13.874  67.545  1.00  0.00    -0.236 C  
HETATM    5  O   UNL     1      -6.282  13.152  67.201  1.00  0.00    -0.282 OA 
HETATM    6  CA  UNL     1      -8.719  13.179  67.244  1.00  0.00    -0.210 C  
HETATM    7  N   UNL     1      -8.803  12.037  66.495  1.00  0.00    -0.198 N  
HETATM    8  O   UNL     1      -6.850  10.790  66.420  1.00  0.00    -0.119 OA 
HETATM    9  C   UNL     1      -7.383  13.624  67.807  1.00  0.00    -0.166 C  
HETATM   10  CA  UNL     1      -9.272  10.196  65.626  1.00  0.00    -0.187 C  
HETATM   11  C   UNL     1      -8.028  10.966  66.198  1.00  0.00    -0.155 C  
HETATM   12  OXT UNL     1      -7.263  14.424  68.724  1.00  0.00    -0.114 OA 
ENDROOT
BRANCH   4  13
HETATM   13  C   UNL     1      -9.935  15.146  68.387  1.00  0.00    -0.222 C  
BRANCH  13  14
HETATM   14  S   UNL     1     -10.789  16.548  67.625  1.00  0.00    -0.215 SA 
BRANCH  14  15
HETATM   15  C   UNL     1      -9.548  17.439  66.847  1.00  0.00    -0.277 A  
HETATM   16  N   UNL     1      -8.612  16.994  66.045  1.00  0.00    -0.518 NA 
HETATM   17  C   UNL     1     -10.153  19.717  67.775  1.00  0.00    -0.413 C  
HETATM   18  N   UNL     1      -7.837  18.088  65.728  1.00  0.00    -0.539 NA 
HETATM   19  N   UNL     1      -8.300  19.180  66.321  1.00  0.00    -0.348 NA 
HETATM   20  N   UNL     1      -9.375  18.780  67.016  1.00  0.00    -0.290 NA 
ENDBRANCH  14  15
ENDBRANCH  13  14
ENDBRANCH   4  13
BRANCH  10  21
HETATM   21  N   UNL     1      -9.807   9.121  66.493  1.00  0.00    -0.242 N  
HETATM   22  C   UNL     1      -9.193   7.906  66.708  1.00  0.00    -0.166 C  
HETATM   23  O   UNL     1      -8.152   7.570  66.154  1.00  0.00    -0.105 OA 
HETATM   24  H   UNL     1     -10.695   9.292  66.966  1.00  0.00     0.000 HD 
BRANCH  22  25
HETATM   25  C   UNL     1      -9.948   7.036  67.737  1.00  0.00    -0.152 C  
HETATM   26  H   UNL     1     -11.784   6.362  67.977  1.00  0.00     0.000 HD 
HETATM   27  O   UNL     1     -11.321   6.898  67.343  1.00  0.00    -0.227 OA 
BRANCH  25  28
HETATM   28  C   UNL     1      -9.882   7.621  69.131  1.00  0.00    -0.171 A  
HETATM   29  C   UNL     1      -8.781   7.342  69.953  1.00  0.00    -0.141 A  
HETATM   30  C   UNL     1      -8.705   7.871  71.244  1.00  0.00    -0.149 A  
HETATM   31  C   UNL     1      -9.723   8.691  71.725  1.00  0.00    -0.361 A  
HETATM   32  C   UNL     1     -10.815   8.993  70.915  1.00  0.00    -0.323 A  
HETATM   33  C   UNL     1     -10.893   8.465  69.624  1.00  0.00    -0.153 A  
ENDBRANCH  25  28
ENDBRANCH  22  25
ENDBRANCH  10  21
TORSDOF 6
ENDMDL
MODEL       88
REMARK 921   NORMALIZED FREE ENERGY PREDICTED BY IDOCK:   -5.54 KCAL/MOL
REMARK 922        TOTAL FREE ENERGY PREDICTED BY IDOCK:   -8.53 KCAL/MOL
REMARK 923 INTER-LIGAND FREE ENERGY PREDICTED BY IDOCK:   -7.70 KCAL/MOL
REMARK 924 INTRA-LIGAND FREE ENERGY PREDICTED BY IDOCK:   -0.82 KCAL/MOL
REMARK 927      BINDING AFFINITY PREDICTED BY RF-SCORE:    0.00 PKD
ROOT
HETATM    1  C   UNL     1     -11.625  11.994  66.550  1.00  0.00    -0.314 C  
HETATM    2  S   UNL     1     -10.084  11.393  65.809  1.00  0.00    -0.257 SA 
HETATM    3  C   UNL     1     -10.309   9.718  66.443  1.00  0.00    -0.177 C  
HETATM    4  C   UNL     1     -10.649   9.640  67.927  1.00  0.00    -0.308 C  
HETATM    5  O   UNL     1     -12.149  11.442  70.743  1.00  0.00    -0.363 OA 
HETATM    6  CA  UNL     1     -11.184  10.678  68.639  1.00  0.00    -0.278 C  
HETATM    7  N   UNL     1     -11.542  11.828  67.991  1.00  0.00    -0.314 N  
HETATM    8  O   UNL     1     -12.053  13.603  69.391  1.00  0.00    -0.326 OA 
HETATM    9  C   UNL     1     -11.302  10.586  70.149  1.00  0.00    -0.323 C  
HETATM   10  CA  UNL     1     -11.689  13.539  66.800  1.00  0.00    -0.391 C  
HETATM   11  C   UNL     1     -11.843  13.111  68.304  1.00  0.00    -0.349 C  
HETATM   12  OXT UNL     1     -10.726   9.749  70.827  1.00  0.00    -0.303 OA 
ENDROOT
BRANCH   4  13
HETATM   13  C   UNL     1     -10.179   8.306  68.504  1.00  0.00    -0.208 C  
BRANCH  13  14
HETATM   14  S   UNL     1      -8.479   7.828  68.108  1.00  0.00    -0.124 SA 
BRANCH  14  15
HETATM   15  C   UNL     1      -8.493   6.114  68.144  1.00  0.00    -0.116 A  
HETATM   16  N   UNL     1      -9.020   5.289  67.271  1.00  0.00    -0.112 NA 
HETATM   17  C   UNL     1      -7.243   5.824  70.328  1.00  0.00    -0.075 C  
HETATM   18  N   UNL     1      -8.810   4.025  67.775  1.00  0.00    -0.109 NA 
HETATM   19  N   UNL     1      -8.159   4.079  68.929  1.00  0.00    -0.070 NA 
HETATM   20  N   UNL     1      -7.951   5.384  69.159  1.00  0.00    -0.092 NA 
ENDBRANCH  14  15
ENDBRANCH  13  14
ENDBRANCH   4  13
BRANCH  10  21
HETATM   21  N   UNL     1     -10.451  14.282  66.475  1.00  0.00    -0.283 N  
HETATM   22  C   UNL     1     -10.188  15.579  66.859  1.00  0.00    -0.279 C  
HETATM   23  O   UNL     1     -10.989  16.275  67.475  1.00  0.00    -0.296 OA 
HETATM   24  H   UNL     1      -9.739  13.799  65.926  1.00  0.00     0.000 HD 
BRANCH  22  25
HETATM   25  C   UNL     1      -8.773  16.043  66.450  1.00  0.00    -0.327 C  
HETATM   26  H   UNL     1      -6.932  15.360  66.625  1.00  0.00     0.000 HD 
HETATM   27  O   UNL     1      -7.802  15.075  66.877  1.00  0.00    -0.179 OA 
BRANCH  25  28
HETATM   28  C   UNL     1      -8.427  17.392  67.039  1.00  0.00    -0.245 A  
HETATM   29  C   UNL     1      -7.831  17.469  68.306  1.00  0.00    -0.253 A  
HETATM   30  C   UNL     1      -7.508  18.707  68.867  1.00  0.00    -0.298 A  
HETATM   31  C   UNL     1      -7.767  19.882  68.165  1.00  0.00    -0.314 A  
HETATM   32  C   UNL     1      -8.340  19.823  66.897  1.00  0.00    -0.348 A  
HETATM   33  C   UNL     1      -8.665  18.586  66.335  1.00  0.00    -0.274 A  
ENDBRANCH  25  28
ENDBRANCH  22  25
ENDBRANCH  10  21
TORSDOF 6
ENDMDL
MODEL       89
REMARK 921   NORMALIZED FREE ENERGY PREDICTED BY IDOCK:   -5.50 KCAL/MOL
REMARK 922        TOTAL FREE ENERGY PREDICTED BY IDOCK:   -8.47 KCAL/MOL
REMARK 923 INTER-LIGAND FREE ENERGY PREDICTED BY IDOCK:   -7.54 KCAL/MOL
REMARK 924 INTRA-LIGAND FREE ENERGY PREDICTED BY IDOCK:   -0.93 KCAL/MOL
REMARK 927      BINDING AFFINITY PREDICTED BY RF-SCORE:    0.00 PKD
ROOT
HETATM    1  C   UNL     1      -9.947  10.165  66.647  1.00  0.00    -0.216 C  
HETATM    2  S   UNL     1     -11.049  11.011  67.811  1.00  0.00    -0.309 SA 
HETATM    3  C   UNL     1     -10.580  12.652  67.227  1.00  0.00    -0.228 C  
HETATM    4  C   UNL     1      -9.077  12.886  67.124  1.00  0.00    -0.220 C  
HETATM    5  O   UNL     1      -5.827  11.252  66.675  1.00  0.00    -0.108 OA 
HETATM    6  CA  UNL     1      -8.156  11.879  67.028  1.00  0.00    -0.167 C  
HETATM    7  N   UNL     1      -8.582  10.584  66.911  1.00  0.00    -0.124 N  
HETATM    8  O   UNL     1      -6.912   8.995  67.160  1.00  0.00    -0.076 OA 
HETATM    9  C   UNL     1      -6.675  12.186  67.136  1.00  0.00    -0.123 C  
HETATM   10  CA  UNL     1      -9.514   8.719  67.065  1.00  0.00    -0.169 C  
HETATM   11  C   UNL     1      -8.069   9.337  67.043  1.00  0.00    -0.112 C  
HETATM   12  OXT UNL     1      -6.228  13.245  67.554  1.00  0.00    -0.201 OA 
ENDROOT
BRANCH   4  13
HETATM   13  C   UNL     1      -8.764  14.372  67.284  1.00  0.00    -0.215 C  
BRANCH  13  14
HETATM   14  S   UNL     1     -10.131  15.412  67.855  1.00  0.00    -0.228 SA 
BRANCH  14  15
HETATM   15  C   UNL     1     -10.561  16.350  66.486  1.00  0.00    -0.235 A  
HETATM   16  N   UNL     1     -10.928  15.932  65.299  1.00  0.00    -0.350 NA 
HETATM   17  C   UNL     1     -10.225  18.630  67.537  1.00  0.00    -0.386 C  
HETATM   18  N   UNL     1     -11.116  17.067  64.542  1.00  0.00    -1.062 NA 
HETATM   19  N   UNL     1     -10.876  18.156  65.259  1.00  0.00    -0.529 NA 
HETATM   20  N   UNL     1     -10.536  17.713  66.478  1.00  0.00    -0.264 NA 
ENDBRANCH  14  15
ENDBRANCH  13  14
ENDBRANCH   4  13
BRANCH  10  21
HETATM   21  N   UNL     1      -9.994   8.276  68.393  1.00  0.00    -0.184 N  
HETATM   22  C   UNL     1     -10.732   7.136  68.623  1.00  0.00    -0.163 C  
HETATM   23  O   UNL     1     -11.114   6.390  67.727  1.00  0.00    -0.328 OA 
HETATM   24  H   UNL     1      -9.761   8.858  69.199  1.00  0.00     0.000 HD 
BRANCH  22  25
HETATM   25  C   UNL     1     -10.999   6.895  70.125  1.00  0.00    -0.281 C  
HETATM   26  H   UNL     1     -11.194   8.002  71.744  1.00  0.00     0.000 HD 
HETATM   27  O   UNL     1     -11.030   8.151  70.820  1.00  0.00    -0.235 OA 
BRANCH  25  28
HETATM   28  C   UNL     1      -9.951   6.002  70.750  1.00  0.00    -0.237 A  
HETATM   29  C   UNL     1      -8.955   6.559  71.565  1.00  0.00    -0.140 A  
HETATM   30  C   UNL     1      -7.978   5.750  72.149  1.00  0.00    -0.107 A  
HETATM   31  C   UNL     1      -7.988   4.374  71.932  1.00  0.00    -0.097 A  
HETATM   32  C   UNL     1      -8.981   3.802  71.141  1.00  0.00    -0.156 A  
HETATM   33  C   UNL     1      -9.959   4.609  70.557  1.00  0.00    -0.295 A  
ENDBRANCH  25  28
ENDBRANCH  22  25
ENDBRANCH  10  21
TORSDOF 6
ENDMDL
MODEL       90
REMARK 921   NORMALIZED FREE ENERGY PREDICTED BY IDOCK:   -5.50 KCAL/MOL
REMARK 922        TOTAL FREE ENERGY PREDICTED BY IDOCK:   -8.47 KCAL/MOL
REMARK 923 INTER-LIGAND FREE ENERGY PREDICTED BY IDOCK:   -7.59 KCAL/MOL
REMARK 924 INTRA-LIGAND FREE ENERGY PREDICTED BY IDOCK:   -0.88 KCAL/MOL
REMARK 927      BINDING AFFINITY PREDICTED BY RF-SCORE:    0.00 PKD
ROOT
HETATM    1  C   UNL     1     -11.652   8.482  70.451  1.00  0.00    -0.069 C  
HETATM    2  S   UNL     1     -10.553   9.922  70.519  1.00  0.00    -0.250 SA 
HETATM    3  C   UNL     1     -10.791  10.318  68.774  1.00  0.00    -0.230 C  
HETATM    4  C   UNL     1     -10.620   9.138  67.825  1.00  0.00    -0.289 C  
HETATM    5  O   UNL     1     -10.812   5.489  67.535  1.00  0.00    -0.192 OA 
HETATM    6  CA  UNL     1     -10.730   7.830  68.211  1.00  0.00    -0.036 C  
HETATM    7  N   UNL     1     -11.116   7.534  69.490  1.00  0.00    -0.117 N  
HETATM    8  O   UNL     1     -10.866   5.306  70.079  1.00  0.00    -0.245 OA 
HETATM    9  C   UNL     1     -10.346   6.717  67.254  1.00  0.00    -0.232 C  
HETATM   10  CA  UNL     1     -11.406   7.399  71.555  1.00  0.00    -0.256 C  
HETATM   11  C   UNL     1     -11.106   6.467  70.326  1.00  0.00    -0.335 C  
HETATM   12  OXT UNL     1      -9.702   6.892  66.231  1.00  0.00    -0.110 OA 
ENDROOT
BRANCH   4  13
HETATM   13  C   UNL     1     -10.181   9.630  66.448  1.00  0.00    -0.217 C  
BRANCH  13  14
HETATM   14  S   UNL     1      -9.908  11.413  66.295  1.00  0.00    -0.227 SA 
BRANCH  14  15
HETATM   15  C   UNL     1     -11.241  11.976  65.376  1.00  0.00    -0.322 A  
HETATM   16  N   UNL     1     -12.385  12.445  65.813  1.00  0.00    -0.603 NA 
HETATM   17  C   UNL     1     -10.247  11.575  63.082  1.00  0.00    -0.345 C  
HETATM   18  N   UNL     1     -13.133  12.715  64.688  1.00  0.00    -0.848 NA 
HETATM   19  N   UNL     1     -12.452  12.424  63.588  1.00  0.00    -0.684 NA 
HETATM   20  N   UNL     1     -11.265  11.969  64.014  1.00  0.00    -0.365 NA 
ENDBRANCH  14  15
ENDBRANCH  13  14
ENDBRANCH   4  13
BRANCH  10  21
HETATM   21  N   UNL     1     -10.255   7.660  72.449  1.00  0.00    -0.211 N  
HETATM   22  C   UNL     1      -9.990   6.970  73.612  1.00  0.00    -0.310 C  
HETATM   23  O   UNL     1     -10.721   6.090  74.055  1.00  0.00    -0.229 OA 
HETATM   24  H   UNL     1      -9.611   8.406  72.185  1.00  0.00     0.000 HD 
BRANCH  22  25
HETATM   25  C   UNL     1      -8.665   7.411  74.273  1.00  0.00    -0.222 C  
HETATM   26  H   UNL     1      -7.542   9.030  74.298  1.00  0.00     0.000 HD 
HETATM   27  O   UNL     1      -8.357   8.760  73.891  1.00  0.00    -0.306 OA 
BRANCH  25  28
HETATM   28  C   UNL     1      -7.514   6.506  73.893  1.00  0.00    -0.084 A  
HETATM   29  C   UNL     1      -6.207   6.845  74.272  1.00  0.00    -0.075 A  
HETATM   30  C   UNL     1      -5.131   6.025  73.928  1.00  0.00    -0.028 A  
HETATM   31  C   UNL     1      -5.348   4.851  73.208  1.00  0.00    -0.009 A  
HETATM   32  C   UNL     1      -6.641   4.491  72.840  1.00  0.00    -0.047 A  
HETATM   33  C   UNL     1      -7.719   5.310  73.184  1.00  0.00    -0.097 A  
ENDBRANCH  25  28
ENDBRANCH  22  25
ENDBRANCH  10  21
TORSDOF 6
ENDMDL
MODEL       91
REMARK 921   NORMALIZED FREE ENERGY PREDICTED BY IDOCK:   -5.50 KCAL/MOL
REMARK 922        TOTAL FREE ENERGY PREDICTED BY IDOCK:   -8.47 KCAL/MOL
REMARK 923 INTER-LIGAND FREE ENERGY PREDICTED BY IDOCK:   -7.44 KCAL/MOL
REMARK 924 INTRA-LIGAND FREE ENERGY PREDICTED BY IDOCK:   -1.03 KCAL/MOL
REMARK 927      BINDING AFFINITY PREDICTED BY RF-SCORE:    0.00 PKD
ROOT
HETATM    1  C   UNL     1     -11.183  14.362  67.466  1.00  0.00    -0.315 C  
HETATM    2  S   UNL     1     -11.404  14.589  65.682  1.00  0.00    -0.341 SA 
HETATM    3  C   UNL     1     -11.072  12.854  65.313  1.00  0.00    -0.284 C  
HETATM    4  C   UNL     1      -9.816  12.293  65.970  1.00  0.00    -0.263 C  
HETATM    5  O   UNL     1      -7.518  12.646  68.803  1.00  0.00    -0.106 OA 
HETATM    6  CA  UNL     1      -9.226  12.843  67.075  1.00  0.00    -0.226 C  
HETATM    7  N   UNL     1      -9.830  13.893  67.710  1.00  0.00    -0.231 N  
HETATM    8  O   UNL     1      -8.511  14.943  69.302  1.00  0.00    -0.179 OA 
HETATM    9  C   UNL     1      -7.870  12.348  67.542  1.00  0.00    -0.169 C  
HETATM   10  CA  UNL     1     -10.806  15.656  68.264  1.00  0.00    -0.298 C  
HETATM   11  C   UNL     1      -9.504  14.849  68.614  1.00  0.00    -0.208 C  
HETATM   12  OXT UNL     1      -7.129  11.652  66.864  1.00  0.00    -0.142 OA 
ENDROOT
BRANCH   4  13
HETATM   13  C   UNL     1      -9.258  11.139  65.139  1.00  0.00    -0.189 C  
BRANCH  13  14
HETATM   14  S   UNL     1      -9.655   9.475  65.732  1.00  0.00    -0.277 SA 
BRANCH  14  15
HETATM   15  C   UNL     1      -8.371   8.494  65.155  1.00  0.00    -0.169 A  
HETATM   16  N   UNL     1      -8.003   8.289  63.914  1.00  0.00    -0.147 NA 
HETATM   17  C   UNL     1      -7.558   7.667  67.407  1.00  0.00    -0.109 C  
HETATM   18  N   UNL     1      -6.960   7.391  63.975  1.00  0.00    -0.055 NA 
HETATM   19  N   UNL     1      -6.694   7.064  65.233  1.00  0.00    -0.050 NA 
HETATM   20  N   UNL     1      -7.569   7.758  65.975  1.00  0.00    -0.085 NA 
ENDBRANCH  14  15
ENDBRANCH  13  14
ENDBRANCH   4  13
BRANCH  10  21
HETATM   21  N   UNL     1     -10.598  16.868  67.439  1.00  0.00    -0.320 N  
HETATM   22  C   UNL     1     -10.177  18.086  67.923  1.00  0.00    -0.378 C  
HETATM   23  O   UNL     1      -9.977  18.306  69.113  1.00  0.00    -0.316 OA 
HETATM   24  H   UNL     1     -10.781  16.794  66.437  1.00  0.00     0.000 HD 
BRANCH  22  25
HETATM   25  C   UNL     1      -9.963  19.127  66.802  1.00  0.00    -0.361 C  
HETATM   26  H   UNL     1     -10.419  19.295  64.892  1.00  0.00     0.000 HD 
HETATM   27  O   UNL     1     -10.551  18.655  65.581  1.00  0.00    -0.610 OA 
BRANCH  25  28
HETATM   28  C   UNL     1      -8.497  19.419  66.572  1.00  0.00    -0.354 A  
HETATM   29  C   UNL     1      -7.669  18.436  66.011  1.00  0.00    -0.200 A  
HETATM   30  C   UNL     1      -6.312  18.686  65.795  1.00  0.00    -0.285 A  
HETATM   31  C   UNL     1      -5.767  19.924  66.128  1.00  0.00    -0.178 A  
HETATM   32  C   UNL     1      -6.579  20.918  66.669  1.00  0.00    -0.350 A  
HETATM   33  C   UNL     1      -7.935  20.669  66.886  1.00  0.00    -0.242 A  
ENDBRANCH  25  28
ENDBRANCH  22  25
ENDBRANCH  10  21
TORSDOF 6
ENDMDL
MODEL       92
REMARK 921   NORMALIZED FREE ENERGY PREDICTED BY IDOCK:   -5.49 KCAL/MOL
REMARK 922        TOTAL FREE ENERGY PREDICTED BY IDOCK:   -8.45 KCAL/MOL
REMARK 923 INTER-LIGAND FREE ENERGY PREDICTED BY IDOCK:   -7.12 KCAL/MOL
REMARK 924 INTRA-LIGAND FREE ENERGY PREDICTED BY IDOCK:   -1.33 KCAL/MOL
REMARK 927      BINDING AFFINITY PREDICTED BY RF-SCORE:    0.00 PKD
ROOT
HETATM    1  C   UNL     1      -7.926   9.622  68.010  1.00  0.00    -0.097 C  
HETATM    2  S   UNL     1      -7.991  10.291  69.694  1.00  0.00    -0.118 SA 
HETATM    3  C   UNL     1      -8.031   8.655  70.455  1.00  0.00    -0.106 C  
HETATM    4  C   UNL     1      -9.058   7.700  69.858  1.00  0.00    -0.147 C  
HETATM    5  O   UNL     1     -10.984   6.892  66.847  1.00  0.00    -0.377 OA 
HETATM    6  CA  UNL     1      -9.590   7.843  68.607  1.00  0.00    -0.155 C  
HETATM    7  N   UNL     1      -9.120   8.827  67.781  1.00  0.00    -0.135 N  
HETATM    8  O   UNL     1     -10.392   9.174  65.875  1.00  0.00    -0.104 OA 
HETATM    9  C   UNL     1     -10.752   6.971  68.168  1.00  0.00    -0.188 C  
HETATM   10  CA  UNL     1      -8.435  10.587  66.886  1.00  0.00    -0.125 C  
HETATM   11  C   UNL     1      -9.500   9.458  66.644  1.00  0.00    -0.177 C  
HETATM   12  OXT UNL     1     -11.430   6.304  68.935  1.00  0.00    -0.331 OA 
ENDROOT
BRANCH   4  13
HETATM   13  C   UNL     1      -9.489   6.672  70.902  1.00  0.00    -0.164 C  
BRANCH  13  14
HETATM   14  S   UNL     1     -10.228   7.341  72.413  1.00  0.00    -0.207 SA 
BRANCH  14  15
HETATM   15  C   UNL     1     -11.859   7.659  71.991  1.00  0.00    -0.301 A  
HETATM   16  N   UNL     1     -12.880   6.837  72.027  1.00  0.00    -0.233 NA 
HETATM   17  C   UNL     1     -11.556  10.083  71.321  1.00  0.00    -0.350 C  
HETATM   18  N   UNL     1     -13.955   7.552  71.547  1.00  0.00    -0.420 NA 
HETATM   19  N   UNL     1     -13.596   8.790  71.234  1.00  0.00    -0.223 NA 
HETATM   20  N   UNL     1     -12.286   8.863  71.518  1.00  0.00    -0.310 NA 
ENDBRANCH  14  15
ENDBRANCH  13  14
ENDBRANCH   4  13
BRANCH  10  21
HETATM   21  N   UNL     1      -8.978  11.880  67.363  1.00  0.00    -0.167 N  
HETATM   22  C   UNL     1      -9.743  12.739  66.605  1.00  0.00    -0.252 C  
HETATM   23  O   UNL     1     -10.012  12.539  65.425  1.00  0.00    -0.265 OA 
HETATM   24  H   UNL     1      -8.771  12.154  68.324  1.00  0.00     0.000 HD 
BRANCH  22  25
HETATM   25  C   UNL     1     -10.239  13.958  67.412  1.00  0.00    -0.252 C  
HETATM   26  H   UNL     1     -11.961  14.862  67.736  1.00  0.00     0.000 HD 
HETATM   27  O   UNL     1     -11.656  14.112  67.240  1.00  0.00    -0.333 OA 
BRANCH  25  28
HETATM   28  C   UNL     1      -9.543  15.235  66.996  1.00  0.00    -0.233 A  
HETATM   29  C   UNL     1     -10.295  16.395  66.761  1.00  0.00    -0.293 A  
HETATM   30  C   UNL     1      -9.669  17.582  66.372  1.00  0.00    -0.299 A  
HETATM   31  C   UNL     1      -8.285  17.627  66.222  1.00  0.00    -0.264 A  
HETATM   32  C   UNL     1      -7.522  16.489  66.471  1.00  0.00    -0.270 A  
HETATM   33  C   UNL     1      -8.145  15.301  66.859  1.00  0.00    -0.224 A  
ENDBRANCH  25  28
ENDBRANCH  22  25
ENDBRANCH  10  21
TORSDOF 6
ENDMDL
MODEL       93
REMARK 921   NORMALIZED FREE ENERGY PREDICTED BY IDOCK:   -5.47 KCAL/MOL
REMARK 922        TOTAL FREE ENERGY PREDICTED BY IDOCK:   -8.43 KCAL/MOL
REMARK 923 INTER-LIGAND FREE ENERGY PREDICTED BY IDOCK:   -7.37 KCAL/MOL
REMARK 924 INTRA-LIGAND FREE ENERGY PREDICTED BY IDOCK:   -1.06 KCAL/MOL
REMARK 927      BINDING AFFINITY PREDICTED BY RF-SCORE:    0.00 PKD
ROOT
HETATM    1  C   UNL     1      -9.089   9.088  70.857  1.00  0.00    -0.250 C  
HETATM    2  S   UNL     1      -8.574   7.884  69.604  1.00  0.00    -0.134 SA 
HETATM    3  C   UNL     1      -8.386   9.140  68.322  1.00  0.00    -0.120 C  
HETATM    4  C   UNL     1      -9.570  10.090  68.182  1.00  0.00    -0.152 C  
HETATM    5  O   UNL     1     -12.407  11.601  69.943  1.00  0.00    -0.239 OA 
HETATM    6  CA  UNL     1     -10.488  10.310  69.172  1.00  0.00    -0.224 C  
HETATM    7  N   UNL     1     -10.304   9.741  70.402  1.00  0.00    -0.283 N  
HETATM    8  O   UNL     1     -12.135   9.891  71.816  1.00  0.00    -0.389 OA 
HETATM    9  C   UNL     1     -11.744  11.109  68.883  1.00  0.00    -0.337 C  
HETATM   10  CA  UNL     1      -9.927   8.504  72.044  1.00  0.00    -0.313 C  
HETATM   11  C   UNL     1     -11.032   9.489  71.517  1.00  0.00    -0.299 C  
HETATM   12  OXT UNL     1     -12.138  11.375  67.757  1.00  0.00    -0.637 OA 
ENDROOT
BRANCH   4  13
HETATM   13  C   UNL     1      -9.645  10.631  66.756  1.00  0.00    -0.169 C  
BRANCH  13  14
HETATM   14  S   UNL     1      -8.793  12.200  66.460  1.00  0.00    -0.099 SA 
BRANCH  14  15
HETATM   15  C   UNL     1     -10.053  13.356  66.325  1.00  0.00    -0.299 A  
HETATM   16  N   UNL     1     -10.813  13.607  65.287  1.00  0.00    -0.309 NA 
HETATM   17  C   UNL     1      -9.877  14.304  68.667  1.00  0.00    -0.228 C  
HETATM   18  N   UNL     1     -11.632  14.649  65.665  1.00  0.00    -0.345 NA 
HETATM   19  N   UNL     1     -11.379  15.017  66.913  1.00  0.00    -0.331 NA 
HETATM   20  N   UNL     1     -10.397  14.205  67.333  1.00  0.00    -0.255 NA 
ENDBRANCH  14  15
ENDBRANCH  13  14
ENDBRANCH   4  13
BRANCH  10  21
HETATM   21  N   UNL     1     -10.257   7.064  71.934  1.00  0.00    -0.188 N  
HETATM   22  C   UNL     1     -10.540   6.239  73.000  1.00  0.00    -0.239 C  
HETATM   23  O   UNL     1     -10.497   6.609  74.169  1.00  0.00    -0.353 OA 
HETATM   24  H   UNL     1     -10.275   6.654  71.000  1.00  0.00     0.000 HD 
BRANCH  22  25
HETATM   25  C   UNL     1     -10.939   4.814  72.556  1.00  0.00    -0.098 C  
HETATM   26  H   UNL     1     -11.420   3.118  73.436  1.00  0.00     0.000 HD 
HETATM   27  O   UNL     1     -11.174   3.994  73.710  1.00  0.00    -0.235 OA 
BRANCH  25  28
HETATM   28  C   UNL     1      -9.877   4.172  71.692  1.00  0.00    -0.254 A  
HETATM   29  C   UNL     1      -8.822   3.468  72.291  1.00  0.00    -0.118 A  
HETATM   30  C   UNL     1      -7.830   2.871  71.510  1.00  0.00    -0.052 A  
HETATM   31  C   UNL     1      -7.884   2.962  70.121  1.00  0.00    -0.048 A  
HETATM   32  C   UNL     1      -8.935   3.641  69.509  1.00  0.00    -0.172 A  
HETATM   33  C   UNL     1      -9.927   4.239  70.288  1.00  0.00    -0.203 A  
ENDBRANCH  25  28
ENDBRANCH  22  25
ENDBRANCH  10  21
TORSDOF 6
ENDMDL
MODEL       94
REMARK 921   NORMALIZED FREE ENERGY PREDICTED BY IDOCK:   -5.45 KCAL/MOL
REMARK 922        TOTAL FREE ENERGY PREDICTED BY IDOCK:   -8.40 KCAL/MOL
REMARK 923 INTER-LIGAND FREE ENERGY PREDICTED BY IDOCK:   -7.53 KCAL/MOL
REMARK 924 INTRA-LIGAND FREE ENERGY PREDICTED BY IDOCK:   -0.87 KCAL/MOL
REMARK 927      BINDING AFFINITY PREDICTED BY RF-SCORE:    0.00 PKD
ROOT
HETATM    1  C   UNL     1      -7.807  11.965  67.157  1.00  0.00    -0.168 C  
HETATM    2  S   UNL     1      -7.394  10.839  68.515  1.00  0.00    -0.102 SA 
HETATM    3  C   UNL     1      -6.389   9.770  67.464  1.00  0.00    -0.064 C  
HETATM    4  C   UNL     1      -7.056   9.352  66.159  1.00  0.00    -0.091 C  
HETATM    5  O   UNL     1      -9.568  10.286  63.658  1.00  0.00    -0.292 OA 
HETATM    6  CA  UNL     1      -8.093  10.034  65.583  1.00  0.00    -0.138 C  
HETATM    7  N   UNL     1      -8.510  11.217  66.130  1.00  0.00    -0.170 N  
HETATM    8  O   UNL     1     -10.508  12.022  65.274  1.00  0.00    -0.263 OA 
HETATM    9  C   UNL     1      -8.832   9.441  64.398  1.00  0.00    -0.188 C  
HETATM   10  CA  UNL     1      -9.119  12.798  67.352  1.00  0.00    -0.192 C  
HETATM   11  C   UNL     1      -9.584  12.039  66.058  1.00  0.00    -0.234 C  
HETATM   12  OXT UNL     1      -8.739   8.271  64.054  1.00  0.00     0.077 OA 
ENDROOT
BRANCH   4  13
HETATM   13  C   UNL     1      -6.493   8.014  65.685  1.00  0.00    -0.042 C  
BRANCH  13  14
HETATM   14  S   UNL     1      -6.765   6.606  66.790  1.00  0.00    -0.058 SA 
BRANCH  14  15
HETATM   15  C   UNL     1      -8.465   6.551  67.008  1.00  0.00    -0.113 A  
HETATM   16  N   UNL     1      -9.190   7.198  67.888  1.00  0.00    -0.130 NA 
HETATM   17  C   UNL     1      -8.974   4.888  65.167  1.00  0.00    -0.152 C  
HETATM   18  N   UNL     1     -10.486   6.777  67.687  1.00  0.00    -0.200 NA 
HETATM   19  N   UNL     1     -10.549   5.897  66.697  1.00  0.00    -0.274 NA 
HETATM   20  N   UNL     1      -9.287   5.759  66.263  1.00  0.00    -0.157 NA 
ENDBRANCH  14  15
ENDBRANCH  13  14
ENDBRANCH   4  13
BRANCH  10  21
HETATM   21  N   UNL     1      -9.886  12.487  68.580  1.00  0.00    -0.397 N  
HETATM   22  C   UNL     1     -11.256  12.572  68.694  1.00  0.00    -0.278 C  
HETATM   23  O   UNL     1     -11.984  12.969  67.790  1.00  0.00    -0.348 OA 
HETATM   24  H   UNL     1      -9.361  12.188  69.403  1.00  0.00     0.000 HD 
BRANCH  22  25
HETATM   25  C   UNL     1     -11.767  12.090  70.070  1.00  0.00    -0.267 C  
HETATM   26  H   UNL     1     -12.943  10.660  70.745  1.00  0.00     0.000 HD 
HETATM   27  O   UNL     1     -12.630  10.956  69.899  1.00  0.00    -0.289 OA 
BRANCH  25  28
HETATM   28  C   UNL     1     -12.512  13.178  70.811  1.00  0.00    -0.389 A  
HETATM   29  C   UNL     1     -13.371  12.841  71.867  1.00  0.00    -0.510 A  
HETATM   30  C   UNL     1     -14.070  13.832  72.560  1.00  0.00    -0.495 A  
HETATM   31  C   UNL     1     -13.912  15.172  72.213  1.00  0.00    -0.631 A  
HETATM   32  C   UNL     1     -13.048  15.526  71.180  1.00  0.00    -0.573 A  
HETATM   33  C   UNL     1     -12.349  14.537  70.486  1.00  0.00    -0.403 A  
ENDBRANCH  25  28
ENDBRANCH  22  25
ENDBRANCH  10  21
TORSDOF 6
ENDMDL
MODEL       95
REMARK 921   NORMALIZED FREE ENERGY PREDICTED BY IDOCK:   -5.45 KCAL/MOL
REMARK 922        TOTAL FREE ENERGY PREDICTED BY IDOCK:   -8.40 KCAL/MOL
REMARK 923 INTER-LIGAND FREE ENERGY PREDICTED BY IDOCK:   -7.42 KCAL/MOL
REMARK 924 INTRA-LIGAND FREE ENERGY PREDICTED BY IDOCK:   -0.99 KCAL/MOL
REMARK 927      BINDING AFFINITY PREDICTED BY RF-SCORE:    0.00 PKD
ROOT
HETATM    1  C   UNL     1     -12.105  12.627  68.149  1.00  0.00    -0.075 C  
HETATM    2  S   UNL     1     -11.164  13.267  69.560  1.00  0.00    -0.025 SA 
HETATM    3  C   UNL     1     -11.429  14.989  69.090  1.00  0.00    -0.301 C  
HETATM    4  C   UNL     1     -11.129  15.304  67.629  1.00  0.00    -0.323 C  
HETATM    5  O   UNL     1     -10.935  13.893  64.252  1.00  0.00    -0.347 OA 
HETATM    6  CA  UNL     1     -11.104  14.360  66.639  1.00  0.00    -0.326 C  
HETATM    7  N   UNL     1     -11.465  13.072  66.924  1.00  0.00    -0.321 N  
HETATM    8  O   UNL     1     -10.987  11.545  65.247  1.00  0.00    -0.284 OA 
HETATM    9  C   UNL     1     -10.598  14.721  65.255  1.00  0.00    -0.395 C  
HETATM   10  CA  UNL     1     -11.754  11.162  67.720  1.00  0.00    -0.139 C  
HETATM   11  C   UNL     1     -11.349  11.844  66.364  1.00  0.00    -0.339 C  
HETATM   12  OXT UNL     1      -9.969  15.738  65.003  1.00  0.00    -0.386 OA 
ENDROOT
BRANCH   4  13
HETATM   13  C   UNL     1     -10.734  16.771  67.478  1.00  0.00    -0.275 C  
BRANCH  13  14
HETATM   14  S   UNL     1      -9.125  17.232  68.168  1.00  0.00    -0.264 SA 
BRANCH  14  15
HETATM   15  C   UNL     1      -8.341  18.084  66.904  1.00  0.00    -0.247 A  
HETATM   16  N   UNL     1      -7.353  17.676  66.143  1.00  0.00    -0.345 NA 
HETATM   17  C   UNL     1      -9.683  20.225  67.073  1.00  0.00    -0.458 C  
HETATM   18  N   UNL     1      -7.051  18.738  65.320  1.00  0.00    -0.474 NA 
HETATM   19  N   UNL     1      -7.846  19.770  65.569  1.00  0.00    -0.358 NA 
HETATM   20  N   UNL     1      -8.660  19.361  66.554  1.00  0.00    -0.328 NA 
ENDBRANCH  14  15
ENDBRANCH  13  14
ENDBRANCH   4  13
BRANCH  10  21
HETATM   21  N   UNL     1     -10.644  10.533  68.471  1.00  0.00    -0.192 N  
HETATM   22  C   UNL     1     -10.127   9.283  68.211  1.00  0.00    -0.185 C  
HETATM   23  O   UNL     1     -10.577   8.534  67.350  1.00  0.00    -0.277 OA 
HETATM   24  H   UNL     1     -10.230  11.065  69.237  1.00  0.00     0.000 HD 
BRANCH  22  25
HETATM   25  C   UNL     1      -8.911   8.947  69.102  1.00  0.00    -0.140 C  
HETATM   26  H   UNL     1      -7.582   9.952  70.156  1.00  0.00     0.000 HD 
HETATM   27  O   UNL     1      -8.330  10.159  69.608  1.00  0.00    -0.168 OA 
BRANCH  25  28
HETATM   28  C   UNL     1      -7.859   8.160  68.353  1.00  0.00    -0.118 A  
HETATM   29  C   UNL     1      -7.805   6.765  68.487  1.00  0.00    -0.118 A  
HETATM   30  C   UNL     1      -6.838   6.022  67.806  1.00  0.00    -0.060 A  
HETATM   31  C   UNL     1      -5.920   6.662  66.977  1.00  0.00    -0.021 A  
HETATM   32  C   UNL     1      -5.972   8.045  66.818  1.00  0.00    -0.052 A  
HETATM   33  C   UNL     1      -6.937   8.789  67.498  1.00  0.00    -0.075 A  
ENDBRANCH  25  28
ENDBRANCH  22  25
ENDBRANCH  10  21
TORSDOF 6
ENDMDL
MODEL       96
REMARK 921   NORMALIZED FREE ENERGY PREDICTED BY IDOCK:   -5.45 KCAL/MOL
REMARK 922        TOTAL FREE ENERGY PREDICTED BY IDOCK:   -8.40 KCAL/MOL
REMARK 923 INTER-LIGAND FREE ENERGY PREDICTED BY IDOCK:   -7.22 KCAL/MOL
REMARK 924 INTRA-LIGAND FREE ENERGY PREDICTED BY IDOCK:   -1.18 KCAL/MOL
REMARK 927      BINDING AFFINITY PREDICTED BY RF-SCORE:    0.00 PKD
ROOT
HETATM    1  C   UNL     1      -7.717   8.867  68.469  1.00  0.00    -0.098 C  
HETATM    2  S   UNL     1      -8.192   9.872  69.900  1.00  0.00    -0.161 SA 
HETATM    3  C   UNL     1      -7.491   8.704  71.085  1.00  0.00    -0.095 C  
HETATM    4  C   UNL     1      -7.901   7.253  70.867  1.00  0.00    -0.094 C  
HETATM    5  O   UNL     1      -9.028   4.813  68.374  1.00  0.00    -0.105 OA 
HETATM    6  CA  UNL     1      -8.362   6.765  69.675  1.00  0.00    -0.132 C  
HETATM    7  N   UNL     1      -8.370   7.574  68.572  1.00  0.00    -0.125 N  
HETATM    8  O   UNL     1      -9.540   6.721  66.761  1.00  0.00    -0.155 OA 
HETATM    9  C   UNL     1      -8.940   5.364  69.596  1.00  0.00    -0.109 C  
HETATM   10  CA  UNL     1      -8.556   9.112  67.170  1.00  0.00    -0.120 C  
HETATM   11  C   UNL     1      -8.938   7.598  67.341  1.00  0.00    -0.126 C  
HETATM   12  OXT UNL     1      -9.261   4.704  70.573  1.00  0.00    -0.116 OA 
ENDROOT
BRANCH   4  13
HETATM   13  C   UNL     1      -7.851   6.487  72.187  1.00  0.00    -0.098 C  
BRANCH  13  14
HETATM   14  S   UNL     1      -8.923   7.112  73.505  1.00  0.00    -0.178 SA 
BRANCH  14  15
HETATM   15  C   UNL     1     -10.466   7.260  72.772  1.00  0.00    -0.260 A  
HETATM   16  N   UNL     1     -10.972   8.298  72.151  1.00  0.00    -0.301 NA 
HETATM   17  C   UNL     1     -11.309   4.935  73.319  1.00  0.00    -0.327 C  
HETATM   18  N   UNL     1     -12.250   7.933  71.790  1.00  0.00    -0.298 NA 
HETATM   19  N   UNL     1     -12.513   6.692  72.177  1.00  0.00    -0.231 NA 
HETATM   20  N   UNL     1     -11.396   6.264  72.785  1.00  0.00    -0.236 NA 
ENDBRANCH  14  15
ENDBRANCH  13  14
ENDBRANCH   4  13
BRANCH  10  21
HETATM   21  N   UNL     1      -9.677  10.069  67.315  1.00  0.00    -0.162 N  
HETATM   22  C   UNL     1      -9.576  11.432  67.140  1.00  0.00    -0.179 C  
HETATM   23  O   UNL     1      -8.518  12.002  66.892  1.00  0.00    -0.174 OA 
HETATM   24  H   UNL     1     -10.592   9.691  67.563  1.00  0.00     0.000 HD 
BRANCH  22  25
HETATM   25  C   UNL     1     -10.938  12.148  67.266  1.00  0.00    -0.260 C  
HETATM   26  H   UNL     1     -12.758  11.679  67.859  1.00  0.00     0.000 HD 
HETATM   27  O   UNL     1     -11.920  11.238  67.782  1.00  0.00    -0.637 OA 
BRANCH  25  28
HETATM   28  C   UNL     1     -11.413  12.698  65.939  1.00  0.00    -0.407 A  
HETATM   29  C   UNL     1     -11.548  11.842  64.837  1.00  0.00    -0.290 A  
HETATM   30  C   UNL     1     -11.982  12.333  63.604  1.00  0.00    -0.633 A  
HETATM   31  C   UNL     1     -12.295  13.683  63.459  1.00  0.00    -0.265 A  
HETATM   32  C   UNL     1     -12.185  14.543  64.548  1.00  0.00    -0.483 A  
HETATM   33  C   UNL     1     -11.751  14.054  65.782  1.00  0.00    -0.368 A  
ENDBRANCH  25  28
ENDBRANCH  22  25
ENDBRANCH  10  21
TORSDOF 6
ENDMDL
MODEL       97
REMARK 921   NORMALIZED FREE ENERGY PREDICTED BY IDOCK:   -5.43 KCAL/MOL
REMARK 922        TOTAL FREE ENERGY PREDICTED BY IDOCK:   -8.37 KCAL/MOL
REMARK 923 INTER-LIGAND FREE ENERGY PREDICTED BY IDOCK:   -7.34 KCAL/MOL
REMARK 924 INTRA-LIGAND FREE ENERGY PREDICTED BY IDOCK:   -1.03 KCAL/MOL
REMARK 927      BINDING AFFINITY PREDICTED BY RF-SCORE:    0.00 PKD
ROOT
HETATM    1  C   UNL     1      -8.098   9.922  67.529  1.00  0.00    -0.110 C  
HETATM    2  S   UNL     1      -9.105  10.033  69.032  1.00  0.00    -0.181 SA 
HETATM    3  C   UNL     1      -8.604   8.400  69.615  1.00  0.00    -0.132 C  
HETATM    4  C   UNL     1      -8.713   7.292  68.574  1.00  0.00    -0.123 C  
HETATM    5  O   UNL     1      -8.707   6.559  64.983  1.00  0.00    -0.009 OA 
HETATM    6  CA  UNL     1      -8.738   7.516  67.225  1.00  0.00    -0.121 C  
HETATM    7  N   UNL     1      -8.553   8.785  66.748  1.00  0.00    -0.114 N  
HETATM    8  O   UNL     1      -9.019   9.043  64.492  1.00  0.00    -0.152 OA 
HETATM    9  C   UNL     1      -9.053   6.382  66.268  1.00  0.00    -0.151 C  
HETATM   10  CA  UNL     1      -8.562  10.836  66.344  1.00  0.00    -0.158 C  
HETATM   11  C   UNL     1      -8.745   9.467  65.593  1.00  0.00    -0.149 C  
HETATM   12  OXT UNL     1      -9.536   5.314  66.615  1.00  0.00    -0.134 OA 
ENDROOT
BRANCH   4  13
HETATM   13  C   UNL     1      -8.925   5.944  69.261  1.00  0.00    -0.117 C  
BRANCH  13  14
HETATM   14  S   UNL     1     -10.596   5.628  69.881  1.00  0.00    -0.321 SA 
BRANCH  14  15
HETATM   15  C   UNL     1     -10.551   6.133  71.519  1.00  0.00    -0.239 A  
HETATM   16  N   UNL     1      -9.973   5.539  72.535  1.00  0.00    -0.167 NA 
HETATM   17  C   UNL     1     -11.913   8.251  71.243  1.00  0.00    -0.287 C  
HETATM   18  N   UNL     1     -10.264   6.312  73.637  1.00  0.00    -0.232 NA 
HETATM   19  N   UNL     1     -10.998   7.362  73.296  1.00  0.00    -0.368 NA 
HETATM   20  N   UNL     1     -11.173   7.259  71.970  1.00  0.00    -0.243 NA 
ENDBRANCH  14  15
ENDBRANCH  13  14
ENDBRANCH   4  13
BRANCH  10  21
HETATM   21  N   UNL     1      -9.808  11.598  66.585  1.00  0.00    -0.197 N  
HETATM   22  C   UNL     1     -10.524  12.262  65.614  1.00  0.00    -0.261 C  
HETATM   23  O   UNL     1     -10.168  12.331  64.442  1.00  0.00    -0.304 OA 
HETATM   24  H   UNL     1     -10.161  11.635  67.542  1.00  0.00     0.000 HD 
BRANCH  22  25
HETATM   25  C   UNL     1     -11.828  12.883  66.161  1.00  0.00    -0.429 C  
HETATM   26  H   UNL     1     -13.442  13.729  65.408  1.00  0.00     0.000 HD 
HETATM   27  O   UNL     1     -12.640  13.347  65.072  1.00  0.00    -0.539 OA 
BRANCH  25  28
HETATM   28  C   UNL     1     -11.556  14.031  67.108  1.00  0.00    -0.397 A  
HETATM   29  C   UNL     1     -11.931  13.927  68.455  1.00  0.00    -0.394 A  
HETATM   30  C   UNL     1     -11.691  14.978  69.343  1.00  0.00    -0.351 A  
HETATM   31  C   UNL     1     -11.067  16.141  68.898  1.00  0.00    -0.347 A  
HETATM   32  C   UNL     1     -10.671  16.253  67.568  1.00  0.00    -0.300 A  
HETATM   33  C   UNL     1     -10.910  15.204  66.679  1.00  0.00    -0.318 A  
ENDBRANCH  25  28
ENDBRANCH  22  25
ENDBRANCH  10  21
TORSDOF 6
ENDMDL
MODEL       98
REMARK 921   NORMALIZED FREE ENERGY PREDICTED BY IDOCK:   -5.42 KCAL/MOL
REMARK 922        TOTAL FREE ENERGY PREDICTED BY IDOCK:   -8.36 KCAL/MOL
REMARK 923 INTER-LIGAND FREE ENERGY PREDICTED BY IDOCK:   -7.33 KCAL/MOL
REMARK 924 INTRA-LIGAND FREE ENERGY PREDICTED BY IDOCK:   -1.03 KCAL/MOL
REMARK 927      BINDING AFFINITY PREDICTED BY RF-SCORE:    0.00 PKD
ROOT
HETATM    1  C   UNL     1     -10.566  10.619  66.514  1.00  0.00    -0.193 C  
HETATM    2  S   UNL     1      -8.873  11.129  66.115  1.00  0.00    -0.188 SA 
HETATM    3  C   UNL     1      -8.138   9.684  66.908  1.00  0.00    -0.113 C  
HETATM    4  C   UNL     1      -8.653   9.399  68.314  1.00  0.00    -0.120 C  
HETATM    5  O   UNL     1     -11.485   9.833  70.600  1.00  0.00    -0.278 OA 
HETATM    6  CA  UNL     1      -9.847   9.862  68.794  1.00  0.00    -0.171 C  
HETATM    7  N   UNL     1     -10.697  10.533  67.957  1.00  0.00    -0.224 N  
HETATM    8  O   UNL     1     -12.470  11.579  69.022  1.00  0.00    -0.309 OA 
HETATM    9  C   UNL     1     -10.191   9.707  70.264  1.00  0.00    -0.277 C  
HETATM   10  CA  UNL     1     -11.621  11.775  66.554  1.00  0.00    -0.181 C  
HETATM   11  C   UNL     1     -11.783  11.337  68.054  1.00  0.00    -0.233 C  
HETATM   12  OXT UNL     1      -9.375   9.417  71.126  1.00  0.00    -0.224 OA 
ENDROOT
BRANCH   4  13
HETATM   13  C   UNL     1      -7.590   8.658  69.123  1.00  0.00    -0.089 C  
BRANCH  13  14
HETATM   14  S   UNL     1      -7.925   6.910  69.452  1.00  0.00    -0.116 SA 
BRANCH  14  15
HETATM   15  C   UNL     1      -8.822   6.378  68.091  1.00  0.00    -0.114 A  
HETATM   16  N   UNL     1      -8.384   6.119  66.883  1.00  0.00    -0.106 NA 
HETATM   17  C   UNL     1     -11.096   6.314  69.205  1.00  0.00    -0.390 C  
HETATM   18  N   UNL     1      -9.495   5.776  66.145  1.00  0.00    -0.151 NA 
HETATM   19  N   UNL     1     -10.589   5.818  66.895  1.00  0.00    -0.284 NA 
HETATM   20  N   UNL     1     -10.170   6.186  68.115  1.00  0.00    -0.157 NA 
ENDBRANCH  14  15
ENDBRANCH  13  14
ENDBRANCH   4  13
BRANCH  10  21
HETATM   21  N   UNL     1     -11.075  13.135  66.346  1.00  0.00    -0.285 N  
HETATM   22  C   UNL     1     -11.777  14.190  65.805  1.00  0.00    -0.359 C  
HETATM   23  O   UNL     1     -12.927  14.092  65.389  1.00  0.00    -0.726 OA 
HETATM   24  H   UNL     1     -10.108  13.303  66.623  1.00  0.00     0.000 HD 
BRANCH  22  25
HETATM   25  C   UNL     1     -10.965  15.504  65.806  1.00  0.00    -0.283 C  
HETATM   26  H   UNL     1      -9.720  16.423  64.586  1.00  0.00     0.000 HD 
HETATM   27  O   UNL     1     -10.219  15.615  64.585  1.00  0.00    -0.284 OA 
BRANCH  25  28
HETATM   28  C   UNL     1     -10.018  15.584  66.982  1.00  0.00    -0.240 A  
HETATM   29  C   UNL     1      -8.633  15.526  66.767  1.00  0.00    -0.307 A  
HETATM   30  C   UNL     1      -7.743  15.594  67.841  1.00  0.00    -0.143 A  
HETATM   31  C   UNL     1      -8.224  15.730  69.142  1.00  0.00    -0.247 A  
HETATM   32  C   UNL     1      -9.595  15.808  69.371  1.00  0.00    -0.284 A  
HETATM   33  C   UNL     1     -10.487  15.740  68.299  1.00  0.00    -0.259 A  
ENDBRANCH  25  28
ENDBRANCH  22  25
ENDBRANCH  10  21
TORSDOF 6
ENDMDL
MODEL       99
REMARK 921   NORMALIZED FREE ENERGY PREDICTED BY IDOCK:   -5.41 KCAL/MOL
REMARK 922        TOTAL FREE ENERGY PREDICTED BY IDOCK:   -8.35 KCAL/MOL
REMARK 923 INTER-LIGAND FREE ENERGY PREDICTED BY IDOCK:   -7.62 KCAL/MOL
REMARK 924 INTRA-LIGAND FREE ENERGY PREDICTED BY IDOCK:   -0.73 KCAL/MOL
REMARK 927      BINDING AFFINITY PREDICTED BY RF-SCORE:    0.00 PKD
ROOT
HETATM    1  C   UNL     1     -11.870  14.140  67.864  1.00  0.00    -0.370 C  
HETATM    2  S   UNL     1     -10.393  13.394  67.124  1.00  0.00    -0.247 SA 
HETATM    3  C   UNL     1     -11.048  11.717  67.250  1.00  0.00    -0.290 C  
HETATM    4  C   UNL     1     -11.613  11.355  68.618  1.00  0.00    -0.384 C  
HETATM    5  O   UNL     1     -13.112  12.703  71.679  1.00  0.00    -0.402 OA 
HETATM    6  CA  UNL     1     -12.023  12.280  69.539  1.00  0.00    -0.270 C  
HETATM    7  N   UNL     1     -12.038  13.606  69.204  1.00  0.00    -0.343 N  
HETATM    8  O   UNL     1     -12.376  15.046  70.989  1.00  0.00    -0.286 OA 
HETATM    9  C   UNL     1     -12.380  11.846  70.948  1.00  0.00    -0.300 C  
HETATM   10  CA  UNL     1     -11.652  15.544  68.523  1.00  0.00    -0.368 C  
HETATM   11  C   UNL     1     -12.112  14.805  69.831  1.00  0.00    -0.332 C  
HETATM   12  OXT UNL     1     -12.094  10.755  71.418  1.00  0.00    -0.307 OA 
ENDROOT
BRANCH   4  13
HETATM   13  C   UNL     1     -11.517   9.848  68.845  1.00  0.00     0.080 C  
BRANCH  13  14
HETATM   14  S   UNL     1      -9.958   9.251  69.545  1.00  0.00    -0.198 SA 
BRANCH  14  15
HETATM   15  C   UNL     1     -10.211   7.573  69.794  1.00  0.00    -0.211 A  
HETATM   16  N   UNL     1     -10.176   6.608  68.907  1.00  0.00    -0.168 NA 
HETATM   17  C   UNL     1     -10.654   7.678  72.286  1.00  0.00    -0.246 C  
HETATM   18  N   UNL     1     -10.492   5.456  69.593  1.00  0.00    -0.295 NA 
HETATM   19  N   UNL     1     -10.706   5.716  70.876  1.00  0.00    -0.257 NA 
HETATM   20  N   UNL     1     -10.524   7.038  71.007  1.00  0.00    -0.212 NA 
ENDBRANCH  14  15
ENDBRANCH  13  14
ENDBRANCH   4  13
BRANCH  10  21
HETATM   21  N   UNL     1     -10.254  16.029  68.526  1.00  0.00    -0.229 N  
HETATM   22  C   UNL     1      -9.789  17.096  67.788  1.00  0.00    -0.274 C  
HETATM   23  O   UNL     1     -10.490  17.727  67.003  1.00  0.00    -0.347 OA 
HETATM   24  H   UNL     1      -9.584  15.537  69.119  1.00  0.00     0.000 HD 
BRANCH  22  25
HETATM   25  C   UNL     1      -8.307  17.417  68.079  1.00  0.00    -0.231 C  
HETATM   26  H   UNL     1      -6.822  18.313  67.143  1.00  0.00     0.000 HD 
HETATM   27  O   UNL     1      -7.733  18.116  66.964  1.00  0.00    -0.211 OA 
BRANCH  25  28
HETATM   28  C   UNL     1      -7.500  16.167  68.355  1.00  0.00    -0.153 A  
HETATM   29  C   UNL     1      -7.029  15.914  69.652  1.00  0.00    -0.147 A  
HETATM   30  C   UNL     1      -6.279  14.768  69.925  1.00  0.00    -0.150 A  
HETATM   31  C   UNL     1      -5.999  13.856  68.910  1.00  0.00    -0.084 A  
HETATM   32  C   UNL     1      -6.476  14.083  67.621  1.00  0.00    -0.156 A  
HETATM   33  C   UNL     1      -7.225  15.229  67.345  1.00  0.00    -0.235 A  
ENDBRANCH  25  28
ENDBRANCH  22  25
ENDBRANCH  10  21
TORSDOF 6
ENDMDL
MODEL      100
REMARK 921   NORMALIZED FREE ENERGY PREDICTED BY IDOCK:   -5.41 KCAL/MOL
REMARK 922        TOTAL FREE ENERGY PREDICTED BY IDOCK:   -8.34 KCAL/MOL
REMARK 923 INTER-LIGAND FREE ENERGY PREDICTED BY IDOCK:   -8.14 KCAL/MOL
REMARK 924 INTRA-LIGAND FREE ENERGY PREDICTED BY IDOCK:   -0.20 KCAL/MOL
REMARK 927      BINDING AFFINITY PREDICTED BY RF-SCORE:    0.00 PKD
ROOT
HETATM    1  C   UNL     1     -10.337   6.994  71.734  1.00  0.00    -0.197 C  
HETATM    2  S   UNL     1     -11.584   6.617  70.475  1.00  0.00    -0.383 SA 
HETATM    3  C   UNL     1     -10.606   5.281  69.755  1.00  0.00    -0.213 C  
HETATM    4  C   UNL     1      -9.155   5.642  69.462  1.00  0.00    -0.143 C  
HETATM    5  O   UNL     1      -6.376   7.838  70.406  1.00  0.00    -0.037 OA 
HETATM    6  CA  UNL     1      -8.492   6.676  70.066  1.00  0.00    -0.139 C  
HETATM    7  N   UNL     1      -9.105   7.377  71.067  1.00  0.00    -0.152 N  
HETATM    8  O   UNL     1      -8.006   9.320  71.694  1.00  0.00    -0.321 OA 
HETATM    9  C   UNL     1      -7.120   7.095  69.571  1.00  0.00    -0.071 C  
HETATM   10  CA  UNL     1     -10.393   8.446  72.318  1.00  0.00    -0.333 C  
HETATM   11  C   UNL     1      -8.944   8.553  71.720  1.00  0.00    -0.220 C  
HETATM   12  OXT UNL     1      -6.646   6.743  68.501  1.00  0.00    -0.053 OA 
ENDROOT
BRANCH   4  13
HETATM   13  C   UNL     1      -8.620   4.783  68.318  1.00  0.00    -0.101 C  
BRANCH  13  14
HETATM   14  S   UNL     1      -9.433   5.003  66.716  1.00  0.00    -0.158 SA 
BRANCH  14  15
HETATM   15  C   UNL     1      -9.520   6.703  66.507  1.00  0.00    -0.152 A  
HETATM   16  N   UNL     1     -10.419   7.532  66.978  1.00  0.00    -0.322 NA 
HETATM   17  C   UNL     1      -7.455   6.958  65.062  1.00  0.00    -0.096 C  
HETATM   18  N   UNL     1     -10.076   8.774  66.492  1.00  0.00    -0.289 NA 
HETATM   19  N   UNL     1      -8.982   8.702  65.745  1.00  0.00    -0.195 NA 
HETATM   20  N   UNL     1      -8.626   7.409  65.759  1.00  0.00    -0.150 NA 
ENDBRANCH  14  15
ENDBRANCH  13  14
ENDBRANCH   4  13
BRANCH  10  21
HETATM   21  N   UNL     1     -11.402   9.336  71.699  1.00  0.00    -0.381 N  
HETATM   22  C   UNL     1     -11.172  10.149  70.611  1.00  0.00    -0.340 C  
HETATM   23  O   UNL     1     -10.076  10.255  70.069  1.00  0.00    -0.227 OA 
HETATM   24  H   UNL     1     -12.336   9.348  72.109  1.00  0.00     0.000 HD 
BRANCH  22  25
HETATM   25  C   UNL     1     -12.446  10.883  70.140  1.00  0.00    -0.283 C  
HETATM   26  H   UNL     1     -13.191  11.514  68.428  1.00  0.00     0.000 HD 
HETATM   27  O   UNL     1     -12.407  11.062  68.717  1.00  0.00    -0.533 OA 
BRANCH  25  28
HETATM   28  C   UNL     1     -12.604  12.230  70.811  1.00  0.00    -0.302 A  
HETATM   29  C   UNL     1     -11.967  13.357  70.271  1.00  0.00    -0.378 A  
HETATM   30  C   UNL     1     -12.098  14.608  70.878  1.00  0.00    -0.393 A  
HETATM   31  C   UNL     1     -12.874  14.750  72.026  1.00  0.00    -0.399 A  
HETATM   32  C   UNL     1     -13.528  13.645  72.565  1.00  0.00    -0.675 A  
HETATM   33  C   UNL     1     -13.398  12.394  71.959  1.00  0.00    -0.511 A  
ENDBRANCH  25  28
ENDBRANCH  22  25
ENDBRANCH  10  21
TORSDOF 6
ENDMDL
MODEL      101
REMARK 921   NORMALIZED FREE ENERGY PREDICTED BY IDOCK:   -5.38 KCAL/MOL
REMARK 922        TOTAL FREE ENERGY PREDICTED BY IDOCK:   -8.31 KCAL/MOL
REMARK 923 INTER-LIGAND FREE ENERGY PREDICTED BY IDOCK:   -7.46 KCAL/MOL
REMARK 924 INTRA-LIGAND FREE ENERGY PREDICTED BY IDOCK:   -0.85 KCAL/MOL
REMARK 927      BINDING AFFINITY PREDICTED BY RF-SCORE:    0.00 PKD
ROOT
HETATM    1  C   UNL     1     -10.606  12.042  66.603  1.00  0.00    -0.232 C  
HETATM    2  S   UNL     1     -11.726  12.636  67.900  1.00  0.00    -0.342 SA 
HETATM    3  C   UNL     1     -11.148  14.341  67.765  1.00  0.00    -0.280 C  
HETATM    4  C   UNL     1      -9.632  14.502  67.782  1.00  0.00    -0.215 C  
HETATM    5  O   UNL     1      -6.446  12.840  67.064  1.00  0.00    -0.180 OA 
HETATM    6  CA  UNL     1      -8.757  13.497  67.472  1.00  0.00    -0.208 C  
HETATM    7  N   UNL     1      -9.239  12.300  67.018  1.00  0.00    -0.198 N  
HETATM    8  O   UNL     1      -7.663  10.602  66.923  1.00  0.00    -0.112 OA 
HETATM    9  C   UNL     1      -7.270  13.679  67.711  1.00  0.00    -0.164 C  
HETATM   10  CA  UNL     1     -10.265  10.515  66.661  1.00  0.00    -0.233 C  
HETATM   11  C   UNL     1      -8.794  11.031  66.851  1.00  0.00    -0.149 C  
HETATM   12  OXT UNL     1      -6.796  14.571  68.398  1.00  0.00    -0.090 OA 
ENDROOT
BRANCH   4  13
HETATM   13  C   UNL     1      -9.256  15.880  68.322  1.00  0.00    -0.189 C  
BRANCH  13  14
HETATM   14  S   UNL     1     -10.639  16.955  68.778  1.00  0.00    -0.346 SA 
BRANCH  14  15
HETATM   15  C   UNL     1     -10.371  18.401  67.896  1.00  0.00    -0.401 A  
HETATM   16  N   UNL     1     -10.095  19.595  68.362  1.00  0.00    -0.433 NA 
HETATM   17  C   UNL     1     -10.704  17.435  65.578  1.00  0.00    -0.078 C  
HETATM   18  N   UNL     1     -10.021  20.420  67.262  1.00  0.00    -0.443 NA 
HETATM   19  N   UNL     1     -10.240  19.737  66.146  1.00  0.00    -0.485 NA 
HETATM   20  N   UNL     1     -10.451  18.472  66.538  1.00  0.00    -0.403 NA 
ENDBRANCH  14  15
ENDBRANCH  13  14
ENDBRANCH   4  13
BRANCH  10  21
HETATM   21  N   UNL     1     -10.836   9.785  67.817  1.00  0.00    -0.397 N  
HETATM   22  C   UNL     1     -10.440   8.531  68.228  1.00  0.00    -0.171 C  
HETATM   23  O   UNL     1      -9.597   7.863  67.637  1.00  0.00    -0.144 OA 
HETATM   24  H   UNL     1     -11.576  10.244  68.347  1.00  0.00     0.000 HD 
BRANCH  22  25
HETATM   25  C   UNL     1     -11.154   8.079  69.520  1.00  0.00     0.037 C  
HETATM   26  H   UNL     1     -11.745   8.917  71.203  1.00  0.00     0.000 HD 
HETATM   27  O   UNL     1     -11.306   9.196  70.409  1.00  0.00    -0.255 OA 
BRANCH  25  28
HETATM   28  C   UNL     1     -10.401   6.974  70.227  1.00  0.00    -0.219 A  
HETATM   29  C   UNL     1     -10.714   5.634  69.958  1.00  0.00    -0.390 A  
HETATM   30  C   UNL     1     -10.031   4.600  70.604  1.00  0.00    -0.293 A  
HETATM   31  C   UNL     1      -9.023   4.893  71.519  1.00  0.00    -0.160 A  
HETATM   32  C   UNL     1      -8.687   6.218  71.784  1.00  0.00    -0.133 A  
HETATM   33  C   UNL     1      -9.368   7.252  71.139  1.00  0.00    -0.156 A  
ENDBRANCH  25  28
ENDBRANCH  22  25
ENDBRANCH  10  21
TORSDOF 6
ENDMDL
MODEL      102
REMARK 921   NORMALIZED FREE ENERGY PREDICTED BY IDOCK:   -5.37 KCAL/MOL
REMARK 922        TOTAL FREE ENERGY PREDICTED BY IDOCK:   -8.30 KCAL/MOL
REMARK 923 INTER-LIGAND FREE ENERGY PREDICTED BY IDOCK:   -7.12 KCAL/MOL
REMARK 924 INTRA-LIGAND FREE ENERGY PREDICTED BY IDOCK:   -1.18 KCAL/MOL
REMARK 927      BINDING AFFINITY PREDICTED BY RF-SCORE:    0.00 PKD
ROOT
HETATM    1  C   UNL     1      -9.092   9.945  69.748  1.00  0.00    -0.225 C  
HETATM    2  S   UNL     1     -10.885   9.917  70.012  1.00  0.00    -0.314 SA 
HETATM    3  C   UNL     1     -10.916   8.141  70.333  1.00  0.00    -0.247 C  
HETATM    4  C   UNL     1     -10.174   7.295  69.304  1.00  0.00    -0.193 C  
HETATM    5  O   UNL     1      -7.481   7.302  66.819  1.00  0.00    -0.088 OA 
HETATM    6  CA  UNL     1      -9.201   7.785  68.478  1.00  0.00    -0.137 C  
HETATM    7  N   UNL     1      -8.773   9.076  68.629  1.00  0.00    -0.132 N  
HETATM    8  O   UNL     1      -7.424   9.851  66.911  1.00  0.00    -0.091 OA 
HETATM    9  C   UNL     1      -8.658   6.931  67.348  1.00  0.00    -0.121 C  
HETATM   10  CA  UNL     1      -8.560  11.139  68.885  1.00  0.00    -0.087 C  
HETATM   11  C   UNL     1      -8.073   9.996  67.923  1.00  0.00    -0.109 C  
HETATM   12  OXT UNL     1      -9.197   5.909  66.948  1.00  0.00    -0.120 OA 
ENDROOT
BRANCH   4  13
HETATM   13  C   UNL     1     -10.773   5.891  69.248  1.00  0.00    -0.331 C  
BRANCH  13  14
HETATM   14  S   UNL     1      -9.831   4.596  70.092  1.00  0.00    -0.236 SA 
BRANCH  14  15
HETATM   15  C   UNL     1      -9.067   5.401  71.399  1.00  0.00    -0.145 A  
HETATM   16  N   UNL     1      -7.850   5.887  71.451  1.00  0.00    -0.110 NA 
HETATM   17  C   UNL     1     -11.000   5.280  73.031  1.00  0.00    -0.298 C  
HETATM   18  N   UNL     1      -7.700   6.387  72.726  1.00  0.00    -0.102 NA 
HETATM   19  N   UNL     1      -8.808   6.216  73.433  1.00  0.00    -0.126 NA 
HETATM   20  N   UNL     1      -9.669   5.606  72.604  1.00  0.00    -0.154 NA 
ENDBRANCH  14  15
ENDBRANCH  13  14
ENDBRANCH   4  13
BRANCH  10  21
HETATM   21  N   UNL     1      -9.604  12.032  68.333  1.00  0.00    -0.245 N  
HETATM   22  C   UNL     1      -9.357  13.200  67.647  1.00  0.00    -0.205 C  
HETATM   23  O   UNL     1      -8.230  13.651  67.467  1.00  0.00    -0.160 OA 
HETATM   24  H   UNL     1     -10.579  11.761  68.470  1.00  0.00     0.000 HD 
BRANCH  22  25
HETATM   25  C   UNL     1     -10.649  13.858  67.114  1.00  0.00    -0.277 C  
HETATM   26  H   UNL     1     -12.495  14.123  67.752  1.00  0.00     0.000 HD 
HETATM   27  O   UNL     1     -11.701  13.719  68.080  1.00  0.00    -0.317 OA 
BRANCH  25  28
HETATM   28  C   UNL     1     -11.092  13.254  65.800  1.00  0.00    -0.296 A  
HETATM   29  C   UNL     1     -12.458  13.058  65.548  1.00  0.00    -0.496 A  
HETATM   30  C   UNL     1     -12.886  12.498  64.342  1.00  0.00    -0.366 A  
HETATM   31  C   UNL     1     -11.956  12.135  63.370  1.00  0.00    -0.578 A  
HETATM   32  C   UNL     1     -10.597  12.341  63.597  1.00  0.00    -0.501 A  
HETATM   33  C   UNL     1     -10.167  12.900  64.801  1.00  0.00    -0.307 A  
ENDBRANCH  25  28
ENDBRANCH  22  25
ENDBRANCH  10  21
TORSDOF 6
ENDMDL
MODEL      103
REMARK 921   NORMALIZED FREE ENERGY PREDICTED BY IDOCK:   -5.37 KCAL/MOL
REMARK 922        TOTAL FREE ENERGY PREDICTED BY IDOCK:   -8.29 KCAL/MOL
REMARK 923 INTER-LIGAND FREE ENERGY PREDICTED BY IDOCK:   -7.36 KCAL/MOL
REMARK 924 INTRA-LIGAND FREE ENERGY PREDICTED BY IDOCK:   -0.94 KCAL/MOL
REMARK 927      BINDING AFFINITY PREDICTED BY RF-SCORE:    0.00 PKD
ROOT
HETATM    1  C   UNL     1      -9.518   8.741  66.487  1.00  0.00    -0.219 C  
HETATM    2  S   UNL     1     -10.693   9.387  67.708  1.00  0.00    -0.167 SA 
HETATM    3  C   UNL     1     -10.640  11.058  67.030  1.00  0.00    -0.256 C  
HETATM    4  C   UNL     1      -9.237  11.607  66.797  1.00  0.00    -0.190 C  
HETATM    5  O   UNL     1      -5.748  10.697  66.141  1.00  0.00    -0.082 OA 
HETATM    6  CA  UNL     1      -8.127  10.820  66.662  1.00  0.00    -0.142 C  
HETATM    7  N   UNL     1      -8.264   9.459  66.625  1.00  0.00    -0.111 N  
HETATM    8  O   UNL     1      -6.271   8.286  66.792  1.00  0.00    -0.052 OA 
HETATM    9  C   UNL     1      -6.745  11.447  66.637  1.00  0.00    -0.112 C  
HETATM   10  CA  UNL     1      -8.747   7.448  66.919  1.00  0.00    -0.126 C  
HETATM   11  C   UNL     1      -7.480   8.362  66.757  1.00  0.00    -0.083 C  
HETATM   12  OXT UNL     1      -6.514  12.598  66.979  1.00  0.00    -0.169 OA 
ENDROOT
BRANCH   4  13
HETATM   13  C   UNL     1      -9.249  13.132  66.878  1.00  0.00    -0.236 C  
BRANCH  13  14
HETATM   14  S   UNL     1     -10.874  13.918  66.752  1.00  0.00    -0.287 SA 
BRANCH  14  15
HETATM   15  C   UNL     1     -10.532  15.585  66.535  1.00  0.00    -0.300 A  
HETATM   16  N   UNL     1     -10.143  16.196  65.442  1.00  0.00    -0.521 NA 
HETATM   17  C   UNL     1     -11.005  16.325  68.910  1.00  0.00    -0.334 C  
HETATM   18  N   UNL     1      -9.957  17.514  65.796  1.00  0.00    -0.569 NA 
HETATM   19  N   UNL     1     -10.237  17.702  67.079  1.00  0.00    -0.320 NA 
HETATM   20  N   UNL     1     -10.605  16.498  67.543  1.00  0.00    -0.321 NA 
ENDBRANCH  14  15
ENDBRANCH  13  14
ENDBRANCH   4  13
BRANCH  10  21
HETATM   21  N   UNL     1      -9.021   6.981  68.297  1.00  0.00    -0.128 N  
HETATM   22  C   UNL     1      -9.733   5.846  68.616  1.00  0.00    -0.127 C  
HETATM   23  O   UNL     1     -10.263   5.125  67.776  1.00  0.00    -0.172 OA 
HETATM   24  H   UNL     1      -8.655   7.541  69.068  1.00  0.00     0.000 HD 
BRANCH  22  25
HETATM   25  C   UNL     1      -9.766   5.574  70.136  1.00  0.00    -0.182 C  
HETATM   26  H   UNL     1     -10.262   4.076  71.317  1.00  0.00     0.000 HD 
HETATM   27  O   UNL     1     -10.242   4.243  70.382  1.00  0.00    -0.136 OA 
BRANCH  25  28
HETATM   28  C   UNL     1     -10.643   6.564  70.870  1.00  0.00    -0.275 A  
HETATM   29  C   UNL     1     -10.060   7.516  71.719  1.00  0.00    -0.205 A  
HETATM   30  C   UNL     1     -10.854   8.436  72.408  1.00  0.00    -0.416 A  
HETATM   31  C   UNL     1     -12.238   8.422  72.250  1.00  0.00    -0.449 A  
HETATM   32  C   UNL     1     -12.831   7.495  71.396  1.00  0.00    -0.381 A  
HETATM   33  C   UNL     1     -12.039   6.575  70.707  1.00  0.00    -0.286 A  
ENDBRANCH  25  28
ENDBRANCH  22  25
ENDBRANCH  10  21
TORSDOF 6
ENDMDL
MODEL      104
REMARK 921   NORMALIZED FREE ENERGY PREDICTED BY IDOCK:   -5.35 KCAL/MOL
REMARK 922        TOTAL FREE ENERGY PREDICTED BY IDOCK:   -8.27 KCAL/MOL
REMARK 923 INTER-LIGAND FREE ENERGY PREDICTED BY IDOCK:   -6.98 KCAL/MOL
REMARK 924 INTRA-LIGAND FREE ENERGY PREDICTED BY IDOCK:   -1.28 KCAL/MOL
REMARK 927      BINDING AFFINITY PREDICTED BY RF-SCORE:    0.00 PKD
ROOT
HETATM    1  C   UNL     1     -11.341   7.141  70.718  1.00  0.00    -0.289 C  
HETATM    2  S   UNL     1     -10.605   8.237  69.476  1.00  0.00    -0.179 SA 
HETATM    3  C   UNL     1      -9.427   6.989  68.919  1.00  0.00    -0.137 C  
HETATM    4  C   UNL     1      -8.654   6.299  70.038  1.00  0.00    -0.134 C  
HETATM    5  O   UNL     1      -8.732   5.362  73.580  1.00  0.00    -0.117 OA 
HETATM    6  CA  UNL     1      -9.079   6.253  71.337  1.00  0.00    -0.142 C  
HETATM    7  N   UNL     1     -10.309   6.753  71.664  1.00  0.00    -0.197 N  
HETATM    8  O   UNL     1     -10.694   6.952  73.942  1.00  0.00    -0.323 OA 
HETATM    9  C   UNL     1      -8.158   5.727  72.422  1.00  0.00    -0.107 C  
HETATM   10  CA  UNL     1     -12.063   7.864  71.906  1.00  0.00    -0.312 C  
HETATM   11  C   UNL     1     -10.983   7.129  72.778  1.00  0.00    -0.307 C  
HETATM   12  OXT UNL     1      -6.956   5.564  72.274  1.00  0.00    -0.076 OA 
ENDROOT
BRANCH   4  13
HETATM   13  C   UNL     1      -7.305   5.807  69.519  1.00  0.00    -0.071 C  
BRANCH  13  14
HETATM   14  S   UNL     1      -6.280   7.043  68.684  1.00  0.00    -0.028 SA 
BRANCH  14  15
HETATM   15  C   UNL     1      -6.347   8.420  69.704  1.00  0.00    -0.036 A  
HETATM   16  N   UNL     1      -6.024   8.505  70.972  1.00  0.00    -0.034 NA 
HETATM   17  C   UNL     1      -7.240  10.054  67.987  1.00  0.00    -0.082 C  
HETATM   18  N   UNL     1      -6.301   9.802  71.344  1.00  0.00    -0.300 NA 
HETATM   19  N   UNL     1      -6.775  10.495  70.317  1.00  0.00    -0.227 NA 
HETATM   20  N   UNL     1      -6.798   9.636  69.287  1.00  0.00    -0.049 NA 
ENDBRANCH  14  15
ENDBRANCH  13  14
ENDBRANCH   4  13
BRANCH  10  21
HETATM   21  N   UNL     1     -11.971   9.342  71.894  1.00  0.00    -0.371 N  
HETATM   22  C   UNL     1     -12.960  10.188  71.442  1.00  0.00    -0.429 C  
HETATM   23  O   UNL     1     -14.011   9.792  70.949  1.00  0.00    -0.094 OA 
HETATM   24  H   UNL     1     -11.112   9.765  72.247  1.00  0.00     0.000 HD 
BRANCH  22  25
HETATM   25  C   UNL     1     -12.605  11.677  71.648  1.00  0.00    -0.173 C  
HETATM   26  H   UNL     1     -13.486  13.272  72.400  1.00  0.00     0.000 HD 
HETATM   27  O   UNL     1     -13.704  12.356  72.273  1.00  0.00    -0.441 OA 
BRANCH  25  28
HETATM   28  C   UNL     1     -12.267  12.365  70.345  1.00  0.00    -0.370 A  
HETATM   29  C   UNL     1     -12.183  13.764  70.296  1.00  0.00    -0.429 A  
HETATM   30  C   UNL     1     -11.875  14.417  69.100  1.00  0.00    -0.359 A  
HETATM   31  C   UNL     1     -11.639  13.681  67.942  1.00  0.00    -0.376 A  
HETATM   32  C   UNL     1     -11.699  12.290  67.977  1.00  0.00    -0.417 A  
HETATM   33  C   UNL     1     -12.007  11.635  69.171  1.00  0.00    -0.378 A  
ENDBRANCH  25  28
ENDBRANCH  22  25
ENDBRANCH  10  21
TORSDOF 6
ENDMDL
MODEL      105
REMARK 921   NORMALIZED FREE ENERGY PREDICTED BY IDOCK:   -5.35 KCAL/MOL
REMARK 922        TOTAL FREE ENERGY PREDICTED BY IDOCK:   -8.26 KCAL/MOL
REMARK 923 INTER-LIGAND FREE ENERGY PREDICTED BY IDOCK:   -7.47 KCAL/MOL
REMARK 924 INTRA-LIGAND FREE ENERGY PREDICTED BY IDOCK:   -0.79 KCAL/MOL
REMARK 927      BINDING AFFINITY PREDICTED BY RF-SCORE:    0.00 PKD
ROOT
HETATM    1  C   UNL     1     -11.050   6.810  72.011  1.00  0.00    -0.250 C  
HETATM    2  S   UNL     1     -11.313   6.642  70.225  1.00  0.00    -0.390 SA 
HETATM    3  C   UNL     1     -10.513   5.026  70.152  1.00  0.00    -0.165 C  
HETATM    4  C   UNL     1      -9.156   4.956  70.842  1.00  0.00    -0.184 C  
HETATM    5  O   UNL     1      -7.064   6.426  73.469  1.00  0.00    -0.082 OA 
HETATM    6  CA  UNL     1      -8.748   5.836  71.807  1.00  0.00    -0.136 C  
HETATM    7  N   UNL     1      -9.623   6.778  72.275  1.00  0.00    -0.146 N  
HETATM    8  O   UNL     1      -8.655   8.416  73.600  1.00  0.00    -0.290 OA 
HETATM    9  C   UNL     1      -7.312   5.821  72.295  1.00  0.00    -0.091 C  
HETATM   10  CA  UNL     1     -11.050   8.279  72.553  1.00  0.00    -0.368 C  
HETATM   11  C   UNL     1      -9.579   7.933  72.982  1.00  0.00    -0.276 C  
HETATM   12  OXT UNL     1      -6.403   5.243  71.718  1.00  0.00    -0.035 OA 
ENDROOT
BRANCH   4  13
HETATM   13  C   UNL     1      -8.296   3.867  70.203  1.00  0.00    -0.060 C  
BRANCH  13  14
HETATM   14  S   UNL     1      -8.759   2.162  70.598  1.00  0.00    -0.064 SA 
BRANCH  14  15
HETATM   15  C   UNL     1      -9.399   2.245  72.186  1.00  0.00    -0.092 A  
HETATM   16  N   UNL     1     -10.658   2.284  72.551  1.00  0.00    -0.110 NA 
HETATM   17  C   UNL     1      -7.190   2.278  73.426  1.00  0.00    -0.032 C  
HETATM   18  N   UNL     1     -10.647   2.396  73.924  1.00  0.00    -0.142 NA 
HETATM   19  N   UNL     1      -9.404   2.415  74.386  1.00  0.00    -0.080 NA 
HETATM   20  N   UNL     1      -8.620   2.312  73.302  1.00  0.00    -0.069 NA 
ENDBRANCH  14  15
ENDBRANCH  13  14
ENDBRANCH   4  13
BRANCH  10  21
HETATM   21  N   UNL     1     -11.179   9.332  71.520  1.00  0.00    -0.364 N  
HETATM   22  C   UNL     1     -12.371   9.878  71.098  1.00  0.00    -0.370 C  
HETATM   23  O   UNL     1     -13.465   9.503  71.506  1.00  0.00    -0.376 OA 
HETATM   24  H   UNL     1     -10.321   9.679  71.089  1.00  0.00     0.000 HD 
BRANCH  22  25
HETATM   25  C   UNL     1     -12.171  11.022  70.079  1.00  0.00    -0.343 C  
HETATM   26  H   UNL     1     -10.696  11.717  68.972  1.00  0.00     0.000 HD 
HETATM   27  O   UNL     1     -10.819  11.013  69.598  1.00  0.00    -0.240 OA 
BRANCH  25  28
HETATM   28  C   UNL     1     -12.481  12.375  70.680  1.00  0.00    -0.320 A  
HETATM   29  C   UNL     1     -13.222  12.458  71.867  1.00  0.00    -0.486 A  
HETATM   30  C   UNL     1     -13.522  13.699  72.434  1.00  0.00    -0.685 A  
HETATM   31  C   UNL     1     -13.076  14.871  71.827  1.00  0.00    -0.425 A  
HETATM   32  C   UNL     1     -12.322  14.806  70.658  1.00  0.00    -0.401 A  
HETATM   33  C   UNL     1     -12.023  13.566  70.089  1.00  0.00    -0.399 A  
ENDBRANCH  25  28
ENDBRANCH  22  25
ENDBRANCH  10  21
TORSDOF 6
ENDMDL
MODEL      106
REMARK 921   NORMALIZED FREE ENERGY PREDICTED BY IDOCK:   -5.34 KCAL/MOL
REMARK 922        TOTAL FREE ENERGY PREDICTED BY IDOCK:   -8.26 KCAL/MOL
REMARK 923 INTER-LIGAND FREE ENERGY PREDICTED BY IDOCK:   -7.49 KCAL/MOL
REMARK 924 INTRA-LIGAND FREE ENERGY PREDICTED BY IDOCK:   -0.77 KCAL/MOL
REMARK 927      BINDING AFFINITY PREDICTED BY RF-SCORE:    0.00 PKD
ROOT
HETATM    1  C   UNL     1      -8.915  10.238  68.861  1.00  0.00    -0.164 C  
HETATM    2  S   UNL     1      -8.893  10.077  67.056  1.00  0.00    -0.138 SA 
HETATM    3  C   UNL     1      -8.908  11.862  66.791  1.00  0.00    -0.193 C  
HETATM    4  C   UNL     1      -9.970  12.614  67.584  1.00  0.00    -0.216 C  
HETATM    5  O   UNL     1     -12.047  12.544  70.603  1.00  0.00    -0.356 OA 
HETATM    6  CA  UNL     1     -10.562  12.124  68.716  1.00  0.00    -0.201 C  
HETATM    7  N   UNL     1     -10.124  10.943  69.249  1.00  0.00    -0.183 N  
HETATM    8  O   UNL     1     -11.486  10.075  70.913  1.00  0.00    -0.320 OA 
HETATM    9  C   UNL     1     -11.750  12.842  69.328  1.00  0.00    -0.321 C  
HETATM   10  CA  UNL     1      -9.471   8.996  69.637  1.00  0.00    -0.171 C  
HETATM   11  C   UNL     1     -10.555  10.017  70.140  1.00  0.00    -0.296 C  
HETATM   12  OXT UNL     1     -12.395  13.705  68.750  1.00  0.00    -0.261 OA 
ENDROOT
BRANCH   4  13
HETATM   13  C   UNL     1     -10.357  13.900  66.857  1.00  0.00    -0.266 C  
BRANCH  13  14
HETATM   14  S   UNL     1      -9.420  15.379  67.312  1.00  0.00    -0.213 SA 
BRANCH  14  15
HETATM   15  C   UNL     1     -10.087  16.628  66.345  1.00  0.00    -0.315 A  
HETATM   16  N   UNL     1     -10.544  16.547  65.119  1.00  0.00    -0.674 NA 
HETATM   17  C   UNL     1      -9.851  18.505  68.030  1.00  0.00    -0.341 C  
HETATM   18  N   UNL     1     -10.922  17.825  64.774  1.00  0.00    -0.556 NA 
HETATM   19  N   UNL     1     -10.707  18.668  65.775  1.00  0.00    -0.476 NA 
HETATM   20  N   UNL     1     -10.191  17.921  66.763  1.00  0.00    -0.345 NA 
ENDBRANCH  14  15
ENDBRANCH  13  14
ENDBRANCH   4  13
BRANCH  10  21
HETATM   21  N   UNL     1      -9.980   7.897  68.787  1.00  0.00    -0.182 N  
HETATM   22  C   UNL     1      -9.372   6.669  68.640  1.00  0.00    -0.129 C  
HETATM   23  O   UNL     1      -8.304   6.379  69.170  1.00  0.00    -0.119 OA 
HETATM   24  H   UNL     1     -10.845   8.060  68.271  1.00  0.00     0.000 HD 
BRANCH  22  25
HETATM   25  C   UNL     1     -10.195   5.702  67.762  1.00  0.00    -0.193 C  
HETATM   26  H   UNL     1     -10.838   3.843  67.888  1.00  0.00     0.000 HD 
HETATM   27  O   UNL     1     -10.332   4.437  68.428  1.00  0.00     0.109 OA 
BRANCH  25  28
HETATM   28  C   UNL     1      -9.560   5.488  66.406  1.00  0.00    -0.174 A  
HETATM   29  C   UNL     1      -9.873   4.340  65.663  1.00  0.00    -0.223 A  
HETATM   30  C   UNL     1      -9.293   4.123  64.411  1.00  0.00    -0.160 A  
HETATM   31  C   UNL     1      -8.402   5.055  63.882  1.00  0.00    -0.132 A  
HETATM   32  C   UNL     1      -8.096   6.209  64.598  1.00  0.00    -0.126 A  
HETATM   33  C   UNL     1      -8.674   6.427  65.850  1.00  0.00    -0.152 A  
ENDBRANCH  25  28
ENDBRANCH  22  25
ENDBRANCH  10  21
TORSDOF 6
ENDMDL
MODEL      107
REMARK 921   NORMALIZED FREE ENERGY PREDICTED BY IDOCK:   -5.34 KCAL/MOL
REMARK 922        TOTAL FREE ENERGY PREDICTED BY IDOCK:   -8.25 KCAL/MOL
REMARK 923 INTER-LIGAND FREE ENERGY PREDICTED BY IDOCK:   -8.35 KCAL/MOL
REMARK 924 INTRA-LIGAND FREE ENERGY PREDICTED BY IDOCK:    0.10 KCAL/MOL
REMARK 927      BINDING AFFINITY PREDICTED BY RF-SCORE:    0.00 PKD
ROOT
HETATM    1  C   UNL     1      -9.754  12.061  66.794  1.00  0.00    -0.207 C  
HETATM    2  S   UNL     1      -8.979  13.657  67.165  1.00  0.00    -0.232 SA 
HETATM    3  C   UNL     1      -7.372  12.914  67.515  1.00  0.00    -0.154 C  
HETATM    4  C   UNL     1      -7.414  11.725  68.467  1.00  0.00    -0.110 C  
HETATM    5  O   UNL     1      -9.507   9.005  69.754  1.00  0.00    -0.163 OA 
HETATM    6  CA  UNL     1      -8.536  10.976  68.699  1.00  0.00    -0.157 C  
HETATM    7  N   UNL     1      -9.670  11.218  67.974  1.00  0.00    -0.174 N  
HETATM    8  O   UNL     1     -11.565  10.141  68.763  1.00  0.00    -0.123 OA 
HETATM    9  C   UNL     1      -8.547   9.943  69.809  1.00  0.00    -0.203 C  
HETATM   10  CA  UNL     1     -11.311  12.018  66.957  1.00  0.00    -0.336 C  
HETATM   11  C   UNL     1     -10.992  10.925  68.039  1.00  0.00    -0.265 C  
HETATM   12  OXT UNL     1      -7.707   9.886  70.695  1.00  0.00    -0.289 OA 
ENDROOT
BRANCH   4  13
HETATM   13  C   UNL     1      -6.084  11.595  69.205  1.00  0.00    -0.078 C  
BRANCH  13  14
HETATM   14  S   UNL     1      -5.177  13.137  69.478  1.00  0.00    -0.079 SA 
BRANCH  14  15
HETATM   15  C   UNL     1      -5.181  13.345  71.181  1.00  0.00    -0.172 A  
HETATM   16  N   UNL     1      -5.213  12.421  72.109  1.00  0.00    -0.373 NA 
HETATM   17  C   UNL     1      -5.127  15.877  71.199  1.00  0.00    -0.142 C  
HETATM   18  N   UNL     1      -5.251  13.095  73.310  1.00  0.00    -0.382 NA 
HETATM   19  N   UNL     1      -5.234  14.407  73.114  1.00  0.00    -0.277 NA 
HETATM   20  N   UNL     1      -5.182  14.567  71.783  1.00  0.00    -0.161 NA 
ENDBRANCH  14  15
ENDBRANCH  13  14
ENDBRANCH   4  13
BRANCH  10  21
HETATM   21  N   UNL     1     -11.925  13.262  67.474  1.00  0.00    -0.350 N  
HETATM   22  C   UNL     1     -11.932  13.645  68.797  1.00  0.00    -0.359 C  
HETATM   23  O   UNL     1     -11.467  12.956  69.700  1.00  0.00    -0.250 OA 
HETATM   24  H   UNL     1     -12.376  13.882  66.800  1.00  0.00     0.000 HD 
BRANCH  22  25
HETATM   25  C   UNL     1     -12.564  15.038  69.007  1.00  0.00     0.255 C  
HETATM   26  H   UNL     1     -12.111  16.903  68.559  1.00  0.00     0.000 HD 
HETATM   27  O   UNL     1     -11.722  16.047  68.429  1.00  0.00    -0.346 OA 
BRANCH  25  28
HETATM   28  C   UNL     1     -12.782  15.347  70.472  1.00  0.00    -0.455 A  
HETATM   29  C   UNL     1     -14.006  15.028  71.078  1.00  0.00    -0.343 A  
HETATM   30  C   UNL     1     -14.226  15.308  72.428  1.00  0.00    -0.579 A  
HETATM   31  C   UNL     1     -13.224  15.902  73.192  1.00  0.00    -0.692 A  
HETATM   32  C   UNL     1     -11.996  16.208  72.611  1.00  0.00    -0.653 A  
HETATM   33  C   UNL     1     -11.774  15.929  71.261  1.00  0.00    -0.504 A  
ENDBRANCH  25  28
ENDBRANCH  22  25
ENDBRANCH  10  21
TORSDOF 6
ENDMDL
MODEL      108
REMARK 921   NORMALIZED FREE ENERGY PREDICTED BY IDOCK:   -5.33 KCAL/MOL
REMARK 922        TOTAL FREE ENERGY PREDICTED BY IDOCK:   -8.24 KCAL/MOL
REMARK 923 INTER-LIGAND FREE ENERGY PREDICTED BY IDOCK:   -7.29 KCAL/MOL
REMARK 924 INTRA-LIGAND FREE ENERGY PREDICTED BY IDOCK:   -0.95 KCAL/MOL
REMARK 927      BINDING AFFINITY PREDICTED BY RF-SCORE:    0.00 PKD
ROOT
HETATM    1  C   UNL     1      -9.698   8.888  66.232  1.00  0.00    -0.275 C  
HETATM    2  S   UNL     1     -10.608   9.159  67.776  1.00  0.00    -0.186 SA 
HETATM    3  C   UNL     1     -10.599  10.954  67.588  1.00  0.00    -0.224 C  
HETATM    4  C   UNL     1      -9.236  11.554  67.265  1.00  0.00    -0.168 C  
HETATM    5  O   UNL     1      -5.962  10.882  65.759  1.00  0.00    -0.136 OA 
HETATM    6  CA  UNL     1      -8.204  10.842  66.717  1.00  0.00    -0.140 C  
HETATM    7  N   UNL     1      -8.407   9.545  66.331  1.00  0.00    -0.118 N  
HETATM    8  O   UNL     1      -6.473   8.383  65.802  1.00  0.00    -0.052 OA 
HETATM    9  C   UNL     1      -6.821  11.459  66.616  1.00  0.00    -0.108 C  
HETATM   10  CA  UNL     1      -8.923   7.529  66.141  1.00  0.00    -0.153 C  
HETATM   11  C   UNL     1      -7.664   8.459  66.010  1.00  0.00    -0.090 C  
HETATM   12  OXT UNL     1      -6.481  12.468  67.215  1.00  0.00    -0.154 OA 
ENDROOT
BRANCH   4  13
HETATM   13  C   UNL     1      -9.163  12.995  67.765  1.00  0.00    -0.200 C  
BRANCH  13  14
HETATM   14  S   UNL     1     -10.740  13.875  67.872  1.00  0.00    -0.244 SA 
BRANCH  14  15
HETATM   15  C   UNL     1     -10.591  15.167  66.753  1.00  0.00    -0.298 A  
HETATM   16  N   UNL     1     -10.393  16.438  67.005  1.00  0.00    -0.291 NA 
HETATM   17  C   UNL     1     -10.889  13.802  64.640  1.00  0.00    -0.406 C  
HETATM   18  N   UNL     1     -10.396  17.068  65.781  1.00  0.00    -0.544 NA 
HETATM   19  N   UNL     1     -10.583  16.194  64.801  1.00  0.00    -0.605 NA 
HETATM   20  N   UNL     1     -10.697  15.002  65.405  1.00  0.00    -0.345 NA 
ENDBRANCH  14  15
ENDBRANCH  13  14
ENDBRANCH   4  13
BRANCH  10  21
HETATM   21  N   UNL     1      -8.971   6.694  67.362  1.00  0.00    -0.115 N  
HETATM   22  C   UNL     1      -9.780   5.591  67.530  1.00  0.00    -0.128 C  
HETATM   23  O   UNL     1     -10.591   5.217  66.689  1.00  0.00    -0.279 OA 
HETATM   24  H   UNL     1      -8.360   6.953  68.137  1.00  0.00     0.000 HD 
BRANCH  22  25
HETATM   25  C   UNL     1      -9.532   4.873  68.874  1.00  0.00    -0.143 C  
HETATM   26  H   UNL     1      -9.874   3.086  69.633  1.00  0.00     0.000 HD 
HETATM   27  O   UNL     1     -10.026   3.527  68.806  1.00  0.00     0.088 OA 
BRANCH  25  28
HETATM   28  C   UNL     1     -10.192   5.591  70.030  1.00  0.00    -0.337 A  
HETATM   29  C   UNL     1      -9.585   5.584  71.294  1.00  0.00    -0.198 A  
HETATM   30  C   UNL     1     -10.181   6.238  72.374  1.00  0.00    -0.208 A  
HETATM   31  C   UNL     1     -11.387   6.916  72.203  1.00  0.00    -0.302 A  
HETATM   32  C   UNL     1     -11.993   6.949  70.950  1.00  0.00    -0.430 A  
HETATM   33  C   UNL     1     -11.399   6.295  69.869  1.00  0.00    -0.504 A  
ENDBRANCH  25  28
ENDBRANCH  22  25
ENDBRANCH  10  21
TORSDOF 6
ENDMDL
MODEL      109
REMARK 921   NORMALIZED FREE ENERGY PREDICTED BY IDOCK:   -5.28 KCAL/MOL
REMARK 922        TOTAL FREE ENERGY PREDICTED BY IDOCK:   -8.18 KCAL/MOL
REMARK 923 INTER-LIGAND FREE ENERGY PREDICTED BY IDOCK:   -7.39 KCAL/MOL
REMARK 924 INTRA-LIGAND FREE ENERGY PREDICTED BY IDOCK:   -0.79 KCAL/MOL
REMARK 927      BINDING AFFINITY PREDICTED BY RF-SCORE:    0.00 PKD
ROOT
HETATM    1  C   UNL     1      -7.749   9.505  66.369  1.00  0.00    -0.097 C  
HETATM    2  S   UNL     1      -8.709   9.241  67.884  1.00  0.00    -0.124 SA 
HETATM    3  C   UNL     1      -7.964   7.628  68.200  1.00  0.00    -0.123 C  
HETATM    4  C   UNL     1      -7.952   6.686  67.001  1.00  0.00    -0.109 C  
HETATM    5  O   UNL     1      -7.968   6.515  63.340  1.00  0.00    -0.115 OA 
HETATM    6  CA  UNL     1      -8.056   7.106  65.704  1.00  0.00    -0.133 C  
HETATM    7  N   UNL     1      -8.067   8.446  65.427  1.00  0.00    -0.125 N  
HETATM    8  O   UNL     1      -8.642   8.973  63.244  1.00  0.00    -0.197 OA 
HETATM    9  C   UNL     1      -8.241   6.096  64.587  1.00  0.00    -0.094 C  
HETATM   10  CA  UNL     1      -8.377  10.511  65.345  1.00  0.00    -0.165 C  
HETATM   11  C   UNL     1      -8.392   9.261  64.394  1.00  0.00    -0.171 C  
HETATM   12  OXT UNL     1      -8.558   4.930  64.770  1.00  0.00    -0.139 OA 
ENDROOT
BRANCH   4  13
HETATM   13  C   UNL     1      -7.950   5.234  67.474  1.00  0.00    -0.100 C  
BRANCH  13  14
HETATM   14  S   UNL     1      -9.577   4.483  67.732  1.00  0.00    -0.148 SA 
BRANCH  14  15
HETATM   15  C   UNL     1     -10.279   5.400  69.000  1.00  0.00    -0.221 A  
HETATM   16  N   UNL     1     -11.158   6.368  68.908  1.00  0.00    -0.348 NA 
HETATM   17  C   UNL     1      -9.063   4.283  70.920  1.00  0.00    -0.126 C  
HETATM   18  N   UNL     1     -11.364   6.811  70.196  1.00  0.00    -0.336 NA 
HETATM   19  N   UNL     1     -10.629   6.118  71.056  1.00  0.00    -0.235 NA 
HETATM   20  N   UNL     1      -9.954   5.229  70.312  1.00  0.00    -0.219 NA 
ENDBRANCH  14  15
ENDBRANCH  13  14
ENDBRANCH   4  13
BRANCH  10  21
HETATM   21  N   UNL     1      -9.708  11.041  65.718  1.00  0.00    -0.213 N  
HETATM   22  C   UNL     1     -10.457  11.901  64.945  1.00  0.00    -0.287 C  
HETATM   23  O   UNL     1     -10.066  12.361  63.877  1.00  0.00    -0.376 OA 
HETATM   24  H   UNL     1     -10.100  10.748  66.613  1.00  0.00     0.000 HD 
BRANCH  22  25
HETATM   25  C   UNL     1     -11.842  12.198  65.560  1.00  0.00    -0.286 C  
HETATM   26  H   UNL     1     -13.520  13.050  64.976  1.00  0.00     0.000 HD 
HETATM   27  O   UNL     1     -12.669  12.868  64.597  1.00  0.00    -0.654 OA 
BRANCH  25  28
HETATM   28  C   UNL     1     -11.738  13.046  66.808  1.00  0.00    -0.440 A  
HETATM   29  C   UNL     1     -11.855  12.446  68.071  1.00  0.00    -0.376 A  
HETATM   30  C   UNL     1     -11.765  13.214  69.234  1.00  0.00    -0.376 A  
HETATM   31  C   UNL     1     -11.549  14.588  69.151  1.00  0.00    -0.331 A  
HETATM   32  C   UNL     1     -11.412  15.196  67.906  1.00  0.00    -0.344 A  
HETATM   33  C   UNL     1     -11.501  14.430  66.742  1.00  0.00    -0.381 A  
ENDBRANCH  25  28
ENDBRANCH  22  25
ENDBRANCH  10  21
TORSDOF 6
ENDMDL
MODEL      110
REMARK 921   NORMALIZED FREE ENERGY PREDICTED BY IDOCK:   -5.25 KCAL/MOL
REMARK 922        TOTAL FREE ENERGY PREDICTED BY IDOCK:   -8.13 KCAL/MOL
REMARK 923 INTER-LIGAND FREE ENERGY PREDICTED BY IDOCK:   -7.24 KCAL/MOL
REMARK 924 INTRA-LIGAND FREE ENERGY PREDICTED BY IDOCK:   -0.89 KCAL/MOL
REMARK 927      BINDING AFFINITY PREDICTED BY RF-SCORE:    0.00 PKD
ROOT
HETATM    1  C   UNL     1      -9.870  11.732  65.848  1.00  0.00    -0.238 C  
HETATM    2  S   UNL     1     -11.511  11.976  66.578  1.00  0.00    -0.307 SA 
HETATM    3  C   UNL     1     -11.505  13.752  66.258  1.00  0.00    -0.335 C  
HETATM    4  C   UNL     1     -10.239  14.475  66.702  1.00  0.00    -0.276 C  
HETATM    5  O   UNL     1      -6.657  14.081  67.373  1.00  0.00    -0.278 OA 
HETATM    6  CA  UNL     1      -9.038  13.851  66.902  1.00  0.00    -0.245 C  
HETATM    7  N   UNL     1      -8.908  12.524  66.594  1.00  0.00    -0.183 N  
HETATM    8  O   UNL     1      -6.949  11.547  67.359  1.00  0.00    -0.093 OA 
HETATM    9  C   UNL     1      -7.884  14.602  67.538  1.00  0.00    -0.193 C  
HETATM   10  CA  UNL     1      -9.101  10.459  66.340  1.00  0.00    -0.157 C  
HETATM   11  C   UNL     1      -8.049  11.508  66.853  1.00  0.00    -0.164 C  
HETATM   12  OXT UNL     1      -8.006  15.667  68.125  1.00  0.00    -0.126 OA 
ENDROOT
BRANCH   4  13
HETATM   13  C   UNL     1     -10.550  15.937  67.016  1.00  0.00    -0.306 C  
BRANCH  13  14
HETATM   14  S   UNL     1     -10.423  17.089  65.626  1.00  0.00    -0.111 SA 
BRANCH  14  15
HETATM   15  C   UNL     1      -9.993  18.586  66.344  1.00  0.00    -0.379 A  
HETATM   16  N   UNL     1     -10.785  19.485  66.876  1.00  0.00    -0.478 NA 
HETATM   17  C   UNL     1      -7.491  18.408  65.993  1.00  0.00    -0.221 C  
HETATM   18  N   UNL     1      -9.966  20.522  67.267  1.00  0.00    -0.439 NA 
HETATM   19  N   UNL     1      -8.698  20.253  66.985  1.00  0.00    -0.336 NA 
HETATM   20  N   UNL     1      -8.710  19.038  66.414  1.00  0.00    -0.322 NA 
ENDBRANCH  14  15
ENDBRANCH  13  14
ENDBRANCH   4  13
BRANCH  10  21
HETATM   21  N   UNL     1      -9.785   9.678  67.395  1.00  0.00    -0.151 N  
HETATM   22  C   UNL     1      -9.995   8.317  67.355  1.00  0.00    -0.209 C  
HETATM   23  O   UNL     1      -9.675   7.614  66.402  1.00  0.00    -0.194 OA 
HETATM   24  H   UNL     1     -10.126  10.185  68.213  1.00  0.00     0.000 HD 
BRANCH  22  25
HETATM   25  C   UNL     1     -10.649   7.780  68.647  1.00  0.00    -0.120 C  
HETATM   26  H   UNL     1     -11.231   8.523  70.378  1.00  0.00     0.000 HD 
HETATM   27  O   UNL     1     -10.829   8.854  69.584  1.00  0.00    -0.233 OA 
BRANCH  25  28
HETATM   28  C   UNL     1      -9.823   6.688  69.290  1.00  0.00    -0.157 A  
HETATM   29  C   UNL     1     -10.447   5.518  69.744  1.00  0.00    -0.389 A  
HETATM   30  C   UNL     1      -9.701   4.500  70.343  1.00  0.00    -0.287 A  
HETATM   31  C   UNL     1      -8.322   4.635  70.487  1.00  0.00    -0.096 A  
HETATM   32  C   UNL     1      -7.684   5.783  70.024  1.00  0.00    -0.087 A  
HETATM   33  C   UNL     1      -8.428   6.801  69.425  1.00  0.00    -0.132 A  
ENDBRANCH  25  28
ENDBRANCH  22  25
ENDBRANCH  10  21
TORSDOF 6
ENDMDL
MODEL      111
REMARK 921   NORMALIZED FREE ENERGY PREDICTED BY IDOCK:   -5.24 KCAL/MOL
REMARK 922        TOTAL FREE ENERGY PREDICTED BY IDOCK:   -8.12 KCAL/MOL
REMARK 923 INTER-LIGAND FREE ENERGY PREDICTED BY IDOCK:   -6.63 KCAL/MOL
REMARK 924 INTRA-LIGAND FREE ENERGY PREDICTED BY IDOCK:   -1.49 KCAL/MOL
REMARK 927      BINDING AFFINITY PREDICTED BY RF-SCORE:    0.00 PKD
ROOT
HETATM    1  C   UNL     1     -12.031  14.448  68.449  1.00  0.00    -0.293 C  
HETATM    2  S   UNL     1     -10.914  14.643  69.863  1.00  0.00    -0.101 SA 
HETATM    3  C   UNL     1     -10.775  16.429  69.643  1.00  0.00    -0.337 C  
HETATM    4  C   UNL     1     -10.462  16.872  68.219  1.00  0.00    -0.352 C  
HETATM    5  O   UNL     1     -10.735  15.956  64.680  1.00  0.00    -0.553 OA 
HETATM    6  CA  UNL     1     -10.700  16.102  67.113  1.00  0.00    -0.262 C  
HETATM    7  N   UNL     1     -11.349  14.905  67.252  1.00  0.00    -0.346 N  
HETATM    8  O   UNL     1     -11.312  13.566  65.359  1.00  0.00    -0.288 OA 
HETATM    9  C   UNL     1     -10.174  16.531  65.757  1.00  0.00    -0.329 C  
HETATM   10  CA  UNL     1     -12.058  13.020  67.808  1.00  0.00    -0.193 C  
HETATM   11  C   UNL     1     -11.551  13.777  66.528  1.00  0.00    -0.365 C  
HETATM   12  OXT UNL     1      -9.329  17.399  65.598  1.00  0.00    -0.496 OA 
ENDROOT
BRANCH   4  13
HETATM   13  C   UNL     1      -9.733  18.214  68.234  1.00  0.00    -0.337 C  
BRANCH  13  14
HETATM   14  S   UNL     1      -8.141  18.238  69.093  1.00  0.00     0.173 SA 
BRANCH  14  15
HETATM   15  C   UNL     1      -7.060  17.447  68.022  1.00  0.00    -0.184 A  
HETATM   16  N   UNL     1      -6.406  17.958  67.008  1.00  0.00    -0.158 NA 
HETATM   17  C   UNL     1      -7.220  15.137  69.048  1.00  0.00    -0.149 C  
HETATM   18  N   UNL     1      -5.715  16.910  66.440  1.00  0.00    -0.328 NA 
HETATM   19  N   UNL     1      -5.939  15.784  67.104  1.00  0.00    -0.320 NA 
HETATM   20  N   UNL     1      -6.774  16.117  68.099  1.00  0.00    -0.121 NA 
ENDBRANCH  14  15
ENDBRANCH  13  14
ENDBRANCH   4  13
BRANCH  10  21
HETATM   21  N   UNL     1     -11.103  12.049  68.391  1.00  0.00    -0.226 N  
HETATM   22  C   UNL     1     -10.835  10.802  67.872  1.00  0.00    -0.264 C  
HETATM   23  O   UNL     1     -11.408  10.343  66.889  1.00  0.00    -0.163 OA 
HETATM   24  H   UNL     1     -10.607  12.325  69.239  1.00  0.00     0.000 HD 
BRANCH  22  25
HETATM   25  C   UNL     1      -9.723  10.063  68.649  1.00  0.00    -0.159 C  
HETATM   26  H   UNL     1      -9.014  10.064  70.488  1.00  0.00     0.000 HD 
HETATM   27  O   UNL     1      -9.698  10.518  70.011  1.00  0.00     0.001 OA 
BRANCH  25  28
HETATM   28  C   UNL     1      -8.361  10.273  68.026  1.00  0.00    -0.114 A  
HETATM   29  C   UNL     1      -7.214   9.802  68.681  1.00  0.00    -0.073 A  
HETATM   30  C   UNL     1      -5.948   9.989  68.123  1.00  0.00    -0.042 A  
HETATM   31  C   UNL     1      -5.812  10.640  66.898  1.00  0.00    -0.062 A  
HETATM   32  C   UNL     1      -6.943  11.096  66.225  1.00  0.00    -0.052 A  
HETATM   33  C   UNL     1      -8.209  10.911  66.782  1.00  0.00    -0.140 A  
ENDBRANCH  25  28
ENDBRANCH  22  25
ENDBRANCH  10  21
TORSDOF 6
ENDMDL
MODEL      112
REMARK 921   NORMALIZED FREE ENERGY PREDICTED BY IDOCK:   -5.23 KCAL/MOL
REMARK 922        TOTAL FREE ENERGY PREDICTED BY IDOCK:   -8.11 KCAL/MOL
REMARK 923 INTER-LIGAND FREE ENERGY PREDICTED BY IDOCK:   -6.59 KCAL/MOL
REMARK 924 INTRA-LIGAND FREE ENERGY PREDICTED BY IDOCK:   -1.52 KCAL/MOL
REMARK 927      BINDING AFFINITY PREDICTED BY RF-SCORE:    0.00 PKD
ROOT
HETATM    1  C   UNL     1     -10.481   8.810  69.010  1.00  0.00    -0.203 C  
HETATM    2  S   UNL     1     -10.614   9.202  67.245  1.00  0.00    -0.167 SA 
HETATM    3  C   UNL     1     -10.042   7.569  66.731  1.00  0.00    -0.243 C  
HETATM    4  C   UNL     1      -8.771   7.093  67.424  1.00  0.00    -0.120 C  
HETATM    5  O   UNL     1      -6.724   7.405  70.448  1.00  0.00    -0.046 OA 
HETATM    6  CA  UNL     1      -8.328   7.585  68.621  1.00  0.00    -0.129 C  
HETATM    7  N   UNL     1      -9.099   8.480  69.310  1.00  0.00    -0.152 N  
HETATM    8  O   UNL     1      -8.029   9.499  71.096  1.00  0.00    -0.315 OA 
HETATM    9  C   UNL     1      -6.953   7.206  69.140  1.00  0.00    -0.074 C  
HETATM   10  CA  UNL     1     -10.323  10.044  69.960  1.00  0.00    -0.272 C  
HETATM   11  C   UNL     1      -8.955   9.364  70.327  1.00  0.00    -0.240 C  
HETATM   12  OXT UNL     1      -6.088   6.681  68.455  1.00  0.00    -0.023 OA 
ENDROOT
BRANCH   4  13
HETATM   13  C   UNL     1      -8.020   6.110  66.527  1.00  0.00    -0.105 C  
BRANCH  13  14
HETATM   14  S   UNL     1      -7.804   6.619  64.804  1.00  0.00    -0.116 SA 
BRANCH  14  15
HETATM   15  C   UNL     1      -7.011   8.137  64.898  1.00  0.00    -0.074 A  
HETATM   16  N   UNL     1      -5.858   8.415  65.457  1.00  0.00    -0.044 NA 
HETATM   17  C   UNL     1      -8.765   9.497  63.678  1.00  0.00    -0.221 C  
HETATM   18  N   UNL     1      -5.687   9.773  65.309  1.00  0.00    -0.064 NA 
HETATM   19  N   UNL     1      -6.714  10.310  64.664  1.00  0.00    -0.115 NA 
HETATM   20  N   UNL     1      -7.541   9.288  64.398  1.00  0.00    -0.111 NA 
ENDBRANCH  14  15
ENDBRANCH  13  14
ENDBRANCH   4  13
BRANCH  10  21
HETATM   21  N   UNL     1     -10.217  11.355  69.280  1.00  0.00    -0.426 N  
HETATM   22  C   UNL     1     -11.192  12.328  69.290  1.00  0.00    -0.213 C  
HETATM   23  O   UNL     1     -12.284  12.181  69.830  1.00  0.00    -0.251 OA 
HETATM   24  H   UNL     1      -9.358  11.552  68.765  1.00  0.00     0.000 HD 
BRANCH  22  25
HETATM   25  C   UNL     1     -10.748  13.620  68.570  1.00  0.00    -0.255 C  
HETATM   26  H   UNL     1     -11.095  15.552  68.744  1.00  0.00     0.000 HD 
HETATM   27  O   UNL     1     -11.369  14.758  69.187  1.00  0.00    -0.253 OA 
BRANCH  25  28
HETATM   28  C   UNL     1     -11.093  13.596  67.098  1.00  0.00    -0.311 A  
HETATM   29  C   UNL     1     -10.141  13.159  66.166  1.00  0.00    -0.291 A  
HETATM   30  C   UNL     1     -10.441  13.133  64.802  1.00  0.00    -0.390 A  
HETATM   31  C   UNL     1     -11.697  13.537  64.353  1.00  0.00    -0.443 A  
HETATM   32  C   UNL     1     -12.659  13.956  65.268  1.00  0.00    -0.508 A  
HETATM   33  C   UNL     1     -12.362  13.983  66.632  1.00  0.00    -0.408 A  
ENDBRANCH  25  28
ENDBRANCH  22  25
ENDBRANCH  10  21
TORSDOF 6
ENDMDL
MODEL      113
REMARK 921   NORMALIZED FREE ENERGY PREDICTED BY IDOCK:   -5.19 KCAL/MOL
REMARK 922        TOTAL FREE ENERGY PREDICTED BY IDOCK:   -8.05 KCAL/MOL
REMARK 923 INTER-LIGAND FREE ENERGY PREDICTED BY IDOCK:   -6.93 KCAL/MOL
REMARK 924 INTRA-LIGAND FREE ENERGY PREDICTED BY IDOCK:   -1.12 KCAL/MOL
REMARK 927      BINDING AFFINITY PREDICTED BY RF-SCORE:    0.00 PKD
ROOT
HETATM    1  C   UNL     1      -7.715  11.127  68.922  1.00  0.00    -0.137 C  
HETATM    2  S   UNL     1      -7.162  11.637  67.272  1.00  0.00    -0.146 SA 
HETATM    3  C   UNL     1      -7.963  13.250  67.387  1.00  0.00    -0.170 C  
HETATM    4  C   UNL     1      -9.417  13.209  67.844  1.00  0.00    -0.218 C  
HETATM    5  O   UNL     1     -11.892  11.290  69.747  1.00  0.00    -0.301 OA 
HETATM    6  CA  UNL     1      -9.966  12.164  68.536  1.00  0.00    -0.175 C  
HETATM    7  N   UNL     1      -9.167  11.132  68.947  1.00  0.00    -0.141 N  
HETATM    8  O   UNL     1     -10.316   9.284  69.745  1.00  0.00    -0.198 OA 
HETATM    9  C   UNL     1     -11.463  12.109  68.774  1.00  0.00    -0.307 C  
HETATM   10  CA  UNL     1      -7.783   9.580  69.156  1.00  0.00    -0.081 C  
HETATM   11  C   UNL     1      -9.310   9.862  69.396  1.00  0.00    -0.214 C  
HETATM   12  OXT UNL     1     -12.272  12.806  68.179  1.00  0.00    -0.198 OA 
ENDROOT
BRANCH   4  13
HETATM   13  C   UNL     1     -10.174  14.417  67.298  1.00  0.00    -0.252 C  
BRANCH  13  14
HETATM   14  S   UNL     1     -10.171  14.606  65.498  1.00  0.00    -0.389 SA 
BRANCH  14  15
HETATM   15  C   UNL     1     -11.405  13.547  64.952  1.00  0.00    -0.334 A  
HETATM   16  N   UNL     1     -12.704  13.718  65.010  1.00  0.00    -0.688 NA 
HETATM   17  C   UNL     1      -9.895  11.704  64.092  1.00  0.00    -0.242 C  
HETATM   18  N   UNL     1     -13.257  12.570  64.489  1.00  0.00    -0.779 NA 
HETATM   19  N   UNL     1     -12.312  11.720  64.111  1.00  0.00    -0.228 NA 
HETATM   20  N   UNL     1     -11.151  12.332  64.392  1.00  0.00    -0.311 NA 
ENDBRANCH  14  15
ENDBRANCH  13  14
ENDBRANCH   4  13
BRANCH  10  21
HETATM   21  N   UNL     1      -7.470   8.748  67.972  1.00  0.00    -0.092 N  
HETATM   22  C   UNL     1      -7.488   7.371  67.952  1.00  0.00    -0.101 C  
HETATM   23  O   UNL     1      -7.719   6.685  68.943  1.00  0.00    -0.105 OA 
HETATM   24  H   UNL     1      -7.223   9.231  67.108  1.00  0.00     0.000 HD 
BRANCH  22  25
HETATM   25  C   UNL     1      -7.210   6.796  66.546  1.00  0.00    -0.073 C  
HETATM   26  H   UNL     1      -6.937   7.512  64.730  1.00  0.00     0.000 HD 
HETATM   27  O   UNL     1      -7.107   7.866  65.594  1.00  0.00    -0.055 OA 
BRANCH  25  28
HETATM   28  C   UNL     1      -8.290   5.834  66.104  1.00  0.00    -0.122 A  
HETATM   29  C   UNL     1      -9.581   5.941  66.639  1.00  0.00    -0.174 A  
HETATM   30  C   UNL     1     -10.590   5.059  66.245  1.00  0.00    -0.332 A  
HETATM   31  C   UNL     1     -10.324   4.065  65.306  1.00  0.00    -0.121 A  
HETATM   32  C   UNL     1      -9.052   3.957  64.751  1.00  0.00    -0.141 A  
HETATM   33  C   UNL     1      -8.042   4.837  65.143  1.00  0.00    -0.106 A  
ENDBRANCH  25  28
ENDBRANCH  22  25
ENDBRANCH  10  21
TORSDOF 6
ENDMDL
MODEL      114
REMARK 921   NORMALIZED FREE ENERGY PREDICTED BY IDOCK:   -5.18 KCAL/MOL
REMARK 922        TOTAL FREE ENERGY PREDICTED BY IDOCK:   -8.04 KCAL/MOL
REMARK 923 INTER-LIGAND FREE ENERGY PREDICTED BY IDOCK:   -7.53 KCAL/MOL
REMARK 924 INTRA-LIGAND FREE ENERGY PREDICTED BY IDOCK:   -0.51 KCAL/MOL
REMARK 927      BINDING AFFINITY PREDICTED BY RF-SCORE:    0.00 PKD
ROOT
HETATM    1  C   UNL     1      -8.497  13.186  68.701  1.00  0.00     0.029 C  
HETATM    2  S   UNL     1      -7.396  13.703  67.357  1.00  0.00    -0.029 SA 
HETATM    3  C   UNL     1      -6.917  15.228  68.195  1.00  0.00    -0.126 C  
HETATM    4  C   UNL     1      -8.082  16.052  68.732  1.00  0.00    -0.212 C  
HETATM    5  O   UNL     1     -11.547  15.902  69.917  1.00  0.00    -0.321 OA 
HETATM    6  CA  UNL     1      -9.323  15.536  68.988  1.00  0.00    -0.235 C  
HETATM    7  N   UNL     1      -9.533  14.190  68.865  1.00  0.00    -0.094 N  
HETATM    8  O   UNL     1     -11.760  13.552  68.949  1.00  0.00    -0.293 OA 
HETATM    9  C   UNL     1     -10.478  16.460  69.325  1.00  0.00    -0.303 C  
HETATM   10  CA  UNL     1      -9.628  12.183  68.292  1.00  0.00    -0.210 C  
HETATM   11  C   UNL     1     -10.581  13.337  68.770  1.00  0.00    -0.201 C  
HETATM   12  OXT UNL     1     -10.458  17.669  69.145  1.00  0.00    -0.331 OA 
ENDROOT
BRANCH   4  13
HETATM   13  C   UNL     1      -7.695  17.528  68.800  1.00  0.00    -0.252 C  
BRANCH  13  14
HETATM   14  S   UNL     1      -7.435  18.352  67.210  1.00  0.00    -0.219 SA 
BRANCH  14  15
HETATM   15  C   UNL     1      -8.920  18.159  66.376  1.00  0.00    -0.239 A  
HETATM   16  N   UNL     1      -9.340  17.118  65.699  1.00  0.00    -0.447 NA 
HETATM   17  C   UNL     1      -9.882  20.445  66.892  1.00  0.00    -0.431 C  
HETATM   18  N   UNL     1     -10.566  17.475  65.182  1.00  0.00    -0.526 NA 
HETATM   19  N   UNL     1     -10.889  18.709  65.545  1.00  0.00    -0.460 NA 
HETATM   20  N   UNL     1      -9.865  19.138  66.299  1.00  0.00    -0.370 NA 
ENDBRANCH  14  15
ENDBRANCH  13  14
ENDBRANCH   4  13
BRANCH  10  21
HETATM   21  N   UNL     1      -9.694  11.863  66.848  1.00  0.00    -0.198 N  
HETATM   22  C   UNL     1      -9.587  10.596  66.317  1.00  0.00    -0.185 C  
HETATM   23  O   UNL     1      -9.370   9.597  66.996  1.00  0.00    -0.142 OA 
HETATM   24  H   UNL     1      -9.830  12.637  66.197  1.00  0.00     0.000 HD 
BRANCH  22  25
HETATM   25  C   UNL     1      -9.792  10.575  64.787  1.00  0.00    -0.323 C  
HETATM   26  H   UNL     1      -8.653  10.695  63.183  1.00  0.00     0.000 HD 
HETATM   27  O   UNL     1      -8.526  10.707  64.124  1.00  0.00    -0.154 OA 
BRANCH  25  28
HETATM   28  C   UNL     1     -10.717  11.679  64.324  1.00  0.00    -0.398 A  
HETATM   29  C   UNL     1     -11.846  11.366  63.552  1.00  0.00    -0.008 A  
HETATM   30  C   UNL     1     -12.709  12.372  63.113  1.00  0.00    -0.126 A  
HETATM   31  C   UNL     1     -12.461  13.701  63.447  1.00  0.00    -0.047 A  
HETATM   32  C   UNL     1     -11.356  14.028  64.229  1.00  0.00    -0.277 A  
HETATM   33  C   UNL     1     -10.492  13.023  64.668  1.00  0.00    -0.400 A  
ENDBRANCH  25  28
ENDBRANCH  22  25
ENDBRANCH  10  21
TORSDOF 6
ENDMDL
MODEL      115
REMARK 921   NORMALIZED FREE ENERGY PREDICTED BY IDOCK:   -5.18 KCAL/MOL
REMARK 922        TOTAL FREE ENERGY PREDICTED BY IDOCK:   -8.04 KCAL/MOL
REMARK 923 INTER-LIGAND FREE ENERGY PREDICTED BY IDOCK:   -7.34 KCAL/MOL
REMARK 924 INTRA-LIGAND FREE ENERGY PREDICTED BY IDOCK:   -0.70 KCAL/MOL
REMARK 927      BINDING AFFINITY PREDICTED BY RF-SCORE:    0.00 PKD
ROOT
HETATM    1  C   UNL     1     -10.377   8.682  69.218  1.00  0.00    -0.221 C  
HETATM    2  S   UNL     1     -10.862   9.338  67.600  1.00  0.00    -0.001 SA 
HETATM    3  C   UNL     1      -9.965   8.060  66.695  1.00  0.00    -0.256 C  
HETATM    4  C   UNL     1      -8.526   7.847  67.152  1.00  0.00    -0.117 C  
HETATM    5  O   UNL     1      -6.216   8.166  69.979  1.00  0.00    -0.032 OA 
HETATM    6  CA  UNL     1      -8.058   8.215  68.384  1.00  0.00    -0.128 C  
HETATM    7  N   UNL     1      -8.928   8.711  69.316  1.00  0.00    -0.144 N  
HETATM    8  O   UNL     1      -7.913   9.645  71.180  1.00  0.00    -0.275 OA 
HETATM    9  C   UNL     1      -6.573   8.155  68.685  1.00  0.00    -0.058 C  
HETATM   10  CA  UNL     1     -10.410   9.713  70.397  1.00  0.00    -0.291 C  
HETATM   11  C   UNL     1      -8.874   9.395  70.484  1.00  0.00    -0.239 C  
HETATM   12  OXT UNL     1      -5.709   8.035  67.828  1.00  0.00    -0.036 OA 
ENDROOT
BRANCH   4  13
HETATM   13  C   UNL     1      -7.683   7.302  66.001  1.00  0.00    -0.095 C  
BRANCH  13  14
HETATM   14  S   UNL     1      -6.939   8.541  64.912  1.00  0.00    -0.073 SA 
BRANCH  14  15
HETATM   15  C   UNL     1      -8.188   9.685  64.641  1.00  0.00    -0.149 A  
HETATM   16  N   UNL     1      -9.145   9.642  63.747  1.00  0.00    -0.226 NA 
HETATM   17  C   UNL     1      -7.518  11.330  66.446  1.00  0.00    -0.064 C  
HETATM   18  N   UNL     1      -9.857  10.811  63.903  1.00  0.00    -0.305 NA 
HETATM   19  N   UNL     1      -9.346  11.547  64.881  1.00  0.00    -0.132 NA 
HETATM   20  N   UNL     1      -8.306  10.842  65.351  1.00  0.00    -0.142 NA 
ENDBRANCH  14  15
ENDBRANCH  13  14
ENDBRANCH   4  13
BRANCH  10  21
HETATM   21  N   UNL     1     -10.749  11.101  70.010  1.00  0.00    -0.419 N  
HETATM   22  C   UNL     1     -11.943  11.728  70.296  1.00  0.00    -0.343 C  
HETATM   23  O   UNL     1     -12.877  11.171  70.864  1.00  0.00    -0.334 OA 
HETATM   24  H   UNL     1     -10.048  11.633  69.494  1.00  0.00     0.000 HD 
BRANCH  22  25
HETATM   25  C   UNL     1     -11.959  13.205  69.845  1.00  0.00    -0.317 C  
HETATM   26  H   UNL     1     -10.650  14.514  69.167  1.00  0.00     0.000 HD 
HETATM   27  O   UNL     1     -10.640  13.605  69.444  1.00  0.00    -0.047 OA 
BRANCH  25  28
HETATM   28  C   UNL     1     -12.450  14.126  70.940  1.00  0.00    -0.436 A  
HETATM   29  C   UNL     1     -13.826  14.247  71.184  1.00  0.00    -0.199 A  
HETATM   30  C   UNL     1     -14.299  15.095  72.187  1.00  0.00    -0.647 A  
HETATM   31  C   UNL     1     -13.404  15.825  72.966  1.00  0.00    -0.679 A  
HETATM   32  C   UNL     1     -12.034  15.702  72.750  1.00  0.00    -0.590 A  
HETATM   33  C   UNL     1     -11.559  14.855  71.746  1.00  0.00    -0.344 A  
ENDBRANCH  25  28
ENDBRANCH  22  25
ENDBRANCH  10  21
TORSDOF 6
ENDMDL
MODEL      116
REMARK 921   NORMALIZED FREE ENERGY PREDICTED BY IDOCK:   -5.18 KCAL/MOL
REMARK 922        TOTAL FREE ENERGY PREDICTED BY IDOCK:   -8.03 KCAL/MOL
REMARK 923 INTER-LIGAND FREE ENERGY PREDICTED BY IDOCK:   -6.69 KCAL/MOL
REMARK 924 INTRA-LIGAND FREE ENERGY PREDICTED BY IDOCK:   -1.34 KCAL/MOL
REMARK 927      BINDING AFFINITY PREDICTED BY RF-SCORE:    0.00 PKD
ROOT
HETATM    1  C   UNL     1      -7.941   7.884  69.331  1.00  0.00    -0.117 C  
HETATM    2  S   UNL     1      -7.567   9.392  70.265  1.00  0.00    -0.154 SA 
HETATM    3  C   UNL     1      -8.044   8.658  71.843  1.00  0.00    -0.088 C  
HETATM    4  C   UNL     1      -9.394   7.952  71.835  1.00  0.00    -0.204 C  
HETATM    5  O   UNL     1     -11.847   6.227  69.728  1.00  0.00    -0.319 OA 
HETATM    6  CA  UNL     1     -10.006   7.495  70.700  1.00  0.00    -0.183 C  
HETATM    7  N   UNL     1      -9.348   7.568  69.503  1.00  0.00    -0.153 N  
HETATM    8  O   UNL     1     -10.669   7.123  67.650  1.00  0.00    -0.240 OA 
HETATM    9  C   UNL     1     -11.435   6.989  70.755  1.00  0.00    -0.318 C  
HETATM   10  CA  UNL     1      -8.244   8.097  67.809  1.00  0.00    -0.128 C  
HETATM   11  C   UNL     1      -9.642   7.485  68.183  1.00  0.00    -0.148 C  
HETATM   12  OXT UNL     1     -12.190   7.183  71.695  1.00  0.00    -0.312 OA 
ENDROOT
BRANCH   4  13
HETATM   13  C   UNL     1     -10.002   7.962  73.237  1.00  0.00    -0.263 C  
BRANCH  13  14
HETATM   14  S   UNL     1      -9.266   6.812  74.425  1.00  0.00    -0.219 SA 
BRANCH  14  15
HETATM   15  C   UNL     1      -8.926   5.403  73.509  1.00  0.00    -0.125 A  
HETATM   16  N   UNL     1      -7.778   5.022  73.005  1.00  0.00    -0.096 NA 
HETATM   17  C   UNL     1     -11.273   4.451  73.495  1.00  0.00    -0.288 C  
HETATM   18  N   UNL     1      -8.037   3.857  72.319  1.00  0.00    -0.083 NA 
HETATM   19  N   UNL     1      -9.319   3.530  72.412  1.00  0.00    -0.110 NA 
HETATM   20  N   UNL     1      -9.877   4.491  73.163  1.00  0.00    -0.134 NA 
ENDBRANCH  14  15
ENDBRANCH  13  14
ENDBRANCH   4  13
BRANCH  10  21
HETATM   21  N   UNL     1      -8.268   9.508  67.362  1.00  0.00    -0.113 N  
HETATM   22  C   UNL     1      -8.537   9.921  66.076  1.00  0.00    -0.136 C  
HETATM   23  O   UNL     1      -8.738   9.145  65.147  1.00  0.00    -0.175 OA 
HETATM   24  H   UNL     1      -8.070  10.228  68.058  1.00  0.00     0.000 HD 
BRANCH  22  25
HETATM   25  C   UNL     1      -8.583  11.459  65.945  1.00  0.00    -0.049 C  
HETATM   26  H   UNL     1      -8.221  13.011  67.107  1.00  0.00     0.000 HD 
HETATM   27  O   UNL     1      -8.193  12.065  67.187  1.00  0.00    -0.168 OA 
BRANCH  25  28
HETATM   28  C   UNL     1      -9.958  11.955  65.556  1.00  0.00    -0.266 A  
HETATM   29  C   UNL     1     -10.864  12.349  66.551  1.00  0.00    -0.284 A  
HETATM   30  C   UNL     1     -12.140  12.806  66.211  1.00  0.00    -0.400 A  
HETATM   31  C   UNL     1     -12.522  12.883  64.873  1.00  0.00    -0.540 A  
HETATM   32  C   UNL     1     -11.627  12.514  63.872  1.00  0.00    -0.516 A  
HETATM   33  C   UNL     1     -10.352  12.057  64.210  1.00  0.00    -0.357 A  
ENDBRANCH  25  28
ENDBRANCH  22  25
ENDBRANCH  10  21
TORSDOF 6
ENDMDL
MODEL      117
REMARK 921   NORMALIZED FREE ENERGY PREDICTED BY IDOCK:   -5.15 KCAL/MOL
REMARK 922        TOTAL FREE ENERGY PREDICTED BY IDOCK:   -8.00 KCAL/MOL
REMARK 923 INTER-LIGAND FREE ENERGY PREDICTED BY IDOCK:   -7.28 KCAL/MOL
REMARK 924 INTRA-LIGAND FREE ENERGY PREDICTED BY IDOCK:   -0.73 KCAL/MOL
REMARK 927      BINDING AFFINITY PREDICTED BY RF-SCORE:    0.00 PKD
ROOT
HETATM    1  C   UNL     1     -10.202  10.762  68.202  1.00  0.00    -0.172 C  
HETATM    2  S   UNL     1      -8.948  11.963  67.679  1.00  0.00    -0.177 SA 
HETATM    3  C   UNL     1      -7.688  10.696  67.426  1.00  0.00    -0.106 C  
HETATM    4  C   UNL     1      -7.527   9.718  68.585  1.00  0.00    -0.075 C  
HETATM    5  O   UNL     1      -9.225   8.166  71.438  1.00  0.00    -0.137 OA 
HETATM    6  CA  UNL     1      -8.493   9.490  69.526  1.00  0.00    -0.155 C  
HETATM    7  N   UNL     1      -9.721  10.077  69.389  1.00  0.00    -0.213 N  
HETATM    8  O   UNL     1     -11.084   9.904  71.256  1.00  0.00    -0.351 OA 
HETATM    9  C   UNL     1      -8.178   8.660  70.756  1.00  0.00    -0.142 C  
HETATM   10  CA  UNL     1     -11.357  11.342  69.087  1.00  0.00    -0.288 C  
HETATM   11  C   UNL     1     -10.811  10.326  70.154  1.00  0.00    -0.302 C  
HETATM   12  OXT UNL     1      -7.045   8.372  71.111  1.00  0.00    -0.053 OA 
ENDROOT
BRANCH   4  13
HETATM   13  C   UNL     1      -6.106   9.159  68.607  1.00  0.00    -0.045 C  
BRANCH  13  14
HETATM   14  S   UNL     1      -5.460   8.578  67.019  1.00  0.00    -0.038 SA 
BRANCH  14  15
HETATM   15  C   UNL     1      -6.452   7.239  66.614  1.00  0.00    -0.052 A  
HETATM   16  N   UNL     1      -7.118   6.451  67.421  1.00  0.00    -0.075 NA 
HETATM   17  C   UNL     1      -6.143   7.355  64.102  1.00  0.00    -0.044 C  
HETATM   18  N   UNL     1      -7.715   5.506  66.616  1.00  0.00    -0.099 NA 
HETATM   19  N   UNL     1      -7.423   5.722  65.341  1.00  0.00    -0.076 NA 
HETATM   20  N   UNL     1      -6.640   6.810  65.334  1.00  0.00    -0.049 NA 
ENDBRANCH  14  15
ENDBRANCH  13  14
ENDBRANCH   4  13
BRANCH  10  21
HETATM   21  N   UNL     1     -11.219  12.772  69.444  1.00  0.00    -0.430 N  
HETATM   22  C   UNL     1     -11.764  13.817  68.730  1.00  0.00    -0.356 C  
HETATM   23  O   UNL     1     -12.384  13.666  67.682  1.00  0.00    -0.257 OA 
HETATM   24  H   UNL     1     -10.682  13.001  70.281  1.00  0.00     0.000 HD 
BRANCH  22  25
HETATM   25  C   UNL     1     -11.528  15.185  69.408  1.00  0.00    -0.306 C  
HETATM   26  H   UNL     1      -9.974  16.266  69.957  1.00  0.00     0.000 HD 
HETATM   27  O   UNL     1     -10.119  15.425  69.540  1.00  0.00    -0.245 OA 
BRANCH  25  28
HETATM   28  C   UNL     1     -12.179  15.261  70.771  1.00  0.00    -0.411 A  
HETATM   29  C   UNL     1     -13.342  14.522  71.031  1.00  0.00    -0.384 A  
HETATM   30  C   UNL     1     -13.959  14.583  72.282  1.00  0.00    -0.600 A  
HETATM   31  C   UNL     1     -13.418  15.376  73.291  1.00  0.00    -0.467 A  
HETATM   32  C   UNL     1     -12.253  16.102  73.056  1.00  0.00    -0.641 A  
HETATM   33  C   UNL     1     -11.635  16.043  71.806  1.00  0.00    -0.534 A  
ENDBRANCH  25  28
ENDBRANCH  22  25
ENDBRANCH  10  21
TORSDOF 6
ENDMDL
MODEL      118
REMARK 921   NORMALIZED FREE ENERGY PREDICTED BY IDOCK:   -5.15 KCAL/MOL
REMARK 922        TOTAL FREE ENERGY PREDICTED BY IDOCK:   -7.99 KCAL/MOL
REMARK 923 INTER-LIGAND FREE ENERGY PREDICTED BY IDOCK:   -7.17 KCAL/MOL
REMARK 924 INTRA-LIGAND FREE ENERGY PREDICTED BY IDOCK:   -0.82 KCAL/MOL
REMARK 927      BINDING AFFINITY PREDICTED BY RF-SCORE:    0.00 PKD
ROOT
HETATM    1  C   UNL     1      -8.636  10.382  67.796  1.00  0.00    -0.122 C  
HETATM    2  S   UNL     1      -9.647  11.087  69.125  1.00  0.00     0.019 SA 
HETATM    3  C   UNL     1      -9.448   9.641  70.186  1.00  0.00    -0.253 C  
HETATM    4  C   UNL     1      -9.719   8.306  69.502  1.00  0.00    -0.174 C  
HETATM    5  O   UNL     1      -9.747   6.556  66.281  1.00  0.00    -0.122 OA 
HETATM    6  CA  UNL     1      -9.671   8.124  68.147  1.00  0.00    -0.161 C  
HETATM    7  N   UNL     1      -9.259   9.151  67.342  1.00  0.00    -0.130 N  
HETATM    8  O   UNL     1      -9.616   8.802  65.078  1.00  0.00     0.192 OA 
HETATM    9  C   UNL     1     -10.151   6.822  67.534  1.00  0.00    -0.170 C  
HETATM   10  CA  UNL     1      -8.906  10.966  66.368  1.00  0.00    -0.171 C  
HETATM   11  C   UNL     1      -9.301   9.483  66.029  1.00  0.00    -0.216 C  
HETATM   12  OXT UNL     1     -10.819   5.993  68.135  1.00  0.00    -0.275 OA 
ENDROOT
BRANCH   4  13
HETATM   13  C   UNL     1     -10.177   7.272  70.528  1.00  0.00    -0.196 C  
BRANCH  13  14
HETATM   14  S   UNL     1     -10.747   7.931  72.114  1.00  0.00    -0.280 SA 
BRANCH  14  15
HETATM   15  C   UNL     1      -9.419   7.705  73.177  1.00  0.00    -0.243 A  
HETATM   16  N   UNL     1      -8.501   8.575  73.521  1.00  0.00    -0.370 NA 
HETATM   17  C   UNL     1      -9.869   5.279  73.748  1.00  0.00    -0.162 C  
HETATM   18  N   UNL     1      -7.635   7.898  74.351  1.00  0.00    -0.171 NA 
HETATM   19  N   UNL     1      -8.026   6.641  74.516  1.00  0.00    -0.121 NA 
HETATM   20  N   UNL     1      -9.147   6.519  73.789  1.00  0.00    -0.130 NA 
ENDBRANCH  14  15
ENDBRANCH  13  14
ENDBRANCH   4  13
BRANCH  10  21
HETATM   21  N   UNL     1     -10.008  11.951  66.287  1.00  0.00    -0.215 N  
HETATM   22  C   UNL     1     -10.659  12.309  65.127  1.00  0.00    -0.285 C  
HETATM   23  O   UNL     1     -10.351  11.878  64.021  1.00  0.00    -0.302 OA 
HETATM   24  H   UNL     1     -10.307  12.397  67.155  1.00  0.00     0.000 HD 
BRANCH  22  25
HETATM   25  C   UNL     1     -11.827  13.288  65.382  1.00  0.00    -0.359 C  
HETATM   26  H   UNL     1     -13.034  14.398  64.289  1.00  0.00     0.000 HD 
HETATM   27  O   UNL     1     -12.316  13.796  64.132  1.00  0.00    -0.604 OA 
BRANCH  25  28
HETATM   28  C   UNL     1     -11.415  14.443  66.266  1.00  0.00    -0.361 A  
HETATM   29  C   UNL     1     -11.801  14.462  67.615  1.00  0.00    -0.412 A  
HETATM   30  C   UNL     1     -11.433  15.522  68.446  1.00  0.00    -0.370 A  
HETATM   31  C   UNL     1     -10.669  16.573  67.943  1.00  0.00    -0.337 A  
HETATM   32  C   UNL     1     -10.261  16.561  66.611  1.00  0.00    -0.302 A  
HETATM   33  C   UNL     1     -10.628  15.502  65.779  1.00  0.00    -0.370 A  
ENDBRANCH  25  28
ENDBRANCH  22  25
ENDBRANCH  10  21
TORSDOF 6
ENDMDL
MODEL      119
REMARK 921   NORMALIZED FREE ENERGY PREDICTED BY IDOCK:   -5.14 KCAL/MOL
REMARK 922        TOTAL FREE ENERGY PREDICTED BY IDOCK:   -7.98 KCAL/MOL
REMARK 923 INTER-LIGAND FREE ENERGY PREDICTED BY IDOCK:   -7.00 KCAL/MOL
REMARK 924 INTRA-LIGAND FREE ENERGY PREDICTED BY IDOCK:   -0.98 KCAL/MOL
REMARK 927      BINDING AFFINITY PREDICTED BY RF-SCORE:    0.00 PKD
ROOT
HETATM    1  C   UNL     1     -10.068   8.891  68.852  1.00  0.00    -0.197 C  
HETATM    2  S   UNL     1     -10.655   9.511  67.253  1.00  0.00    -0.205 SA 
HETATM    3  C   UNL     1      -9.695   8.305  66.314  1.00  0.00    -0.183 C  
HETATM    4  C   UNL     1      -8.231   8.200  66.722  1.00  0.00    -0.107 C  
HETATM    5  O   UNL     1      -5.857   8.689  69.471  1.00  0.00    -0.030 OA 
HETATM    6  CA  UNL     1      -7.751   8.601  67.939  1.00  0.00    -0.102 C  
HETATM    7  N   UNL     1      -8.623   9.029  68.901  1.00  0.00    -0.130 N  
HETATM    8  O   UNL     1      -7.619  10.035  70.733  1.00  0.00    -0.265 OA 
HETATM    9  C   UNL     1      -6.255   8.653  68.189  1.00  0.00    -0.051 C  
HETATM   10  CA  UNL     1     -10.139   9.916  70.034  1.00  0.00    -0.260 C  
HETATM   11  C   UNL     1      -8.581   9.714  70.069  1.00  0.00    -0.215 C  
HETATM   12  OXT UNL     1      -5.414   8.599  67.304  1.00  0.00    -0.037 OA 
ENDROOT
BRANCH   4  13
HETATM   13  C   UNL     1      -7.389   7.721  65.541  1.00  0.00    -0.073 C  
BRANCH  13  14
HETATM   14  S   UNL     1      -7.480   5.952  65.170  1.00  0.00    -0.083 SA 
BRANCH  14  15
HETATM   15  C   UNL     1      -7.624   5.197  66.703  1.00  0.00    -0.088 A  
HETATM   16  N   UNL     1      -6.738   5.147  67.668  1.00  0.00    -0.054 NA 
HETATM   17  C   UNL     1      -9.970   4.290  66.399  1.00  0.00    -0.203 C  
HETATM   18  N   UNL     1      -7.311   4.388  68.665  1.00  0.00    -0.059 NA 
HETATM   19  N   UNL     1      -8.527   3.991  68.315  1.00  0.00    -0.091 NA 
HETATM   20  N   UNL     1      -8.730   4.502  67.091  1.00  0.00    -0.104 NA 
ENDBRANCH  14  15
ENDBRANCH  13  14
ENDBRANCH   4  13
BRANCH  10  21
HETATM   21  N   UNL     1     -10.595  11.275  69.664  1.00  0.00    -0.454 N  
HETATM   22  C   UNL     1     -11.766  11.857  70.097  1.00  0.00    -0.253 C  
HETATM   23  O   UNL     1     -12.585  11.278  70.804  1.00  0.00    -0.344 OA 
HETATM   24  H   UNL     1      -9.997  11.821  69.042  1.00  0.00     0.000 HD 
BRANCH  22  25
HETATM   25  C   UNL     1     -11.914  13.317  69.617  1.00  0.00    -0.314 C  
HETATM   26  H   UNL     1     -10.764  14.674  68.767  1.00  0.00     0.000 HD 
HETATM   27  O   UNL     1     -10.672  13.776  69.063  1.00  0.00    -0.240 OA 
BRANCH  25  28
HETATM   28  C   UNL     1     -12.336  14.243  70.737  1.00  0.00    -0.427 A  
HETATM   29  C   UNL     1     -13.675  14.269  71.153  1.00  0.00    -0.255 A  
HETATM   30  C   UNL     1     -14.083  15.119  72.183  1.00  0.00    -0.654 A  
HETATM   31  C   UNL     1     -13.158  15.947  72.815  1.00  0.00    -0.580 A  
HETATM   32  C   UNL     1     -11.821  15.919  72.427  1.00  0.00    -0.618 A  
HETATM   33  C   UNL     1     -11.411  15.070  71.397  1.00  0.00    -0.327 A  
ENDBRANCH  25  28
ENDBRANCH  22  25
ENDBRANCH  10  21
TORSDOF 6
ENDMDL
MODEL      120
REMARK 921   NORMALIZED FREE ENERGY PREDICTED BY IDOCK:   -5.14 KCAL/MOL
REMARK 922        TOTAL FREE ENERGY PREDICTED BY IDOCK:   -7.98 KCAL/MOL
REMARK 923 INTER-LIGAND FREE ENERGY PREDICTED BY IDOCK:   -7.01 KCAL/MOL
REMARK 924 INTRA-LIGAND FREE ENERGY PREDICTED BY IDOCK:   -0.97 KCAL/MOL
REMARK 927      BINDING AFFINITY PREDICTED BY RF-SCORE:    0.00 PKD
ROOT
HETATM    1  C   UNL     1      -9.341  10.401  68.585  1.00  0.00    -0.167 C  
HETATM    2  S   UNL     1      -8.666   8.768  68.179  1.00  0.00    -0.134 SA 
HETATM    3  C   UNL     1      -7.726   9.391  66.770  1.00  0.00    -0.098 C  
HETATM    4  C   UNL     1      -8.523  10.267  65.810  1.00  0.00    -0.161 C  
HETATM    5  O   UNL     1     -11.407  12.509  65.512  1.00  0.00    -0.305 OA 
HETATM    6  CA  UNL     1      -9.677  10.916  66.154  1.00  0.00    -0.210 C  
HETATM    7  N   UNL     1     -10.111  10.881  67.451  1.00  0.00    -0.186 N  
HETATM    8  O   UNL     1     -12.262  11.685  67.770  1.00  0.00    -0.560 OA 
HETATM    9  C   UNL     1     -10.515  11.598  65.089  1.00  0.00    -0.279 C  
HETATM   10  CA  UNL     1     -10.678  10.389  69.401  1.00  0.00    -0.244 C  
HETATM   11  C   UNL     1     -11.247  11.138  68.143  1.00  0.00    -0.292 C  
HETATM   12  OXT UNL     1     -10.377  11.410  63.890  1.00  0.00    -0.308 OA 
ENDROOT
BRANCH   4  13
HETATM   13  C   UNL     1      -7.922  10.193  64.408  1.00  0.00    -0.153 C  
BRANCH  13  14
HETATM   14  S   UNL     1      -8.314   8.702  63.458  1.00  0.00    -0.059 SA 
BRANCH  14  15
HETATM   15  C   UNL     1      -7.015   7.631  63.780  1.00  0.00    -0.060 A  
HETATM   16  N   UNL     1      -5.771   7.722  63.376  1.00  0.00    -0.053 NA 
HETATM   17  C   UNL     1      -8.307   5.965  65.183  1.00  0.00    -0.143 C  
HETATM   18  N   UNL     1      -5.137   6.597  63.857  1.00  0.00    -0.025 NA 
HETATM   19  N   UNL     1      -5.978   5.841  64.549  1.00  0.00    -0.024 NA 
HETATM   20  N   UNL     1      -7.153   6.489  64.510  1.00  0.00    -0.057 NA 
ENDBRANCH  14  15
ENDBRANCH  13  14
ENDBRANCH   4  13
BRANCH  10  21
HETATM   21  N   UNL     1     -11.250   9.047  69.653  1.00  0.00    -0.434 N  
HETATM   22  C   UNL     1     -11.423   8.487  70.900  1.00  0.00    -0.267 C  
HETATM   23  O   UNL     1     -11.066   9.033  71.939  1.00  0.00    -0.355 OA 
HETATM   24  H   UNL     1     -11.539   8.496  68.844  1.00  0.00     0.000 HD 
BRANCH  22  25
HETATM   25  C   UNL     1     -12.133   7.116  70.841  1.00  0.00    -0.326 C  
HETATM   26  H   UNL     1     -13.817   6.341  71.511  1.00  0.00     0.000 HD 
HETATM   27  O   UNL     1     -13.381   7.184  71.547  1.00  0.00    -0.383 OA 
BRANCH  25  28
HETATM   28  C   UNL     1     -11.283   6.012  71.430  1.00  0.00    -0.325 A  
HETATM   29  C   UNL     1     -11.495   5.599  72.753  1.00  0.00    -0.328 A  
HETATM   30  C   UNL     1     -10.718   4.584  73.315  1.00  0.00    -0.312 A  
HETATM   31  C   UNL     1      -9.726   3.963  72.560  1.00  0.00    -0.202 A  
HETATM   32  C   UNL     1      -9.515   4.348  71.239  1.00  0.00    -0.224 A  
HETATM   33  C   UNL     1     -10.291   5.363  70.675  1.00  0.00    -0.333 A  
ENDBRANCH  25  28
ENDBRANCH  22  25
ENDBRANCH  10  21
TORSDOF 6
ENDMDL
MODEL      121
REMARK 921   NORMALIZED FREE ENERGY PREDICTED BY IDOCK:   -5.13 KCAL/MOL
REMARK 922        TOTAL FREE ENERGY PREDICTED BY IDOCK:   -7.98 KCAL/MOL
REMARK 923 INTER-LIGAND FREE ENERGY PREDICTED BY IDOCK:   -7.10 KCAL/MOL
REMARK 924 INTRA-LIGAND FREE ENERGY PREDICTED BY IDOCK:   -0.87 KCAL/MOL
REMARK 927      BINDING AFFINITY PREDICTED BY RF-SCORE:    0.00 PKD
ROOT
HETATM    1  C   UNL     1     -10.807   7.940  70.277  1.00  0.00    -0.241 C  
HETATM    2  S   UNL     1     -10.634   7.876  68.474  1.00  0.00    -0.042 SA 
HETATM    3  C   UNL     1     -10.187   6.127  68.473  1.00  0.00    -0.185 C  
HETATM    4  C   UNL     1      -9.095   5.749  69.467  1.00  0.00    -0.143 C  
HETATM    5  O   UNL     1      -7.490   6.669  72.630  1.00  0.00    -0.091 OA 
HETATM    6  CA  UNL     1      -8.777   6.497  70.567  1.00  0.00    -0.144 C  
HETATM    7  N   UNL     1      -9.532   7.594  70.879  1.00  0.00    -0.164 N  
HETATM    8  O   UNL     1      -8.623   8.953  72.523  1.00  0.00    -0.396 OA 
HETATM    9  C   UNL     1      -7.547   6.160  71.389  1.00  0.00    -0.099 C  
HETATM   10  CA  UNL     1     -10.647   9.361  70.915  1.00  0.00    -0.320 C  
HETATM   11  C   UNL     1      -9.436   8.695  71.663  1.00  0.00    -0.269 C  
HETATM   12  OXT UNL     1      -6.658   5.413  71.008  1.00  0.00    -0.040 OA 
ENDROOT
BRANCH   4  13
HETATM   13  C   UNL     1      -8.341   4.516  68.974  1.00  0.00    -0.079 C  
BRANCH  13  14
HETATM   14  S   UNL     1      -7.328   4.748  67.492  1.00  0.00    -0.075 SA 
BRANCH  14  15
HETATM   15  C   UNL     1      -8.285   4.123  66.214  1.00  0.00    -0.105 A  
HETATM   16  N   UNL     1      -8.811   2.927  66.105  1.00  0.00    -0.138 NA 
HETATM   17  C   UNL     1      -8.272   6.194  64.755  1.00  0.00    -0.112 C  
HETATM   18  N   UNL     1      -9.443   2.904  64.882  1.00  0.00    -0.147 NA 
HETATM   19  N   UNL     1      -9.311   4.068  64.261  1.00  0.00    -0.151 NA 
HETATM   20  N   UNL     1      -8.594   4.837  65.095  1.00  0.00    -0.134 NA 
ENDBRANCH  14  15
ENDBRANCH  13  14
ENDBRANCH   4  13
BRANCH  10  21
HETATM   21  N   UNL     1     -10.291  10.442  69.967  1.00  0.00    -0.429 N  
HETATM   22  C   UNL     1     -11.199  11.193  69.254  1.00  0.00    -0.267 C  
HETATM   23  O   UNL     1     -12.411  11.004  69.296  1.00  0.00    -0.412 OA 
HETATM   24  H   UNL     1      -9.300  10.645  69.832  1.00  0.00     0.000 HD 
BRANCH  22  25
HETATM   25  C   UNL     1     -10.524  12.306  68.423  1.00  0.00    -0.233 C  
HETATM   26  H   UNL     1     -10.402  14.272  68.487  1.00  0.00     0.000 HD 
HETATM   27  O   UNL     1     -10.817  13.588  68.999  1.00  0.00    -0.246 OA 
BRANCH  25  28
HETATM   28  C   UNL     1     -10.977  12.289  66.980  1.00  0.00    -0.314 A  
HETATM   29  C   UNL     1     -11.978  13.174  66.553  1.00  0.00    -0.459 A  
HETATM   30  C   UNL     1     -12.412  13.170  65.226  1.00  0.00    -0.550 A  
HETATM   31  C   UNL     1     -11.845  12.290  64.306  1.00  0.00    -0.482 A  
HETATM   32  C   UNL     1     -10.836  11.419  64.709  1.00  0.00    -0.339 A  
HETATM   33  C   UNL     1     -10.402  11.420  66.036  1.00  0.00    -0.297 A  
ENDBRANCH  25  28
ENDBRANCH  22  25
ENDBRANCH  10  21
TORSDOF 6
ENDMDL
MODEL      122
REMARK 921   NORMALIZED FREE ENERGY PREDICTED BY IDOCK:   -5.10 KCAL/MOL
REMARK 922        TOTAL FREE ENERGY PREDICTED BY IDOCK:   -7.92 KCAL/MOL
REMARK 923 INTER-LIGAND FREE ENERGY PREDICTED BY IDOCK:   -8.25 KCAL/MOL
REMARK 924 INTRA-LIGAND FREE ENERGY PREDICTED BY IDOCK:    0.33 KCAL/MOL
REMARK 927      BINDING AFFINITY PREDICTED BY RF-SCORE:    0.00 PKD
ROOT
HETATM    1  C   UNL     1     -10.393  15.050  67.959  1.00  0.00    -0.236 C  
HETATM    2  S   UNL     1      -9.761  13.353  67.883  1.00  0.00    -0.232 SA 
HETATM    3  C   UNL     1      -8.160  13.807  68.581  1.00  0.00    -0.084 C  
HETATM    4  C   UNL     1      -7.498  15.013  67.925  1.00  0.00    -0.150 C  
HETATM    5  O   UNL     1      -8.112  18.100  66.048  1.00  0.00    -0.477 OA 
HETATM    6  CA  UNL     1      -8.179  15.956  67.206  1.00  0.00    -0.185 C  
HETATM    7  N   UNL     1      -9.545  15.899  67.142  1.00  0.00    -0.216 N  
HETATM    8  O   UNL     1     -10.494  17.320  65.575  1.00  0.00    -0.609 OA 
HETATM    9  C   UNL     1      -7.423  17.008  66.417  1.00  0.00    -0.301 C  
HETATM   10  CA  UNL     1     -11.560  15.374  66.965  1.00  0.00    -0.021 C  
HETATM   11  C   UNL     1     -10.542  16.425  66.391  1.00  0.00    -0.236 C  
HETATM   12  OXT UNL     1      -6.229  16.941  66.164  1.00  0.00    -0.201 OA 
ENDROOT
BRANCH   4  13
HETATM   13  C   UNL     1      -5.980  14.925  68.074  1.00  0.00    -0.148 C  
BRANCH  13  14
HETATM   14  S   UNL     1      -5.289  13.255  68.166  1.00  0.00    -0.111 SA 
BRANCH  14  15
HETATM   15  C   UNL     1      -5.354  12.852  69.832  1.00  0.00    -0.093 A  
HETATM   16  N   UNL     1      -5.306  13.660  70.863  1.00  0.00    -0.143 NA 
HETATM   17  C   UNL     1      -5.537  10.342  69.552  1.00  0.00    -0.038 C  
HETATM   18  N   UNL     1      -5.344  12.851  71.976  1.00  0.00    -0.388 NA 
HETATM   19  N   UNL     1      -5.421  11.573  71.628  1.00  0.00    -0.348 NA 
HETATM   20  N   UNL     1      -5.436  11.571  70.286  1.00  0.00    -0.105 NA 
ENDBRANCH  14  15
ENDBRANCH  13  14
ENDBRANCH   4  13
BRANCH  10  21
HETATM   21  N   UNL     1     -11.926  14.276  66.042  1.00  0.00    -0.398 N  
HETATM   22  C   UNL     1     -11.251  13.965  64.883  1.00  0.00    -0.356 C  
HETATM   23  O   UNL     1     -10.293  14.610  64.467  1.00  0.00    -0.233 OA 
HETATM   24  H   UNL     1     -12.738  13.707  66.283  1.00  0.00     0.000 HD 
BRANCH  22  25
HETATM   25  C   UNL     1     -11.816  12.707  64.187  1.00  0.00    -0.410 C  
HETATM   26  H   UNL     1     -13.449  11.610  64.309  1.00  0.00     0.000 HD 
HETATM   27  O   UNL     1     -13.102  12.384  64.737  1.00  0.00    -0.806 OA 
BRANCH  25  28
HETATM   28  C   UNL     1     -10.895  11.517  64.331  1.00  0.00    -0.405 A  
HETATM   29  C   UNL     1     -10.127  11.092  63.237  1.00  0.00    -0.426 A  
HETATM   30  C   UNL     1      -9.273   9.993  63.350  1.00  0.00    -0.317 A  
HETATM   31  C   UNL     1      -9.170   9.309  64.560  1.00  0.00    -0.065 A  
HETATM   32  C   UNL     1      -9.911   9.729  65.662  1.00  0.00    -0.371 A  
HETATM   33  C   UNL     1     -10.765  10.828  65.550  1.00  0.00    -0.145 A  
ENDBRANCH  25  28
ENDBRANCH  22  25
ENDBRANCH  10  21
TORSDOF 6
ENDMDL
MODEL      123
REMARK 921   NORMALIZED FREE ENERGY PREDICTED BY IDOCK:   -5.09 KCAL/MOL
REMARK 922        TOTAL FREE ENERGY PREDICTED BY IDOCK:   -7.92 KCAL/MOL
REMARK 923 INTER-LIGAND FREE ENERGY PREDICTED BY IDOCK:   -6.92 KCAL/MOL
REMARK 924 INTRA-LIGAND FREE ENERGY PREDICTED BY IDOCK:   -1.00 KCAL/MOL
REMARK 927      BINDING AFFINITY PREDICTED BY RF-SCORE:    0.00 PKD
ROOT
HETATM    1  C   UNL     1      -7.940   9.720  70.282  1.00  0.00    -0.162 C  
HETATM    2  S   UNL     1      -9.730   9.463  70.412  1.00  0.00    -0.272 SA 
HETATM    3  C   UNL     1      -9.608   8.700  72.044  1.00  0.00    -0.314 C  
HETATM    4  C   UNL     1      -8.560   7.599  72.154  1.00  0.00    -0.148 C  
HETATM    5  O   UNL     1      -5.412   6.325  70.775  1.00  0.00    -0.017 OA 
HETATM    6  CA  UNL     1      -7.499   7.471  71.301  1.00  0.00    -0.079 C  
HETATM    7  N   UNL     1      -7.280   8.429  70.348  1.00  0.00    -0.037 N  
HETATM    8  O   UNL     1      -5.696   7.856  68.754  1.00  0.00    -0.029 OA 
HETATM    9  C   UNL     1      -6.621   6.235  71.355  1.00  0.00    -0.054 C  
HETATM   10  CA  UNL     1      -7.388   9.853  68.823  1.00  0.00    -0.078 C  
HETATM   11  C   UNL     1      -6.563   8.571  69.207  1.00  0.00    -0.046 C  
HETATM   12  OXT UNL     1      -6.927   5.208  71.941  1.00  0.00    -0.061 OA 
ENDROOT
BRANCH   4  13
HETATM   13  C   UNL     1      -8.951   6.609  73.250  1.00  0.00    -0.123 C  
BRANCH  13  14
HETATM   14  S   UNL     1     -10.459   5.653  72.950  1.00  0.00    -0.230 SA 
BRANCH  14  15
HETATM   15  C   UNL     1     -10.703   5.753  71.256  1.00  0.00    -0.258 A  
HETATM   16  N   UNL     1      -9.968   5.239  70.300  1.00  0.00    -0.219 NA 
HETATM   17  C   UNL     1     -12.813   7.153  71.314  1.00  0.00    -0.349 C  
HETATM   18  N   UNL     1     -10.554   5.640  69.119  1.00  0.00    -0.268 NA 
HETATM   19  N   UNL     1     -11.631   6.376  69.354  1.00  0.00    -0.315 NA 
HETATM   20  N   UNL     1     -11.733   6.442  70.690  1.00  0.00    -0.360 NA 
ENDBRANCH  14  15
ENDBRANCH  13  14
ENDBRANCH   4  13
BRANCH  10  21
HETATM   21  N   UNL     1      -8.390   9.664  67.749  1.00  0.00    -0.120 N  
HETATM   22  C   UNL     1      -8.506  10.462  66.633  1.00  0.00    -0.126 C  
HETATM   23  O   UNL     1      -7.812  11.456  66.439  1.00  0.00    -0.145 OA 
HETATM   24  H   UNL     1      -9.042   8.885  67.843  1.00  0.00     0.000 HD 
BRANCH  22  25
HETATM   25  C   UNL     1      -9.583   9.953  65.650  1.00  0.00    -0.256 C  
HETATM   26  H   UNL     1      -9.618   9.082  63.882  1.00  0.00     0.000 HD 
HETATM   27  O   UNL     1      -8.955   9.395  64.486  1.00  0.00    -0.216 OA 
BRANCH  25  28
HETATM   28  C   UNL     1     -10.531  11.054  65.229  1.00  0.00    -0.316 A  
HETATM   29  C   UNL     1     -11.285  11.734  66.196  1.00  0.00    -0.363 A  
HETATM   30  C   UNL     1     -12.168  12.750  65.826  1.00  0.00    -0.469 A  
HETATM   31  C   UNL     1     -12.303  13.105  64.486  1.00  0.00    -0.447 A  
HETATM   32  C   UNL     1     -11.548  12.453  63.514  1.00  0.00    -0.577 A  
HETATM   33  C   UNL     1     -10.665  11.437  63.882  1.00  0.00    -0.462 A  
ENDBRANCH  25  28
ENDBRANCH  22  25
ENDBRANCH  10  21
TORSDOF 6
ENDMDL
MODEL      124
REMARK 921   NORMALIZED FREE ENERGY PREDICTED BY IDOCK:   -5.07 KCAL/MOL
REMARK 922        TOTAL FREE ENERGY PREDICTED BY IDOCK:   -7.89 KCAL/MOL
REMARK 923 INTER-LIGAND FREE ENERGY PREDICTED BY IDOCK:   -6.73 KCAL/MOL
REMARK 924 INTRA-LIGAND FREE ENERGY PREDICTED BY IDOCK:   -1.16 KCAL/MOL
REMARK 927      BINDING AFFINITY PREDICTED BY RF-SCORE:    0.00 PKD
ROOT
HETATM    1  C   UNL     1     -10.364   7.131  71.437  1.00  0.00    -0.196 C  
HETATM    2  S   UNL     1     -11.392   6.845  69.971  1.00  0.00    -0.272 SA 
HETATM    3  C   UNL     1     -10.448   5.394  69.462  1.00  0.00    -0.273 C  
HETATM    4  C   UNL     1      -8.937   5.593  69.440  1.00  0.00    -0.124 C  
HETATM    5  O   UNL     1      -6.159   7.518  70.859  1.00  0.00    -0.035 OA 
HETATM    6  CA  UNL     1      -8.289   6.571  70.144  1.00  0.00    -0.134 C  
HETATM    7  N   UNL     1      -8.996   7.363  71.006  1.00  0.00    -0.151 N  
HETATM    8  O   UNL     1      -7.828   9.200  71.804  1.00  0.00    -0.343 OA 
HETATM    9  C   UNL     1      -6.813   6.829  69.909  1.00  0.00    -0.054 C  
HETATM   10  CA  UNL     1     -10.369   8.599  71.983  1.00  0.00    -0.346 C  
HETATM   11  C   UNL     1      -8.832   8.536  71.664  1.00  0.00    -0.207 C  
HETATM   12  OXT UNL     1      -6.190   6.397  68.950  1.00  0.00    -0.030 OA 
ENDROOT
BRANCH   4  13
HETATM   13  C   UNL     1      -8.296   4.647  68.427  1.00  0.00    -0.090 C  
BRANCH  13  14
HETATM   14  S   UNL     1      -7.897   2.989  69.035  1.00  0.00    -0.049 SA 
BRANCH  14  15
HETATM   15  C   UNL     1      -7.192   3.253  70.575  1.00  0.00    -0.037 A  
HETATM   16  N   UNL     1      -5.944   3.539  70.857  1.00  0.00    -0.014 NA 
HETATM   17  C   UNL     1      -9.285   2.895  71.957  1.00  0.00    -0.099 C  
HETATM   18  N   UNL     1      -5.874   3.604  72.231  1.00  0.00    -0.008 NA 
HETATM   19  N   UNL     1      -7.061   3.372  72.774  1.00  0.00    -0.043 NA 
HETATM   20  N   UNL     1      -7.890   3.160  71.741  1.00  0.00    -0.056 NA 
ENDBRANCH  14  15
ENDBRANCH  13  14
ENDBRANCH   4  13
BRANCH  10  21
HETATM   21  N   UNL     1     -11.145   9.569  71.176  1.00  0.00    -0.352 N  
HETATM   22  C   UNL     1     -12.370  10.088  71.535  1.00  0.00    -0.419 C  
HETATM   23  O   UNL     1     -12.972   9.754  72.551  1.00  0.00    -0.299 OA 
HETATM   24  H   UNL     1     -10.743   9.875  70.290  1.00  0.00     0.000 HD 
BRANCH  22  25
HETATM   25  C   UNL     1     -12.880  11.147  70.534  1.00  0.00    -0.132 C  
HETATM   26  H   UNL     1     -12.493  11.669  68.673  1.00  0.00     0.000 HD 
HETATM   27  O   UNL     1     -12.179  11.017  69.288  1.00  0.00    -0.369 OA 
BRANCH  25  28
HETATM   28  C   UNL     1     -12.710  12.554  71.061  1.00  0.00    -0.316 A  
HETATM   29  C   UNL     1     -11.793  13.422  70.449  1.00  0.00    -0.283 A  
HETATM   30  C   UNL     1     -11.619  14.723  70.924  1.00  0.00    -0.316 A  
HETATM   31  C   UNL     1     -12.364  15.177  72.010  1.00  0.00    -0.429 A  
HETATM   32  C   UNL     1     -13.292  14.335  72.617  1.00  0.00    -0.619 A  
HETATM   33  C   UNL     1     -13.467  13.033  72.144  1.00  0.00    -0.638 A  
ENDBRANCH  25  28
ENDBRANCH  22  25
ENDBRANCH  10  21
TORSDOF 6
ENDMDL
MODEL      125
REMARK 921   NORMALIZED FREE ENERGY PREDICTED BY IDOCK:   -5.07 KCAL/MOL
REMARK 922        TOTAL FREE ENERGY PREDICTED BY IDOCK:   -7.89 KCAL/MOL
REMARK 923 INTER-LIGAND FREE ENERGY PREDICTED BY IDOCK:   -6.15 KCAL/MOL
REMARK 924 INTRA-LIGAND FREE ENERGY PREDICTED BY IDOCK:   -1.74 KCAL/MOL
REMARK 927      BINDING AFFINITY PREDICTED BY RF-SCORE:    0.00 PKD
ROOT
HETATM    1  C   UNL     1     -10.829   9.487  67.833  1.00  0.00    -0.180 C  
HETATM    2  S   UNL     1      -9.304   8.511  67.751  1.00  0.00    -0.138 SA 
HETATM    3  C   UNL     1      -9.997   7.151  68.714  1.00  0.00    -0.163 C  
HETATM    4  C   UNL     1     -10.692   7.574  70.003  1.00  0.00    -0.248 C  
HETATM    5  O   UNL     1     -12.443  10.318  71.688  1.00  0.00    -0.389 OA 
HETATM    6  CA  UNL     1     -11.169   8.835  70.230  1.00  0.00    -0.195 C  
HETATM    7  N   UNL     1     -11.129   9.764  69.226  1.00  0.00    -0.192 N  
HETATM    8  O   UNL     1     -11.604  11.931  69.899  1.00  0.00    -0.296 OA 
HETATM    9  C   UNL     1     -11.662   9.228  71.611  1.00  0.00    -0.392 C  
HETATM   10  CA  UNL     1     -10.649  11.030  67.635  1.00  0.00    -0.217 C  
HETATM   11  C   UNL     1     -11.240  11.107  69.089  1.00  0.00    -0.264 C  
HETATM   12  OXT UNL     1     -11.440   8.579  72.622  1.00  0.00    -0.351 OA 
ENDROOT
BRANCH   4  13
HETATM   13  C   UNL     1     -10.644   6.438  71.023  1.00  0.00    -0.234 C  
BRANCH  13  14
HETATM   14  S   UNL     1      -8.993   5.866  71.493  1.00  0.00    -0.143 SA 
BRANCH  14  15
HETATM   15  C   UNL     1      -8.387   7.097  72.522  1.00  0.00    -0.108 A  
HETATM   16  N   UNL     1      -8.581   7.245  73.810  1.00  0.00    -0.150 NA 
HETATM   17  C   UNL     1      -7.115   8.398  70.759  1.00  0.00    -0.050 C  
HETATM   18  N   UNL     1      -7.928   8.407  74.157  1.00  0.00    -0.358 NA 
HETATM   19  N   UNL     1      -7.340   8.951  73.101  1.00  0.00    -0.334 NA 
HETATM   20  N   UNL     1      -7.618   8.130  72.077  1.00  0.00    -0.098 NA 
ENDBRANCH  14  15
ENDBRANCH  13  14
ENDBRANCH   4  13
BRANCH  10  21
HETATM   21  N   UNL     1      -9.248  11.488  67.494  1.00  0.00    -0.164 N  
HETATM   22  C   UNL     1      -8.841  12.803  67.549  1.00  0.00    -0.187 C  
HETATM   23  O   UNL     1      -9.618  13.744  67.670  1.00  0.00    -0.209 OA 
HETATM   24  H   UNL     1      -8.531  10.777  67.345  1.00  0.00     0.000 HD 
BRANCH  22  25
HETATM   25  C   UNL     1      -7.306  12.952  67.465  1.00  0.00    -0.154 C  
HETATM   26  H   UNL     1      -5.805  11.938  66.687  1.00  0.00     0.000 HD 
HETATM   27  O   UNL     1      -6.749  11.846  66.739  1.00  0.00    -0.112 OA 
BRANCH  25  28
HETATM   28  C   UNL     1      -6.668  13.025  68.834  1.00  0.00    -0.096 A  
HETATM   29  C   UNL     1      -6.104  11.873  69.403  1.00  0.00    -0.096 A  
HETATM   30  C   UNL     1      -5.514  11.920  70.668  1.00  0.00    -0.156 A  
HETATM   31  C   UNL     1      -5.472  13.119  71.376  1.00  0.00    -0.132 A  
HETATM   32  C   UNL     1      -6.010  14.276  70.817  1.00  0.00    -0.202 A  
HETATM   33  C   UNL     1      -6.601  14.231  69.553  1.00  0.00    -0.134 A  
ENDBRANCH  25  28
ENDBRANCH  22  25
ENDBRANCH  10  21
TORSDOF 6
ENDMDL
MODEL      126
REMARK 921   NORMALIZED FREE ENERGY PREDICTED BY IDOCK:   -5.05 KCAL/MOL
REMARK 922        TOTAL FREE ENERGY PREDICTED BY IDOCK:   -7.87 KCAL/MOL
REMARK 923 INTER-LIGAND FREE ENERGY PREDICTED BY IDOCK:   -7.05 KCAL/MOL
REMARK 924 INTRA-LIGAND FREE ENERGY PREDICTED BY IDOCK:   -0.81 KCAL/MOL
REMARK 927      BINDING AFFINITY PREDICTED BY RF-SCORE:    0.00 PKD
ROOT
HETATM    1  C   UNL     1      -9.356  12.165  68.384  1.00  0.00    -0.170 C  
HETATM    2  S   UNL     1     -10.981  12.139  67.581  1.00  0.00    -0.258 SA 
HETATM    3  C   UNL     1     -11.019  10.338  67.479  1.00  0.00    -0.280 C  
HETATM    4  C   UNL     1      -9.755   9.706  66.907  1.00  0.00    -0.240 C  
HETATM    5  O   UNL     1      -6.149  10.154  66.427  1.00  0.00    -0.062 OA 
HETATM    6  CA  UNL     1      -8.537  10.329  66.885  1.00  0.00    -0.126 C  
HETATM    7  N   UNL     1      -8.389  11.544  67.496  1.00  0.00    -0.138 N  
HETATM    8  O   UNL     1      -6.392  12.622  67.024  1.00  0.00    -0.212 OA 
HETATM    9  C   UNL     1      -7.381   9.716  66.117  1.00  0.00    -0.098 C  
HETATM   10  CA  UNL     1      -8.549  13.498  68.220  1.00  0.00    -0.168 C  
HETATM   11  C   UNL     1      -7.505  12.570  67.500  1.00  0.00    -0.151 C  
HETATM   12  OXT UNL     1      -7.508   8.820  65.296  1.00  0.00    -0.083 OA 
ENDROOT
BRANCH   4  13
HETATM   13  C   UNL     1     -10.086   8.365  66.254  1.00  0.00    -0.066 C  
BRANCH  13  14
HETATM   14  S   UNL     1     -10.585   7.039  67.381  1.00  0.00    -0.324 SA 
BRANCH  14  15
HETATM   15  C   UNL     1      -9.669   7.315  68.804  1.00  0.00    -0.151 A  
HETATM   16  N   UNL     1     -10.053   7.896  69.914  1.00  0.00    -0.193 NA 
HETATM   17  C   UNL     1      -7.500   6.284  67.999  1.00  0.00    -0.090 C  
HETATM   18  N   UNL     1      -8.944   7.917  70.731  1.00  0.00    -0.139 NA 
HETATM   19  N   UNL     1      -7.906   7.349  70.130  1.00  0.00    -0.098 NA 
HETATM   20  N   UNL     1      -8.358   6.964  68.927  1.00  0.00    -0.121 NA 
ENDBRANCH  14  15
ENDBRANCH  13  14
ENDBRANCH   4  13
BRANCH  10  21
HETATM   21  N   UNL     1      -9.188  14.520  67.360  1.00  0.00    -0.193 N  
HETATM   22  C   UNL     1     -10.074  15.478  67.803  1.00  0.00    -0.232 C  
HETATM   23  O   UNL     1     -10.466  15.547  68.963  1.00  0.00    -0.212 OA 
HETATM   24  H   UNL     1      -8.956  14.514  66.366  1.00  0.00     0.000 HD 
BRANCH  22  25
HETATM   25  C   UNL     1     -10.492  16.459  66.686  1.00  0.00    -0.274 C  
HETATM   26  H   UNL     1     -10.288  16.579  64.729  1.00  0.00     0.000 HD 
HETATM   27  O   UNL     1     -10.030  15.975  65.416  1.00  0.00    -0.445 OA 
BRANCH  25  28
HETATM   28  C   UNL     1      -9.947  17.850  66.921  1.00  0.00    -0.335 A  
HETATM   29  C   UNL     1     -10.415  18.922  66.146  1.00  0.00    -0.521 A  
HETATM   30  C   UNL     1      -9.921  20.213  66.346  1.00  0.00    -0.573 A  
HETATM   31  C   UNL     1      -8.961  20.451  67.328  1.00  0.00    -0.460 A  
HETATM   32  C   UNL     1      -8.501  19.401  68.118  1.00  0.00    -0.367 A  
HETATM   33  C   UNL     1      -8.993  18.110  67.920  1.00  0.00    -0.273 A  
ENDBRANCH  25  28
ENDBRANCH  22  25
ENDBRANCH  10  21
TORSDOF 6
ENDMDL
MODEL      127
REMARK 921   NORMALIZED FREE ENERGY PREDICTED BY IDOCK:   -5.03 KCAL/MOL
REMARK 922        TOTAL FREE ENERGY PREDICTED BY IDOCK:   -7.83 KCAL/MOL
REMARK 923 INTER-LIGAND FREE ENERGY PREDICTED BY IDOCK:   -6.78 KCAL/MOL
REMARK 924 INTRA-LIGAND FREE ENERGY PREDICTED BY IDOCK:   -1.05 KCAL/MOL
REMARK 927      BINDING AFFINITY PREDICTED BY RF-SCORE:    0.00 PKD
ROOT
HETATM    1  C   UNL     1     -10.473   8.155  69.631  1.00  0.00    -0.224 C  
HETATM    2  S   UNL     1     -10.393   8.503  67.854  1.00  0.00    -0.207 SA 
HETATM    3  C   UNL     1      -9.668   6.896  67.466  1.00  0.00    -0.134 C  
HETATM    4  C   UNL     1      -8.474   6.511  68.332  1.00  0.00    -0.120 C  
HETATM    5  O   UNL     1      -6.866   7.006  71.588  1.00  0.00    -0.059 OA 
HETATM    6  CA  UNL     1      -8.222   7.053  69.562  1.00  0.00    -0.132 C  
HETATM    7  N   UNL     1      -9.127   7.915  70.118  1.00  0.00    -0.152 N  
HETATM    8  O   UNL     1      -8.361   9.032  72.000  1.00  0.00    -0.366 OA 
HETATM    9  C   UNL     1      -6.909   6.767  70.267  1.00  0.00    -0.061 C  
HETATM   10  CA  UNL     1     -10.512   9.416  70.559  1.00  0.00    -0.274 C  
HETATM   11  C   UNL     1      -9.168   8.826  71.121  1.00  0.00    -0.237 C  
HETATM   12  OXT UNL     1      -5.932   6.282  69.715  1.00  0.00    -0.017 OA 
ENDROOT
BRANCH   4  13
HETATM   13  C   UNL     1      -7.557   5.557  67.569  1.00  0.00    -0.089 C  
BRANCH  13  14
HETATM   14  S   UNL     1      -8.017   3.807  67.622  1.00  0.00    -0.085 SA 
BRANCH  14  15
HETATM   15  C   UNL     1      -8.572   3.555  69.225  1.00  0.00    -0.069 A  
HETATM   16  N   UNL     1      -9.782   3.729  69.700  1.00  0.00    -0.172 NA 
HETATM   17  C   UNL     1      -6.365   2.811  70.220  1.00  0.00    -0.028 C  
HETATM   18  N   UNL     1      -9.702   3.440  71.044  1.00  0.00    -0.173 NA 
HETATM   19  N   UNL     1      -8.467   3.089  71.378  1.00  0.00    -0.063 NA 
HETATM   20  N   UNL     1      -7.759   3.152  70.241  1.00  0.00    -0.043 NA 
ENDBRANCH  14  15
ENDBRANCH  13  14
ENDBRANCH   4  13
BRANCH  10  21
HETATM   21  N   UNL     1     -10.391  10.717  69.861  1.00  0.00    -0.444 N  
HETATM   22  C   UNL     1     -11.447  11.429  69.337  1.00  0.00    -0.310 C  
HETATM   23  O   UNL     1     -12.605  11.025  69.351  1.00  0.00    -0.331 OA 
HETATM   24  H   UNL     1      -9.457  11.114  69.761  1.00  0.00     0.000 HD 
BRANCH  22  25
HETATM   25  C   UNL     1     -11.012  12.792  68.756  1.00  0.00    -0.250 C  
HETATM   26  H   UNL     1     -11.356  14.694  69.143  1.00  0.00     0.000 HD 
HETATM   27  O   UNL     1     -11.624  13.856  69.501  1.00  0.00    -0.269 OA 
BRANCH  25  28
HETATM   28  C   UNL     1     -11.377  12.928  67.295  1.00  0.00    -0.356 A  
HETATM   29  C   UNL     1     -11.132  11.866  66.413  1.00  0.00    -0.359 A  
HETATM   30  C   UNL     1     -11.459  11.975  65.059  1.00  0.00    -0.343 A  
HETATM   31  C   UNL     1     -12.043  13.143  64.572  1.00  0.00    -0.462 A  
HETATM   32  C   UNL     1     -12.310  14.199  65.438  1.00  0.00    -0.475 A  
HETATM   33  C   UNL     1     -11.984  14.093  66.791  1.00  0.00    -0.475 A  
ENDBRANCH  25  28
ENDBRANCH  22  25
ENDBRANCH  10  21
TORSDOF 6
ENDMDL
MODEL      128
REMARK 921   NORMALIZED FREE ENERGY PREDICTED BY IDOCK:   -5.00 KCAL/MOL
REMARK 922        TOTAL FREE ENERGY PREDICTED BY IDOCK:   -7.79 KCAL/MOL
REMARK 923 INTER-LIGAND FREE ENERGY PREDICTED BY IDOCK:   -7.01 KCAL/MOL
REMARK 924 INTRA-LIGAND FREE ENERGY PREDICTED BY IDOCK:   -0.78 KCAL/MOL
REMARK 927      BINDING AFFINITY PREDICTED BY RF-SCORE:    0.00 PKD
ROOT
HETATM    1  C   UNL     1      -8.341   8.500  67.001  1.00  0.00    -0.110 C  
HETATM    2  S   UNL     1     -10.082   8.410  67.498  1.00  0.00    -0.238 SA 
HETATM    3  C   UNL     1     -10.493   9.989  66.724  1.00  0.00    -0.198 C  
HETATM    4  C   UNL     1      -9.547  11.132  67.071  1.00  0.00    -0.201 C  
HETATM    5  O   UNL     1      -6.138  11.970  68.126  1.00  0.00    -0.050 OA 
HETATM    6  CA  UNL     1      -8.271  10.950  67.529  1.00  0.00    -0.116 C  
HETATM    7  N   UNL     1      -7.750   9.687  67.593  1.00  0.00    -0.094 N  
HETATM    8  O   UNL     1      -5.749   9.528  68.752  1.00  0.00    -0.040 OA 
HETATM    9  C   UNL     1      -7.469  12.132  68.042  1.00  0.00    -0.116 C  
HETATM   10  CA  UNL     1      -7.352   7.655  67.873  1.00  0.00    -0.102 C  
HETATM   11  C   UNL     1      -6.706   9.054  68.181  1.00  0.00    -0.065 C  
HETATM   12  OXT UNL     1      -7.957  13.218  68.317  1.00  0.00    -0.132 OA 
ENDROOT
BRANCH   4  13
HETATM   13  C   UNL     1     -10.276  12.470  66.962  1.00  0.00    -0.221 C  
BRANCH  13  14
HETATM   14  S   UNL     1     -12.025  12.381  66.502  1.00  0.00    -0.116 SA 
BRANCH  14  15
HETATM   15  C   UNL     1     -12.186  13.491  65.205  1.00  0.00    -0.428 A  
HETATM   16  N   UNL     1     -12.214  14.800  65.257  1.00  0.00    -0.222 NA 
HETATM   17  C   UNL     1     -12.352  11.786  63.338  1.00  0.00    -0.361 C  
HETATM   18  N   UNL     1     -12.408  15.224  63.961  1.00  0.00    -0.643 NA 
HETATM   19  N   UNL     1     -12.488  14.190  63.134  1.00  0.00    -0.504 NA 
HETATM   20  N   UNL     1     -12.341  13.104  63.907  1.00  0.00    -0.646 NA 
ENDBRANCH  14  15
ENDBRANCH  13  14
ENDBRANCH   4  13
BRANCH  10  21
HETATM   21  N   UNL     1      -7.963   6.969  69.034  1.00  0.00    -0.115 N  
HETATM   22  C   UNL     1      -8.312   5.636  69.066  1.00  0.00    -0.100 C  
HETATM   23  O   UNL     1      -8.195   4.886  68.102  1.00  0.00    -0.089 OA 
HETATM   24  H   UNL     1      -8.139   7.523  69.872  1.00  0.00     0.000 HD 
BRANCH  22  25
HETATM   25  C   UNL     1      -8.838   5.195  70.449  1.00  0.00    -0.125 C  
HETATM   26  H   UNL     1      -9.863   3.677  71.178  1.00  0.00     0.000 HD 
HETATM   27  O   UNL     1      -9.540   3.948  70.327  1.00  0.00    -0.178 OA 
BRANCH  25  28
HETATM   28  C   UNL     1      -9.755   6.229  71.063  1.00  0.00    -0.196 A  
HETATM   29  C   UNL     1      -9.428   6.804  72.300  1.00  0.00    -0.149 A  
HETATM   30  C   UNL     1     -10.265   7.758  72.884  1.00  0.00    -0.377 A  
HETATM   31  C   UNL     1     -11.433   8.154  72.237  1.00  0.00    -0.435 A  
HETATM   32  C   UNL     1     -11.762   7.607  71.000  1.00  0.00    -0.306 A  
HETATM   33  C   UNL     1     -10.928   6.653  70.414  1.00  0.00    -0.341 A  
ENDBRANCH  25  28
ENDBRANCH  22  25
ENDBRANCH  10  21
TORSDOF 6
ENDMDL
MODEL      129
REMARK 921   NORMALIZED FREE ENERGY PREDICTED BY IDOCK:   -4.99 KCAL/MOL
REMARK 922        TOTAL FREE ENERGY PREDICTED BY IDOCK:   -7.78 KCAL/MOL
REMARK 923 INTER-LIGAND FREE ENERGY PREDICTED BY IDOCK:   -6.89 KCAL/MOL
REMARK 924 INTRA-LIGAND FREE ENERGY PREDICTED BY IDOCK:   -0.89 KCAL/MOL
REMARK 927      BINDING AFFINITY PREDICTED BY RF-SCORE:    0.00 PKD
ROOT
HETATM    1  C   UNL     1      -9.563  12.917  68.338  1.00  0.00    -0.176 C  
HETATM    2  S   UNL     1      -7.872  13.282  67.798  1.00  0.00    -0.174 SA 
HETATM    3  C   UNL     1      -8.281  14.970  67.306  1.00  0.00    -0.211 C  
HETATM    4  C   UNL     1      -9.521  15.094  66.428  1.00  0.00    -0.325 C  
HETATM    5  O   UNL     1     -12.713  13.530  65.533  1.00  0.00    -0.491 OA 
HETATM    6  CA  UNL     1     -10.506  14.146  66.366  1.00  0.00    -0.283 C  
HETATM    7  N   UNL     1     -10.456  13.065  67.202  1.00  0.00    -0.242 N  
HETATM    8  O   UNL     1     -11.967  11.382  66.691  1.00  0.00    -0.322 OA 
HETATM    9  C   UNL     1     -11.600  14.251  65.320  1.00  0.00    -0.348 C  
HETATM   10  CA  UNL     1      -9.947  11.398  68.356  1.00  0.00    -0.204 C  
HETATM   11  C   UNL     1     -11.027  11.840  67.303  1.00  0.00    -0.267 C  
HETATM   12  OXT UNL     1     -11.544  14.990  64.348  1.00  0.00    -0.353 OA 
ENDROOT
BRANCH   4  13
HETATM   13  C   UNL     1      -9.422  16.340  65.551  1.00  0.00     0.111 C  
BRANCH  13  14
HETATM   14  S   UNL     1     -10.401  17.765  66.088  1.00  0.00    -0.270 SA 
BRANCH  14  15
HETATM   15  C   UNL     1      -9.241  18.981  66.430  1.00  0.00    -0.334 A  
HETATM   16  N   UNL     1      -8.121  19.233  65.798  1.00  0.00    -0.428 NA 
HETATM   17  C   UNL     1     -10.409  19.987  68.440  1.00  0.00    -0.330 C  
HETATM   18  N   UNL     1      -7.527  20.268  66.485  1.00  0.00    -0.273 NA 
HETATM   19  N   UNL     1      -8.277  20.645  67.511  1.00  0.00    -0.258 NA 
HETATM   20  N   UNL     1      -9.355  19.847  67.476  1.00  0.00    -0.338 NA 
ENDBRANCH  14  15
ENDBRANCH  13  14
ENDBRANCH   4  13
BRANCH  10  21
HETATM   21  N   UNL     1      -8.904  10.478  67.848  1.00  0.00    -0.132 N  
HETATM   22  C   UNL     1      -8.874   9.121  68.078  1.00  0.00    -0.129 C  
HETATM   23  O   UNL     1      -9.693   8.538  68.781  1.00  0.00    -0.158 OA 
HETATM   24  H   UNL     1      -8.153  10.880  67.285  1.00  0.00     0.000 HD 
BRANCH  22  25
HETATM   25  C   UNL     1      -7.714   8.420  67.336  1.00  0.00    -0.098 C  
HETATM   26  H   UNL     1      -5.771   8.207  67.584  1.00  0.00     0.000 HD 
HETATM   27  O   UNL     1      -6.483   8.638  68.041  1.00  0.00    -0.055 OA 
BRANCH  25  28
HETATM   28  C   UNL     1      -7.571   8.914  65.913  1.00  0.00    -0.093 A  
HETATM   29  C   UNL     1      -8.617   8.720  64.999  1.00  0.00    -0.196 A  
HETATM   30  C   UNL     1      -8.502   9.166  63.681  1.00  0.00    -0.190 A  
HETATM   31  C   UNL     1      -7.345   9.819  63.262  1.00  0.00    -0.123 A  
HETATM   32  C   UNL     1      -6.305  10.037  64.162  1.00  0.00    -0.132 A  
HETATM   33  C   UNL     1      -6.418   9.592  65.480  1.00  0.00    -0.072 A  
ENDBRANCH  25  28
ENDBRANCH  22  25
ENDBRANCH  10  21
TORSDOF 6
ENDMDL
MODEL      130
REMARK 921   NORMALIZED FREE ENERGY PREDICTED BY IDOCK:   -4.94 KCAL/MOL
REMARK 922        TOTAL FREE ENERGY PREDICTED BY IDOCK:   -7.71 KCAL/MOL
REMARK 923 INTER-LIGAND FREE ENERGY PREDICTED BY IDOCK:   -6.99 KCAL/MOL
REMARK 924 INTRA-LIGAND FREE ENERGY PREDICTED BY IDOCK:   -0.72 KCAL/MOL
REMARK 927      BINDING AFFINITY PREDICTED BY RF-SCORE:    0.00 PKD
ROOT
HETATM    1  C   UNL     1      -8.648  11.586  68.434  1.00  0.00    -0.159 C  
HETATM    2  S   UNL     1      -7.163  11.862  67.432  1.00  0.00    -0.153 SA 
HETATM    3  C   UNL     1      -7.308  13.658  67.522  1.00  0.00    -0.166 C  
HETATM    4  C   UNL     1      -8.693  14.202  67.192  1.00  0.00    -0.239 C  
HETATM    5  O   UNL     1     -12.273  13.419  67.143  1.00  0.00    -0.348 OA 
HETATM    6  CA  UNL     1      -9.838  13.458  67.263  1.00  0.00    -0.233 C  
HETATM    7  N   UNL     1      -9.784  12.182  67.753  1.00  0.00    -0.192 N  
HETATM    8  O   UNL     1     -11.719  10.945  67.433  1.00  0.00    -0.510 OA 
HETATM    9  C   UNL     1     -11.143  14.013  66.724  1.00  0.00    -0.306 C  
HETATM   10  CA  UNL     1      -9.343  10.196  68.234  1.00  0.00    -0.133 C  
HETATM   11  C   UNL     1     -10.560  11.070  67.762  1.00  0.00    -0.211 C  
HETATM   12  OXT UNL     1     -11.218  14.991  65.995  1.00  0.00    -0.343 OA 
ENDROOT
BRANCH   4  13
HETATM   13  C   UNL     1      -8.583  15.626  66.650  1.00  0.00    -0.295 C  
BRANCH  13  14
HETATM   14  S   UNL     1      -7.144  16.574  67.204  1.00  0.00    -0.213 SA 
BRANCH  14  15
HETATM   15  C   UNL     1      -7.327  18.109  66.462  1.00  0.00    -0.233 A  
HETATM   16  N   UNL     1      -6.767  18.548  65.361  1.00  0.00    -0.497 NA 
HETATM   17  C   UNL     1      -8.923  19.103  68.159  1.00  0.00    -0.322 C  
HETATM   18  N   UNL     1      -7.192  19.851  65.217  1.00  0.00    -0.370 NA 
HETATM   19  N   UNL     1      -8.003  20.194  66.209  1.00  0.00    -0.277 NA 
HETATM   20  N   UNL     1      -8.097  19.104  66.985  1.00  0.00    -0.256 NA 
ENDBRANCH  14  15
ENDBRANCH  13  14
ENDBRANCH   4  13
BRANCH  10  21
HETATM   21  N   UNL     1      -8.739   9.334  67.192  1.00  0.00    -0.127 N  
HETATM   22  C   UNL     1      -8.042   8.172  67.440  1.00  0.00    -0.122 C  
HETATM   23  O   UNL     1      -7.804   7.757  68.570  1.00  0.00    -0.115 OA 
HETATM   24  H   UNL     1      -8.848   9.622  66.219  1.00  0.00     0.000 HD 
BRANCH  22  25
HETATM   25  C   UNL     1      -7.620   7.447  66.143  1.00  0.00    -0.088 C  
HETATM   26  H   UNL     1      -7.487   7.891  64.227  1.00  0.00     0.000 HD 
HETATM   27  O   UNL     1      -7.747   8.337  65.024  1.00  0.00    -0.092 OA 
BRANCH  25  28
HETATM   28  C   UNL     1      -8.447   6.206  65.893  1.00  0.00    -0.145 A  
HETATM   29  C   UNL     1      -7.896   5.133  65.178  1.00  0.00    -0.091 A  
HETATM   30  C   UNL     1      -8.646   3.980  64.934  1.00  0.00    -0.115 A  
HETATM   31  C   UNL     1      -9.953   3.882  65.408  1.00  0.00    -0.137 A  
HETATM   32  C   UNL     1     -10.509   4.931  66.136  1.00  0.00    -0.346 A  
HETATM   33  C   UNL     1      -9.760   6.084  66.381  1.00  0.00    -0.158 A  
ENDBRANCH  25  28
ENDBRANCH  22  25
ENDBRANCH  10  21
TORSDOF 6
ENDMDL
MODEL      131
REMARK 921   NORMALIZED FREE ENERGY PREDICTED BY IDOCK:   -4.92 KCAL/MOL
REMARK 922        TOTAL FREE ENERGY PREDICTED BY IDOCK:   -7.68 KCAL/MOL
REMARK 923 INTER-LIGAND FREE ENERGY PREDICTED BY IDOCK:   -6.95 KCAL/MOL
REMARK 924 INTRA-LIGAND FREE ENERGY PREDICTED BY IDOCK:   -0.73 KCAL/MOL
REMARK 927      BINDING AFFINITY PREDICTED BY RF-SCORE:    0.00 PKD
ROOT
HETATM    1  C   UNL     1      -8.192   8.357  67.611  1.00  0.00    -0.126 C  
HETATM    2  S   UNL     1      -8.940   9.824  68.367  1.00  0.00    -0.124 SA 
HETATM    3  C   UNL     1      -8.811   9.159  70.040  1.00  0.00    -0.182 C  
HETATM    4  C   UNL     1      -9.333   7.735  70.200  1.00  0.00    -0.153 C  
HETATM    5  O   UNL     1      -9.965   4.574  68.456  1.00  0.00    -0.126 OA 
HETATM    6  CA  UNL     1      -9.467   6.854  69.163  1.00  0.00    -0.142 C  
HETATM    7  N   UNL     1      -9.020   7.203  67.918  1.00  0.00    -0.123 N  
HETATM    8  O   UNL     1      -9.680   5.769  66.221  1.00  0.00    -0.157 OA 
HETATM    9  C   UNL     1     -10.182   5.532  69.372  1.00  0.00    -0.259 C  
HETATM   10  CA  UNL     1      -8.547   8.126  66.104  1.00  0.00    -0.139 C  
HETATM   11  C   UNL     1      -9.171   6.786  66.638  1.00  0.00    -0.159 C  
HETATM   12  OXT UNL     1     -10.879   5.282  70.345  1.00  0.00    -0.213 OA 
ENDROOT
BRANCH   4  13
HETATM   13  C   UNL     1      -9.800   7.505  71.636  1.00  0.00    -0.161 C  
BRANCH  13  14
HETATM   14  S   UNL     1      -8.745   6.441  72.650  1.00  0.00    -0.124 SA 
BRANCH  14  15
HETATM   15  C   UNL     1      -7.650   7.518  73.413  1.00  0.00    -0.101 A  
HETATM   16  N   UNL     1      -7.895   8.709  73.904  1.00  0.00    -0.411 NA 
HETATM   17  C   UNL     1      -5.581   6.069  73.221  1.00  0.00    -0.036 C  
HETATM   18  N   UNL     1      -6.685   9.184  74.359  1.00  0.00    -0.373 NA 
HETATM   19  N   UNL     1      -5.723   8.293  74.156  1.00  0.00    -0.092 NA 
HETATM   20  N   UNL     1      -6.324   7.247  73.571  1.00  0.00    -0.064 NA 
ENDBRANCH  14  15
ENDBRANCH  13  14
ENDBRANCH   4  13
BRANCH  10  21
HETATM   21  N   UNL     1      -9.512   9.090  65.528  1.00  0.00    -0.424 N  
HETATM   22  C   UNL     1      -9.180  10.122  64.678  1.00  0.00    -0.252 C  
HETATM   23  O   UNL     1      -8.026  10.380  64.350  1.00  0.00    -0.154 OA 
HETATM   24  H   UNL     1     -10.495   8.981  65.778  1.00  0.00     0.000 HD 
BRANCH  22  25
HETATM   25  C   UNL     1     -10.418  10.894  64.172  1.00  0.00    -0.327 C  
HETATM   26  H   UNL     1     -10.936  11.865  62.537  1.00  0.00     0.000 HD 
HETATM   27  O   UNL     1     -10.174  11.390  62.848  1.00  0.00    -0.272 OA 
BRANCH  25  28
HETATM   28  C   UNL     1     -10.777  12.048  65.082  1.00  0.00    -0.332 A  
HETATM   29  C   UNL     1     -12.037  12.655  64.974  1.00  0.00    -0.497 A  
HETATM   30  C   UNL     1     -12.385  13.724  65.802  1.00  0.00    -0.523 A  
HETATM   31  C   UNL     1     -11.483  14.194  66.754  1.00  0.00    -0.383 A  
HETATM   32  C   UNL     1     -10.235  13.590  66.888  1.00  0.00    -0.256 A  
HETATM   33  C   UNL     1      -9.885  12.522  66.060  1.00  0.00    -0.266 A  
ENDBRANCH  25  28
ENDBRANCH  22  25
ENDBRANCH  10  21
TORSDOF 6
ENDMDL
MODEL      132
REMARK 921   NORMALIZED FREE ENERGY PREDICTED BY IDOCK:   -4.91 KCAL/MOL
REMARK 922        TOTAL FREE ENERGY PREDICTED BY IDOCK:   -7.67 KCAL/MOL
REMARK 923 INTER-LIGAND FREE ENERGY PREDICTED BY IDOCK:   -7.07 KCAL/MOL
REMARK 924 INTRA-LIGAND FREE ENERGY PREDICTED BY IDOCK:   -0.61 KCAL/MOL
REMARK 927      BINDING AFFINITY PREDICTED BY RF-SCORE:    0.00 PKD
ROOT
HETATM    1  C   UNL     1      -8.759   8.057  70.115  1.00  0.00    -0.135 C  
HETATM    2  S   UNL     1      -9.084   9.212  68.757  1.00  0.00    -0.136 SA 
HETATM    3  C   UNL     1      -9.963  10.378  69.819  1.00  0.00    -0.124 C  
HETATM    4  C   UNL     1     -11.034   9.751  70.703  1.00  0.00    -0.398 C  
HETATM    5  O   UNL     1     -12.095   6.664  72.372  1.00  0.00    -0.215 OA 
HETATM    6  CA  UNL     1     -11.061   8.424  71.038  1.00  0.00    -0.258 C  
HETATM    7  N   UNL     1     -10.029   7.611  70.660  1.00  0.00    -0.183 N  
HETATM    8  O   UNL     1     -10.427   5.347  70.961  1.00  0.00    -0.234 OA 
HETATM    9  C   UNL     1     -12.268   7.843  71.751  1.00  0.00    -0.310 C  
HETATM   10  CA  UNL     1      -8.499   6.574  69.685  1.00  0.00    -0.131 C  
HETATM   11  C   UNL     1      -9.777   6.284  70.551  1.00  0.00    -0.173 C  
HETATM   12  OXT UNL     1     -13.346   8.411  71.838  1.00  0.00    -0.335 OA 
ENDROOT
BRANCH   4  13
HETATM   13  C   UNL     1     -12.115  10.778  71.029  1.00  0.00    -0.346 C  
BRANCH  13  14
HETATM   14  S   UNL     1     -11.972  12.372  70.183  1.00  0.00    -0.219 SA 
BRANCH  14  15
HETATM   15  C   UNL     1     -12.678  13.500  71.264  1.00  0.00    -0.348 A  
HETATM   16  N   UNL     1     -13.605  13.286  72.167  1.00  0.00    -0.541 NA 
HETATM   17  C   UNL     1     -11.380  15.537  70.503  1.00  0.00    -0.351 C  
HETATM   18  N   UNL     1     -13.864  14.512  72.737  1.00  0.00    -0.563 NA 
HETATM   19  N   UNL     1     -13.102  15.454  72.197  1.00  0.00    -0.374 NA 
HETATM   20  N   UNL     1     -12.353  14.823  71.280  1.00  0.00    -0.305 NA 
ENDBRANCH  14  15
ENDBRANCH  13  14
ENDBRANCH   4  13
BRANCH  10  21
HETATM   21  N   UNL     1      -8.640   6.304  68.236  1.00  0.00    -0.117 N  
HETATM   22  C   UNL     1      -7.616   6.385  67.318  1.00  0.00    -0.096 C  
HETATM   23  O   UNL     1      -6.479   6.744  67.606  1.00  0.00    -0.045 OA 
HETATM   24  H   UNL     1      -9.563   6.037  67.892  1.00  0.00     0.000 HD 
BRANCH  22  25
HETATM   25  C   UNL     1      -8.055   5.951  65.902  1.00  0.00    -0.118 C  
HETATM   26  H   UNL     1      -7.410   4.705  64.518  1.00  0.00     0.000 HD 
HETATM   27  O   UNL     1      -7.140   4.971  65.388  1.00  0.00    -0.064 OA 
BRANCH  25  28
HETATM   28  C   UNL     1      -8.124   7.121  64.947  1.00  0.00    -0.107 A  
HETATM   29  C   UNL     1      -7.767   6.946  63.602  1.00  0.00    -0.111 A  
HETATM   30  C   UNL     1      -7.821   8.016  62.706  1.00  0.00    -0.140 A  
HETATM   31  C   UNL     1      -8.241   9.271  63.140  1.00  0.00    -0.178 A  
HETATM   32  C   UNL     1      -8.618   9.458  64.467  1.00  0.00    -0.219 A  
HETATM   33  C   UNL     1      -8.564   8.390  65.365  1.00  0.00    -0.193 A  
ENDBRANCH  25  28
ENDBRANCH  22  25
ENDBRANCH  10  21
TORSDOF 6
ENDMDL
MODEL      133
REMARK 921   NORMALIZED FREE ENERGY PREDICTED BY IDOCK:   -4.90 KCAL/MOL
REMARK 922        TOTAL FREE ENERGY PREDICTED BY IDOCK:   -7.65 KCAL/MOL
REMARK 923 INTER-LIGAND FREE ENERGY PREDICTED BY IDOCK:   -6.34 KCAL/MOL
REMARK 924 INTRA-LIGAND FREE ENERGY PREDICTED BY IDOCK:   -1.31 KCAL/MOL
REMARK 927      BINDING AFFINITY PREDICTED BY RF-SCORE:    0.00 PKD
ROOT
HETATM    1  C   UNL     1      -8.564   9.826  67.945  1.00  0.00    -0.125 C  
HETATM    2  S   UNL     1     -10.361   9.717  68.156  1.00  0.00    -0.214 SA 
HETATM    3  C   UNL     1     -10.689  11.008  66.939  1.00  0.00    -0.274 C  
HETATM    4  C   UNL     1      -9.866  12.279  67.121  1.00  0.00    -0.207 C  
HETATM    5  O   UNL     1      -6.738  13.642  68.459  1.00  0.00    -0.080 OA 
HETATM    6  CA  UNL     1      -8.687  12.327  67.812  1.00  0.00    -0.174 C  
HETATM    7  N   UNL     1      -8.136  11.170  68.291  1.00  0.00    -0.124 N  
HETATM    8  O   UNL     1      -6.371  11.479  69.761  1.00  0.00    -0.119 OA 
HETATM    9  C   UNL     1      -8.038  13.664  68.120  1.00  0.00    -0.156 C  
HETATM   10  CA  UNL     1      -7.715   9.316  69.158  1.00  0.00    -0.078 C  
HETATM   11  C   UNL     1      -7.191  10.797  69.187  1.00  0.00    -0.107 C  
HETATM   12  OXT UNL     1      -8.610  14.738  68.015  1.00  0.00    -0.155 OA 
ENDROOT
BRANCH   4  13
HETATM   13  C   UNL     1     -10.617  13.478  66.547  1.00  0.00    -0.281 C  
BRANCH  13  14
HETATM   14  S   UNL     1     -12.283  13.754  67.198  1.00  0.00    -0.219 SA 
BRANCH  14  15
HETATM   15  C   UNL     1     -12.034  14.536  68.704  1.00  0.00    -0.285 A  
HETATM   16  N   UNL     1     -11.809  15.808  68.928  1.00  0.00    -0.389 NA 
HETATM   17  C   UNL     1     -12.230  12.483  70.174  1.00  0.00    -0.234 C  
HETATM   18  N   UNL     1     -11.629  15.924  70.288  1.00  0.00    -0.343 NA 
HETATM   19  N   UNL     1     -11.751  14.744  70.882  1.00  0.00    -0.309 NA 
HETATM   20  N   UNL     1     -12.012  13.874  69.894  1.00  0.00    -0.321 NA 
ENDBRANCH  14  15
ENDBRANCH  13  14
ENDBRANCH   4  13
BRANCH  10  21
HETATM   21  N   UNL     1      -8.497   8.895  70.343  1.00  0.00    -0.148 N  
HETATM   22  C   UNL     1      -8.001   8.819  71.625  1.00  0.00    -0.085 C  
HETATM   23  O   UNL     1      -6.830   9.047  71.910  1.00  0.00    -0.256 OA 
HETATM   24  H   UNL     1      -9.475   8.644  70.198  1.00  0.00     0.000 HD 
BRANCH  22  25
HETATM   25  C   UNL     1      -9.086   8.442  72.658  1.00  0.00    -0.241 C  
HETATM   26  H   UNL     1      -9.268   8.460  74.621  1.00  0.00     0.000 HD 
HETATM   27  O   UNL     1      -8.601   8.692  73.986  1.00  0.00    -0.221 OA 
BRANCH  25  28
HETATM   28  C   UNL     1      -9.500   6.992  72.541  1.00  0.00    -0.161 A  
HETATM   29  C   UNL     1      -8.522   5.995  72.421  1.00  0.00    -0.116 A  
HETATM   30  C   UNL     1      -8.886   4.651  72.308  1.00  0.00    -0.133 A  
HETATM   31  C   UNL     1     -10.230   4.287  72.322  1.00  0.00    -0.244 A  
HETATM   32  C   UNL     1     -11.214   5.263  72.460  1.00  0.00    -0.272 A  
HETATM   33  C   UNL     1     -10.852   6.607  72.573  1.00  0.00    -0.270 A  
ENDBRANCH  25  28
ENDBRANCH  22  25
ENDBRANCH  10  21
TORSDOF 6
ENDMDL
MODEL      134
REMARK 921   NORMALIZED FREE ENERGY PREDICTED BY IDOCK:   -4.89 KCAL/MOL
REMARK 922        TOTAL FREE ENERGY PREDICTED BY IDOCK:   -7.64 KCAL/MOL
REMARK 923 INTER-LIGAND FREE ENERGY PREDICTED BY IDOCK:   -6.64 KCAL/MOL
REMARK 924 INTRA-LIGAND FREE ENERGY PREDICTED BY IDOCK:   -1.00 KCAL/MOL
REMARK 927      BINDING AFFINITY PREDICTED BY RF-SCORE:    0.00 PKD
ROOT
HETATM    1  C   UNL     1      -9.237  11.525  68.770  1.00  0.00    -0.067 C  
HETATM    2  S   UNL     1     -10.822  11.287  67.924  1.00  0.00    -0.248 SA 
HETATM    3  C   UNL     1     -11.020   9.604  68.544  1.00  0.00    -0.108 C  
HETATM    4  C   UNL     1      -9.797   8.712  68.367  1.00  0.00    -0.189 C  
HETATM    5  O   UNL     1      -6.148   8.687  68.022  1.00  0.00    -0.049 OA 
HETATM    6  CA  UNL     1      -8.527   9.191  68.192  1.00  0.00    -0.125 C  
HETATM    7  N   UNL     1      -8.295  10.536  68.278  1.00  0.00    -0.118 N  
HETATM    8  O   UNL     1      -6.189  11.197  67.568  1.00  0.00    -0.055 OA 
HETATM    9  C   UNL     1      -7.400   8.245  67.820  1.00  0.00    -0.093 C  
HETATM   10  CA  UNL     1      -8.306  12.622  68.151  1.00  0.00    -0.175 C  
HETATM   11  C   UNL     1      -7.321  11.416  67.941  1.00  0.00    -0.093 C  
HETATM   12  OXT UNL     1      -7.574   7.105  67.416  1.00  0.00    -0.104 OA 
ENDROOT
BRANCH   4  13
HETATM   13  C   UNL     1     -10.222   7.248  68.278  1.00  0.00    -0.180 C  
BRANCH  13  14
HETATM   14  S   UNL     1     -11.091   6.588  69.722  1.00  0.00    -0.393 SA 
BRANCH  14  15
HETATM   15  C   UNL     1     -10.213   7.189  71.067  1.00  0.00    -0.196 A  
HETATM   16  N   UNL     1     -10.564   8.132  71.907  1.00  0.00    -0.242 NA 
HETATM   17  C   UNL     1      -8.175   5.707  70.812  1.00  0.00    -0.118 C  
HETATM   18  N   UNL     1      -9.502   8.278  72.772  1.00  0.00    -0.276 NA 
HETATM   19  N   UNL     1      -8.527   7.431  72.468  1.00  0.00    -0.107 NA 
HETATM   20  N   UNL     1      -8.972   6.742  71.406  1.00  0.00    -0.142 NA 
ENDBRANCH  14  15
ENDBRANCH  13  14
ENDBRANCH   4  13
BRANCH  10  21
HETATM   21  N   UNL     1      -8.812  13.252  66.911  1.00  0.00    -0.335 N  
HETATM   22  C   UNL     1      -9.577  14.396  66.865  1.00  0.00    -0.256 C  
HETATM   23  O   UNL     1      -9.964  14.988  67.868  1.00  0.00    -0.220 OA 
HETATM   24  H   UNL     1      -8.576  12.806  66.024  1.00  0.00     0.000 HD 
BRANCH  22  25
HETATM   25  C   UNL     1      -9.867  14.858  65.420  1.00  0.00    -0.268 C  
HETATM   26  H   UNL     1     -10.745  16.395  64.553  1.00  0.00     0.000 HD 
HETATM   27  O   UNL     1     -10.567  16.111  65.442  1.00  0.00    -0.385 OA 
BRANCH  25  28
HETATM   28  C   UNL     1     -10.684  13.841  64.654  1.00  0.00    -0.427 A  
HETATM   29  C   UNL     1     -10.037  12.810  63.957  1.00  0.00    -0.226 A  
HETATM   30  C   UNL     1     -10.774  11.865  63.240  1.00  0.00    -0.415 A  
HETATM   31  C   UNL     1     -12.166  11.932  63.219  1.00  0.00    -0.487 A  
HETATM   32  C   UNL     1     -12.824  12.938  63.921  1.00  0.00    -0.087 A  
HETATM   33  C   UNL     1     -12.089  13.884  64.638  1.00  0.00    -0.458 A  
ENDBRANCH  25  28
ENDBRANCH  22  25
ENDBRANCH  10  21
TORSDOF 6
ENDMDL
MODEL      135
REMARK 921   NORMALIZED FREE ENERGY PREDICTED BY IDOCK:   -4.87 KCAL/MOL
REMARK 922        TOTAL FREE ENERGY PREDICTED BY IDOCK:   -7.62 KCAL/MOL
REMARK 923 INTER-LIGAND FREE ENERGY PREDICTED BY IDOCK:   -6.83 KCAL/MOL
REMARK 924 INTRA-LIGAND FREE ENERGY PREDICTED BY IDOCK:   -0.79 KCAL/MOL
REMARK 927      BINDING AFFINITY PREDICTED BY RF-SCORE:    0.00 PKD
ROOT
HETATM    1  C   UNL     1     -11.067  11.544  68.067  1.00  0.00    -0.254 C  
HETATM    2  S   UNL     1      -9.338  11.003  68.105  1.00  0.00    -0.179 SA 
HETATM    3  C   UNL     1      -9.761   9.338  68.656  1.00  0.00    -0.150 C  
HETATM    4  C   UNL     1     -10.716   9.283  69.843  1.00  0.00    -0.253 C  
HETATM    5  O   UNL     1     -13.363  11.083  71.628  1.00  0.00    -0.363 OA 
HETATM    6  CA  UNL     1     -11.545  10.311  70.198  1.00  0.00    -0.299 C  
HETATM    7  N   UNL     1     -11.621  11.423  69.404  1.00  0.00    -0.292 N  
HETATM    8  O   UNL     1     -12.757  13.208  70.353  1.00  0.00    -0.152 OA 
HETATM    9  C   UNL     1     -12.312  10.256  71.506  1.00  0.00    -0.390 C  
HETATM   10  CA  UNL     1     -11.288  13.090  68.189  1.00  0.00    -0.294 C  
HETATM   11  C   UNL     1     -12.073  12.697  69.492  1.00  0.00    -0.192 C  
HETATM   12  OXT UNL     1     -12.064   9.469  72.408  1.00  0.00    -0.147 OA 
ENDROOT
BRANCH   4  13
HETATM   13  C   UNL     1     -10.502   7.992  70.631  1.00  0.00    -0.210 C  
BRANCH  13  14
HETATM   14  S   UNL     1     -10.527   6.463  69.664  1.00  0.00    -0.253 SA 
BRANCH  14  15
HETATM   15  C   UNL     1      -8.918   5.874  69.746  1.00  0.00    -0.131 A  
HETATM   16  N   UNL     1      -7.968   6.227  70.578  1.00  0.00    -0.110 NA 
HETATM   17  C   UNL     1      -9.071   4.239  67.818  1.00  0.00    -0.131 C  
HETATM   18  N   UNL     1      -6.855   5.506  70.205  1.00  0.00    -0.051 NA 
HETATM   19  N   UNL     1      -7.127   4.722  69.170  1.00  0.00    -0.051 NA 
HETATM   20  N   UNL     1      -8.419   4.944  68.885  1.00  0.00    -0.082 NA 
ENDBRANCH  14  15
ENDBRANCH  13  14
ENDBRANCH   4  13
BRANCH  10  21
HETATM   21  N   UNL     1     -10.059  13.888  68.404  1.00  0.00    -0.234 N  
HETATM   22  C   UNL     1      -9.503  14.740  67.477  1.00  0.00    -0.197 C  
HETATM   23  O   UNL     1      -9.949  14.887  66.343  1.00  0.00    -0.252 OA 
HETATM   24  H   UNL     1      -9.590  13.799  69.306  1.00  0.00     0.000 HD 
BRANCH  22  25
HETATM   25  C   UNL     1      -8.279  15.501  68.031  1.00  0.00    -0.144 C  
HETATM   26  H   UNL     1      -7.281  15.573  69.729  1.00  0.00     0.000 HD 
HETATM   27  O   UNL     1      -8.033  15.105  69.389  1.00  0.00    -0.202 OA 
BRANCH  25  28
HETATM   28  C   UNL     1      -8.470  17.001  67.974  1.00  0.00    -0.216 A  
HETATM   29  C   UNL     1      -9.691  17.563  68.374  1.00  0.00    -0.316 A  
HETATM   30  C   UNL     1      -9.888  18.945  68.325  1.00  0.00    -0.427 A  
HETATM   31  C   UNL     1      -8.865  19.782  67.884  1.00  0.00    -0.381 A  
HETATM   32  C   UNL     1      -7.640  19.241  67.502  1.00  0.00    -0.265 A  
HETATM   33  C   UNL     1      -7.442  17.860  67.550  1.00  0.00    -0.213 A  
ENDBRANCH  25  28
ENDBRANCH  22  25
ENDBRANCH  10  21
TORSDOF 6
ENDMDL
MODEL      136
REMARK 921   NORMALIZED FREE ENERGY PREDICTED BY IDOCK:   -4.87 KCAL/MOL
REMARK 922        TOTAL FREE ENERGY PREDICTED BY IDOCK:   -7.62 KCAL/MOL
REMARK 923 INTER-LIGAND FREE ENERGY PREDICTED BY IDOCK:   -6.71 KCAL/MOL
REMARK 924 INTRA-LIGAND FREE ENERGY PREDICTED BY IDOCK:   -0.91 KCAL/MOL
REMARK 927      BINDING AFFINITY PREDICTED BY RF-SCORE:    0.00 PKD
ROOT
HETATM    1  C   UNL     1      -7.699   8.760  68.250  1.00  0.00    -0.100 C  
HETATM    2  S   UNL     1      -8.702   9.023  69.737  1.00  0.00    -0.159 SA 
HETATM    3  C   UNL     1      -8.034   7.569  70.572  1.00  0.00    -0.098 C  
HETATM    4  C   UNL     1      -8.037   6.296  69.734  1.00  0.00    -0.120 C  
HETATM    5  O   UNL     1      -7.981   4.973  66.317  1.00  0.00    -0.105 OA 
HETATM    6  CA  UNL     1      -8.094   6.286  68.367  1.00  0.00    -0.112 C  
HETATM    7  N   UNL     1      -8.042   7.469  67.681  1.00  0.00    -0.117 N  
HETATM    8  O   UNL     1      -8.546   7.296  65.425  1.00  0.00    -0.121 OA 
HETATM    9  C   UNL     1      -8.299   4.981  67.622  1.00  0.00    -0.105 C  
HETATM   10  CA  UNL     1      -8.260   9.410  66.941  1.00  0.00    -0.116 C  
HETATM   11  C   UNL     1      -8.309   7.924  66.433  1.00  0.00    -0.129 C  
HETATM   12  OXT UNL     1      -8.669   3.945  68.153  1.00  0.00    -0.094 OA 
ENDROOT
BRANCH   4  13
HETATM   13  C   UNL     1      -8.107   5.069  70.641  1.00  0.00    -0.094 C  
BRANCH  13  14
HETATM   14  S   UNL     1      -9.770   4.480  71.046  1.00  0.00    -0.199 SA 
BRANCH  14  15
HETATM   15  C   UNL     1     -10.670   5.906  71.357  1.00  0.00    -0.260 A  
HETATM   16  N   UNL     1     -10.852   6.515  72.504  1.00  0.00    -0.229 NA 
HETATM   17  C   UNL     1     -11.447   6.324  68.983  1.00  0.00    -0.083 C  
HETATM   18  N   UNL     1     -11.684   7.579  72.236  1.00  0.00    -0.303 NA 
HETATM   19  N   UNL     1     -11.995   7.621  70.947  1.00  0.00    -0.268 NA 
HETATM   20  N   UNL     1     -11.355   6.580  70.392  1.00  0.00    -0.356 NA 
ENDBRANCH  14  15
ENDBRANCH  13  14
ENDBRANCH   4  13
BRANCH  10  21
HETATM   21  N   UNL     1      -9.575  10.077  67.081  1.00  0.00    -0.161 N  
HETATM   22  C   UNL     1      -9.760  11.437  67.188  1.00  0.00    -0.182 C  
HETATM   23  O   UNL     1      -8.835  12.242  67.230  1.00  0.00    -0.174 OA 
HETATM   24  H   UNL     1     -10.406   9.484  67.099  1.00  0.00     0.000 HD 
BRANCH  22  25
HETATM   25  C   UNL     1     -11.253  11.831  67.224  1.00  0.00    -0.305 C  
HETATM   26  H   UNL     1     -12.393  13.216  66.406  1.00  0.00     0.000 HD 
HETATM   27  O   UNL     1     -11.475  12.974  66.384  1.00  0.00    -0.310 OA 
BRANCH  25  28
HETATM   28  C   UNL     1     -11.723  12.143  68.628  1.00  0.00    -0.382 A  
HETATM   29  C   UNL     1     -11.944  11.098  69.537  1.00  0.00    -0.425 A  
HETATM   30  C   UNL     1     -12.382  11.366  70.836  1.00  0.00    -0.483 A  
HETATM   31  C   UNL     1     -12.596  12.681  71.245  1.00  0.00    -0.339 A  
HETATM   32  C   UNL     1     -12.363  13.730  70.360  1.00  0.00    -0.423 A  
HETATM   33  C   UNL     1     -11.926  13.465  69.061  1.00  0.00    -0.357 A  
ENDBRANCH  25  28
ENDBRANCH  22  25
ENDBRANCH  10  21
TORSDOF 6
ENDMDL
MODEL      137
REMARK 921   NORMALIZED FREE ENERGY PREDICTED BY IDOCK:   -4.86 KCAL/MOL
REMARK 922        TOTAL FREE ENERGY PREDICTED BY IDOCK:   -7.60 KCAL/MOL
REMARK 923 INTER-LIGAND FREE ENERGY PREDICTED BY IDOCK:   -6.59 KCAL/MOL
REMARK 924 INTRA-LIGAND FREE ENERGY PREDICTED BY IDOCK:   -1.02 KCAL/MOL
REMARK 927      BINDING AFFINITY PREDICTED BY RF-SCORE:    0.00 PKD
ROOT
HETATM    1  C   UNL     1      -8.532  12.111  67.461  1.00  0.00    -0.169 C  
HETATM    2  S   UNL     1      -7.399  12.791  68.703  1.00  0.00    -0.071 SA 
HETATM    3  C   UNL     1      -6.759  11.166  69.161  1.00  0.00    -0.092 C  
HETATM    4  C   UNL     1      -7.829  10.117  69.440  1.00  0.00    -0.150 C  
HETATM    5  O   UNL     1     -11.278   9.106  68.721  1.00  0.00     0.063 OA 
HETATM    6  CA  UNL     1      -9.112  10.197  68.974  1.00  0.00    -0.173 C  
HETATM    7  N   UNL     1      -9.459  11.210  68.122  1.00  0.00    -0.173 N  
HETATM    8  O   UNL     1     -11.738  11.422  67.755  1.00  0.00    -0.533 OA 
HETATM    9  C   UNL     1     -10.165   9.221  69.464  1.00  0.00    -0.207 C  
HETATM   10  CA  UNL     1      -9.763  13.015  67.113  1.00  0.00    -0.230 C  
HETATM   11  C   UNL     1     -10.589  11.792  67.653  1.00  0.00    -0.205 C  
HETATM   12  OXT UNL     1     -10.024   8.504  70.444  1.00  0.00    -0.179 OA 
ENDROOT
BRANCH   4  13
HETATM   13  C   UNL     1      -7.293   9.066  70.410  1.00  0.00    -0.084 C  
BRANCH  13  14
HETATM   14  S   UNL     1      -6.481   7.635  69.657  1.00  0.00    -0.031 SA 
BRANCH  14  15
HETATM   15  C   UNL     1      -7.607   6.354  69.838  1.00  0.00    -0.100 A  
HETATM   16  N   UNL     1      -7.834   5.619  70.899  1.00  0.00    -0.102 NA 
HETATM   17  C   UNL     1      -8.551   6.417  67.488  1.00  0.00    -0.115 C  
HETATM   18  N   UNL     1      -8.790   4.701  70.523  1.00  0.00    -0.100 NA 
HETATM   19  N   UNL     1      -9.144   4.882  69.258  1.00  0.00    -0.097 NA 
HETATM   20  N   UNL     1      -8.412   5.920  68.828  1.00  0.00    -0.111 NA 
ENDBRANCH  14  15
ENDBRANCH  13  14
ENDBRANCH   4  13
BRANCH  10  21
HETATM   21  N   UNL     1      -9.877  14.259  67.908  1.00  0.00    -0.221 N  
HETATM   22  C   UNL     1      -9.571  15.519  67.444  1.00  0.00    -0.213 C  
HETATM   23  O   UNL     1      -9.116  15.733  66.325  1.00  0.00    -0.282 OA 
HETATM   24  H   UNL     1     -10.208  14.176  68.870  1.00  0.00     0.000 HD 
BRANCH  22  25
HETATM   25  C   UNL     1      -9.885  16.623  68.477  1.00  0.00    -0.252 C  
HETATM   26  H   UNL     1     -11.423  17.151  69.591  1.00  0.00     0.000 HD 
HETATM   27  O   UNL     1     -11.230  16.472  68.956  1.00  0.00    -0.305 OA 
BRANCH  25  28
HETATM   28  C   UNL     1      -9.712  18.009  67.897  1.00  0.00    -0.297 A  
HETATM   29  C   UNL     1      -8.528  18.721  68.134  1.00  0.00    -0.335 A  
HETATM   30  C   UNL     1      -8.352  20.004  67.609  1.00  0.00    -0.364 A  
HETATM   31  C   UNL     1      -9.353  20.586  66.834  1.00  0.00    -0.435 A  
HETATM   32  C   UNL     1     -10.527  19.884  66.573  1.00  0.00    -0.589 A  
HETATM   33  C   UNL     1     -10.705  18.602  67.097  1.00  0.00    -0.433 A  
ENDBRANCH  25  28
ENDBRANCH  22  25
ENDBRANCH  10  21
TORSDOF 6
ENDMDL
MODEL      138
REMARK 921   NORMALIZED FREE ENERGY PREDICTED BY IDOCK:   -4.85 KCAL/MOL
REMARK 922        TOTAL FREE ENERGY PREDICTED BY IDOCK:   -7.59 KCAL/MOL
REMARK 923 INTER-LIGAND FREE ENERGY PREDICTED BY IDOCK:   -6.56 KCAL/MOL
REMARK 924 INTRA-LIGAND FREE ENERGY PREDICTED BY IDOCK:   -1.03 KCAL/MOL
REMARK 927      BINDING AFFINITY PREDICTED BY RF-SCORE:    0.00 PKD
ROOT
HETATM    1  C   UNL     1      -8.780  13.826  68.582  1.00  0.00    -0.051 C  
HETATM    2  S   UNL     1      -9.805  14.433  67.216  1.00  0.00    -0.251 SA 
HETATM    3  C   UNL     1     -10.173  12.771  66.615  1.00  0.00    -0.238 C  
HETATM    4  C   UNL     1      -8.956  11.868  66.456  1.00  0.00    -0.199 C  
HETATM    5  O   UNL     1      -5.541  11.227  67.624  1.00  0.00    -0.043 OA 
HETATM    6  CA  UNL     1      -7.768  12.073  67.103  1.00  0.00    -0.161 C  
HETATM    7  N   UNL     1      -7.668  13.074  68.030  1.00  0.00    -0.130 N  
HETATM    8  O   UNL     1      -5.504  13.528  68.726  1.00  0.00    -0.072 OA 
HETATM    9  C   UNL     1      -6.547  11.251  66.735  1.00  0.00    -0.140 C  
HETATM   10  CA  UNL     1      -7.728  14.847  69.134  1.00  0.00    -0.164 C  
HETATM   11  C   UNL     1      -6.692  13.757  68.676  1.00  0.00    -0.099 C  
HETATM   12  OXT UNL     1      -6.463  10.574  65.720  1.00  0.00    -0.115 OA 
ENDROOT
BRANCH   4  13
HETATM   13  C   UNL     1      -9.220  10.813  65.383  1.00  0.00    -0.205 C  
BRANCH  13  14
HETATM   14  S   UNL     1      -9.832   9.217  65.978  1.00  0.00    -0.248 SA 
BRANCH  14  15
HETATM   15  C   UNL     1      -9.964   9.411  67.676  1.00  0.00    -0.190 A  
HETATM   16  N   UNL     1     -10.922   9.998  68.353  1.00  0.00    -0.236 NA 
HETATM   17  C   UNL     1      -7.799   8.258  68.304  1.00  0.00    -0.118 C  
HETATM   18  N   UNL     1     -10.541   9.934  69.675  1.00  0.00    -0.232 NA 
HETATM   19  N   UNL     1      -9.377   9.312  69.800  1.00  0.00    -0.175 NA 
HETATM   20  N   UNL     1      -9.016   8.976  68.553  1.00  0.00    -0.133 NA 
ENDBRANCH  14  15
ENDBRANCH  13  14
ENDBRANCH   4  13
BRANCH  10  21
HETATM   21  N   UNL     1      -7.657  16.135  68.407  1.00  0.00    -0.152 N  
HETATM   22  C   UNL     1      -6.859  17.198  68.767  1.00  0.00    -0.209 C  
HETATM   23  O   UNL     1      -6.154  17.202  69.771  1.00  0.00    -0.234 OA 
HETATM   24  H   UNL     1      -8.243  16.243  67.579  1.00  0.00     0.000 HD 
BRANCH  22  25
HETATM   25  C   UNL     1      -6.934  18.364  67.757  1.00  0.00    -0.213 C  
HETATM   26  H   UNL     1      -6.166  20.171  67.589  1.00  0.00     0.000 HD 
HETATM   27  O   UNL     1      -6.119  19.455  68.211  1.00  0.00    -0.216 OA 
BRANCH  25  28
HETATM   28  C   UNL     1      -8.353  18.848  67.555  1.00  0.00    -0.294 A  
HETATM   29  C   UNL     1      -8.989  18.650  66.321  1.00  0.00    -0.228 A  
HETATM   30  C   UNL     1     -10.297  19.094  66.115  1.00  0.00    -0.561 A  
HETATM   31  C   UNL     1     -10.989  19.733  67.142  1.00  0.00    -0.351 A  
HETATM   32  C   UNL     1     -10.379  19.920  68.380  1.00  0.00    -0.507 A  
HETATM   33  C   UNL     1      -9.071  19.478  68.587  1.00  0.00    -0.396 A  
ENDBRANCH  25  28
ENDBRANCH  22  25
ENDBRANCH  10  21
TORSDOF 6
ENDMDL
MODEL      139
REMARK 921   NORMALIZED FREE ENERGY PREDICTED BY IDOCK:   -4.84 KCAL/MOL
REMARK 922        TOTAL FREE ENERGY PREDICTED BY IDOCK:   -7.58 KCAL/MOL
REMARK 923 INTER-LIGAND FREE ENERGY PREDICTED BY IDOCK:   -7.05 KCAL/MOL
REMARK 924 INTRA-LIGAND FREE ENERGY PREDICTED BY IDOCK:   -0.54 KCAL/MOL
REMARK 927      BINDING AFFINITY PREDICTED BY RF-SCORE:    0.00 PKD
ROOT
HETATM    1  C   UNL     1      -7.989   9.699  67.803  1.00  0.00    -0.105 C  
HETATM    2  S   UNL     1      -9.736   9.796  67.325  1.00  0.00    -0.177 SA 
HETATM    3  C   UNL     1      -9.497  11.302  66.361  1.00  0.00    -0.200 C  
HETATM    4  C   UNL     1      -8.729  12.405  67.081  1.00  0.00    -0.195 C  
HETATM    5  O   UNL     1      -6.266  13.101  69.704  1.00  0.00    -0.112 OA 
HETATM    6  CA  UNL     1      -7.900  12.181  68.146  1.00  0.00    -0.147 C  
HETATM    7  N   UNL     1      -7.644  10.898  68.545  1.00  0.00    -0.103 N  
HETATM    8  O   UNL     1      -6.553  10.723  70.583  1.00  0.00    -0.332 OA 
HETATM    9  C   UNL     1      -7.336  13.350  68.932  1.00  0.00    -0.033 C  
HETATM   10  CA  UNL     1      -7.697   8.887  69.110  1.00  0.00    -0.092 C  
HETATM   11  C   UNL     1      -7.134  10.260  69.626  1.00  0.00    -0.125 C  
HETATM   12  OXT UNL     1      -7.759  14.494  68.848  1.00  0.00    -0.129 OA 
ENDROOT
BRANCH   4  13
HETATM   13  C   UNL     1      -9.132  13.772  66.531  1.00  0.00    -0.129 C  
BRANCH  13  14
HETATM   14  S   UNL     1     -10.852  14.260  66.809  1.00  0.00    -0.303 SA 
BRANCH  14  15
HETATM   15  C   UNL     1     -11.676  13.765  65.389  1.00  0.00    -0.335 A  
HETATM   16  N   UNL     1     -12.140  12.575  65.095  1.00  0.00    -0.440 NA 
HETATM   17  C   UNL     1     -11.635  15.999  64.195  1.00  0.00    -0.005 C  
HETATM   18  N   UNL     1     -12.670  12.682  63.828  1.00  0.00    -0.736 NA 
HETATM   19  N   UNL     1     -12.539  13.917  63.364  1.00  0.00    -0.769 NA 
HETATM   20  N   UNL     1     -11.924  14.601  64.342  1.00  0.00    -0.458 NA 
ENDBRANCH  14  15
ENDBRANCH  13  14
ENDBRANCH   4  13
BRANCH  10  21
HETATM   21  N   UNL     1      -8.894   8.384  69.821  1.00  0.00    -0.133 N  
HETATM   22  C   UNL     1      -9.219   7.053  69.969  1.00  0.00    -0.148 C  
HETATM   23  O   UNL     1      -8.565   6.141  69.475  1.00  0.00    -0.125 OA 
HETATM   24  H   UNL     1      -9.524   9.073  70.231  1.00  0.00     0.000 HD 
BRANCH  22  25
HETATM   25  C   UNL     1     -10.476   6.845  70.843  1.00  0.00    -0.211 C  
HETATM   26  H   UNL     1     -11.789   7.989  71.765  1.00  0.00     0.000 HD 
HETATM   27  O   UNL     1     -11.017   8.117  71.228  1.00  0.00    -0.232 OA 
BRANCH  25  28
HETATM   28  C   UNL     1     -10.176   6.031  72.082  1.00  0.00    -0.222 A  
HETATM   29  C   UNL     1     -11.138   5.141  72.581  1.00  0.00    -0.298 A  
HETATM   30  C   UNL     1     -10.880   4.384  73.726  1.00  0.00    -0.362 A  
HETATM   31  C   UNL     1      -9.657   4.500  74.381  1.00  0.00    -0.147 A  
HETATM   32  C   UNL     1      -8.684   5.366  73.888  1.00  0.00    -0.118 A  
HETATM   33  C   UNL     1      -8.939   6.124  72.744  1.00  0.00    -0.126 A  
ENDBRANCH  25  28
ENDBRANCH  22  25
ENDBRANCH  10  21
TORSDOF 6
ENDMDL
MODEL      140
REMARK 921   NORMALIZED FREE ENERGY PREDICTED BY IDOCK:   -4.83 KCAL/MOL
REMARK 922        TOTAL FREE ENERGY PREDICTED BY IDOCK:   -7.56 KCAL/MOL
REMARK 923 INTER-LIGAND FREE ENERGY PREDICTED BY IDOCK:   -6.73 KCAL/MOL
REMARK 924 INTRA-LIGAND FREE ENERGY PREDICTED BY IDOCK:   -0.83 KCAL/MOL
REMARK 927      BINDING AFFINITY PREDICTED BY RF-SCORE:    0.00 PKD
ROOT
HETATM    1  C   UNL     1     -10.461   8.663  69.088  1.00  0.00    -0.211 C  
HETATM    2  S   UNL     1     -10.562   8.904  67.294  1.00  0.00    -0.159 SA 
HETATM    3  C   UNL     1     -10.105   7.196  66.933  1.00  0.00    -0.238 C  
HETATM    4  C   UNL     1      -8.871   6.696  67.676  1.00  0.00    -0.116 C  
HETATM    5  O   UNL     1      -6.813   7.137  70.677  1.00  0.00    -0.052 OA 
HETATM    6  CA  UNL     1      -8.397   7.262  68.828  1.00  0.00    -0.129 C  
HETATM    7  N   UNL     1      -9.106   8.267  69.428  1.00  0.00    -0.153 N  
HETATM    8  O   UNL     1      -7.970   9.366  71.124  1.00  0.00    -0.322 OA 
HETATM    9  C   UNL     1      -7.054   6.837  69.390  1.00  0.00    -0.080 C  
HETATM   10  CA  UNL     1     -10.219   9.965  69.925  1.00  0.00    -0.257 C  
HETATM   11  C   UNL     1      -8.902   9.227  70.363  1.00  0.00    -0.234 C  
HETATM   12  OXT UNL     1      -6.225   6.195  68.762  1.00  0.00    -0.032 OA 
ENDROOT
BRANCH   4  13
HETATM   13  C   UNL     1      -8.189   5.588  66.877  1.00  0.00    -0.105 C  
BRANCH  13  14
HETATM   14  S   UNL     1      -8.361   5.689  65.079  1.00  0.00    -0.135 SA 
BRANCH  14  15
HETATM   15  C   UNL     1      -9.013   4.170  64.622  1.00  0.00    -0.141 A  
HETATM   16  N   UNL     1     -10.219   3.905  64.182  1.00  0.00    -0.220 NA 
HETATM   17  C   UNL     1      -6.952   2.776  65.097  1.00  0.00    -0.052 C  
HETATM   18  N   UNL     1     -10.262   2.540  64.003  1.00  0.00    -0.104 NA 
HETATM   19  N   UNL     1      -9.099   1.986  64.320  1.00  0.00    -0.108 NA 
HETATM   20  N   UNL     1      -8.312   3.004  64.700  1.00  0.00    -0.090 NA 
ENDBRANCH  14  15
ENDBRANCH  13  14
ENDBRANCH   4  13
BRANCH  10  21
HETATM   21  N   UNL     1     -10.020  11.198  69.131  1.00  0.00    -0.394 N  
HETATM   22  C   UNL     1     -10.973  12.176  68.946  1.00  0.00    -0.224 C  
HETATM   23  O   UNL     1     -12.115  12.096  69.386  1.00  0.00    -0.268 OA 
HETATM   24  H   UNL     1      -9.111  11.334  68.687  1.00  0.00     0.000 HD 
BRANCH  22  25
HETATM   25  C   UNL     1     -10.434  13.384  68.149  1.00  0.00    -0.245 C  
HETATM   26  H   UNL     1     -10.480  15.348  68.312  1.00  0.00     0.000 HD 
HETATM   27  O   UNL     1     -10.811  14.605  68.802  1.00  0.00    -0.238 OA 
BRANCH  25  28
HETATM   28  C   UNL     1     -10.946  13.398  66.726  1.00  0.00    -0.298 A  
HETATM   29  C   UNL     1     -10.166  12.847  65.698  1.00  0.00    -0.295 A  
HETATM   30  C   UNL     1     -10.621  12.854  64.378  1.00  0.00    -0.418 A  
HETATM   31  C   UNL     1     -11.863  13.404  64.069  1.00  0.00    -0.498 A  
HETATM   32  C   UNL     1     -12.658  13.938  65.079  1.00  0.00    -0.422 A  
HETATM   33  C   UNL     1     -12.205  13.932  66.400  1.00  0.00    -0.487 A  
ENDBRANCH  25  28
ENDBRANCH  22  25
ENDBRANCH  10  21
TORSDOF 6
ENDMDL
MODEL      141
REMARK 921   NORMALIZED FREE ENERGY PREDICTED BY IDOCK:   -4.79 KCAL/MOL
REMARK 922        TOTAL FREE ENERGY PREDICTED BY IDOCK:   -7.51 KCAL/MOL
REMARK 923 INTER-LIGAND FREE ENERGY PREDICTED BY IDOCK:   -6.65 KCAL/MOL
REMARK 924 INTRA-LIGAND FREE ENERGY PREDICTED BY IDOCK:   -0.86 KCAL/MOL
REMARK 927      BINDING AFFINITY PREDICTED BY RF-SCORE:    0.00 PKD
ROOT
HETATM    1  C   UNL     1      -8.286   9.373  69.482  1.00  0.00    -0.127 C  
HETATM    2  S   UNL     1      -8.854  10.025  67.889  1.00  0.00    -0.124 SA 
HETATM    3  C   UNL     1      -9.959  11.228  68.656  1.00  0.00    -0.204 C  
HETATM    4  C   UNL     1     -10.869  10.658  69.738  1.00  0.00    -0.317 C  
HETATM    5  O   UNL     1     -11.242   7.990  72.222  1.00  0.00    -0.288 OA 
HETATM    6  CA  UNL     1     -10.612   9.496  70.412  1.00  0.00    -0.276 C  
HETATM    7  N   UNL     1      -9.430   8.840  70.201  1.00  0.00    -0.163 N  
HETATM    8  O   UNL     1      -9.334   6.711  71.112  1.00  0.00    -0.162 OA 
HETATM    9  C   UNL     1     -11.665   8.894  71.324  1.00  0.00    -0.306 C  
HETATM   10  CA  UNL     1      -7.716   7.915  69.444  1.00  0.00    -0.105 C  
HETATM   11  C   UNL     1      -8.901   7.615  70.432  1.00  0.00    -0.144 C  
HETATM   12  OXT UNL     1     -12.839   9.231  71.323  1.00  0.00    -0.322 OA 
ENDROOT
BRANCH   4  13
HETATM   13  C   UNL     1     -12.145  11.491  69.845  1.00  0.00    -0.316 C  
BRANCH  13  14
HETATM   14  S   UNL     1     -11.933  13.283  69.705  1.00  0.00    -0.291 SA 
BRANCH  14  15
HETATM   15  C   UNL     1     -12.568  13.908  71.171  1.00  0.00    -0.370 A  
HETATM   16  N   UNL     1     -13.352  13.309  72.034  1.00  0.00    -0.469 NA 
HETATM   17  C   UNL     1     -11.523  16.210  71.022  1.00  0.00    -0.382 C  
HETATM   18  N   UNL     1     -13.617  14.244  73.011  1.00  0.00    -0.600 NA 
HETATM   19  N   UNL     1     -12.998  15.387  72.750  1.00  0.00    -0.402 NA 
HETATM   20  N   UNL     1     -12.334  15.179  71.603  1.00  0.00    -0.321 NA 
ENDBRANCH  14  15
ENDBRANCH  13  14
ENDBRANCH   4  13
BRANCH  10  21
HETATM   21  N   UNL     1      -7.799   7.239  68.129  1.00  0.00    -0.116 N  
HETATM   22  C   UNL     1      -6.881   6.330  67.653  1.00  0.00    -0.069 C  
HETATM   23  O   UNL     1      -5.860   6.022  68.260  1.00  0.00    -0.014 OA 
HETATM   24  H   UNL     1      -8.595   7.464  67.532  1.00  0.00     0.000 HD 
BRANCH  22  25
HETATM   25  C   UNL     1      -7.294   5.728  66.292  1.00  0.00    -0.078 C  
HETATM   26  H   UNL     1      -8.647   6.102  64.908  1.00  0.00     0.000 HD 
HETATM   27  O   UNL     1      -8.393   6.472  65.745  1.00  0.00    -0.131 OA 
BRANCH  25  28
HETATM   28  C   UNL     1      -7.685   4.272  66.411  1.00  0.00    -0.094 A  
HETATM   29  C   UNL     1      -6.788   3.274  66.002  1.00  0.00    -0.052 A  
HETATM   30  C   UNL     1      -7.133   1.924  66.100  1.00  0.00    -0.051 A  
HETATM   31  C   UNL     1      -8.373   1.554  66.617  1.00  0.00    -0.085 A  
HETATM   32  C   UNL     1      -9.267   2.532  67.046  1.00  0.00    -0.122 A  
HETATM   33  C   UNL     1      -8.924   3.882  66.947  1.00  0.00    -0.147 A  
ENDBRANCH  25  28
ENDBRANCH  22  25
ENDBRANCH  10  21
TORSDOF 6
ENDMDL
MODEL      142
REMARK 921   NORMALIZED FREE ENERGY PREDICTED BY IDOCK:   -4.78 KCAL/MOL
REMARK 922        TOTAL FREE ENERGY PREDICTED BY IDOCK:   -7.49 KCAL/MOL
REMARK 923 INTER-LIGAND FREE ENERGY PREDICTED BY IDOCK:   -6.50 KCAL/MOL
REMARK 924 INTRA-LIGAND FREE ENERGY PREDICTED BY IDOCK:   -0.99 KCAL/MOL
REMARK 927      BINDING AFFINITY PREDICTED BY RF-SCORE:    0.00 PKD
ROOT
HETATM    1  C   UNL     1      -7.257   8.637  69.255  1.00  0.00    -0.063 C  
HETATM    2  S   UNL     1      -8.642   9.309  70.213  1.00  0.00    -0.226 SA 
HETATM    3  C   UNL     1      -8.250   8.321  71.671  1.00  0.00    -0.137 C  
HETATM    4  C   UNL     1      -8.021   6.839  71.394  1.00  0.00    -0.109 C  
HETATM    5  O   UNL     1      -6.997   4.403  68.854  1.00  0.00    -0.049 OA 
HETATM    6  CA  UNL     1      -7.684   6.340  70.165  1.00  0.00    -0.098 C  
HETATM    7  N   UNL     1      -7.430   7.201  69.133  1.00  0.00    -0.092 N  
HETATM    8  O   UNL     1      -7.269   6.189  67.053  1.00  0.00    -0.071 OA 
HETATM    9  C   UNL     1      -7.675   4.842  69.928  1.00  0.00    -0.055 C  
HETATM   10  CA  UNL     1      -7.416   8.721  67.699  1.00  0.00    -0.093 C  
HETATM   11  C   UNL     1      -7.326   7.155  67.783  1.00  0.00    -0.097 C  
HETATM   12  OXT UNL     1      -8.188   4.029  70.683  1.00  0.00    -0.064 OA 
ENDROOT
BRANCH   4  13
HETATM   13  C   UNL     1      -8.356   6.014  72.634  1.00  0.00    -0.118 C  
BRANCH  13  14
HETATM   14  S   UNL     1     -10.056   5.403  72.742  1.00  0.00    -0.187 SA 
BRANCH  14  15
HETATM   15  C   UNL     1     -11.030   6.776  72.412  1.00  0.00    -0.246 A  
HETATM   16  N   UNL     1     -11.411   7.717  73.241  1.00  0.00    -0.261 NA 
HETATM   17  C   UNL     1     -11.421   6.313  69.952  1.00  0.00    -0.389 C  
HETATM   18  N   UNL     1     -12.214   8.561  72.508  1.00  0.00    -0.371 NA 
HETATM   19  N   UNL     1     -12.313   8.145  71.252  1.00  0.00    -0.293 NA 
HETATM   20  N   UNL     1     -11.566   7.033  71.186  1.00  0.00    -0.294 NA 
ENDBRANCH  14  15
ENDBRANCH  13  14
ENDBRANCH   4  13
BRANCH  10  21
HETATM   21  N   UNL     1      -8.711   9.258  67.226  1.00  0.00    -0.127 N  
HETATM   22  C   UNL     1      -8.875  10.470  66.591  1.00  0.00    -0.136 C  
HETATM   23  O   UNL     1      -7.956  11.260  66.399  1.00  0.00    -0.164 OA 
HETATM   24  H   UNL     1      -9.544   8.689  67.380  1.00  0.00     0.000 HD 
BRANCH  22  25
HETATM   25  C   UNL     1     -10.331  10.707  66.133  1.00  0.00    -0.227 C  
HETATM   26  H   UNL     1     -11.275  10.958  64.421  1.00  0.00     0.000 HD 
HETATM   27  O   UNL     1     -10.380  10.813  64.703  1.00  0.00    -0.335 OA 
BRANCH  25  28
HETATM   28  C   UNL     1     -10.924  11.955  66.749  1.00  0.00    -0.337 A  
HETATM   29  C   UNL     1     -10.818  12.168  68.131  1.00  0.00    -0.256 A  
HETATM   30  C   UNL     1     -11.362  13.313  68.718  1.00  0.00    -0.331 A  
HETATM   31  C   UNL     1     -12.010  14.262  67.931  1.00  0.00    -0.364 A  
HETATM   32  C   UNL     1     -12.107  14.074  66.554  1.00  0.00    -0.488 A  
HETATM   33  C   UNL     1     -11.565  12.931  65.966  1.00  0.00    -0.424 A  
ENDBRANCH  25  28
ENDBRANCH  22  25
ENDBRANCH  10  21
TORSDOF 6
ENDMDL
MODEL      143
REMARK 921   NORMALIZED FREE ENERGY PREDICTED BY IDOCK:   -4.76 KCAL/MOL
REMARK 922        TOTAL FREE ENERGY PREDICTED BY IDOCK:   -7.47 KCAL/MOL
REMARK 923 INTER-LIGAND FREE ENERGY PREDICTED BY IDOCK:   -7.56 KCAL/MOL
REMARK 924 INTRA-LIGAND FREE ENERGY PREDICTED BY IDOCK:    0.09 KCAL/MOL
REMARK 927      BINDING AFFINITY PREDICTED BY RF-SCORE:    0.00 PKD
ROOT
HETATM    1  C   UNL     1      -7.334  10.056  68.408  1.00  0.00    -0.077 C  
HETATM    2  S   UNL     1      -8.980  10.473  67.773  1.00  0.00    -0.132 SA 
HETATM    3  C   UNL     1      -8.390  11.943  66.908  1.00  0.00    -0.169 C  
HETATM    4  C   UNL     1      -7.522  12.871  67.750  1.00  0.00    -0.136 C  
HETATM    5  O   UNL     1      -5.255  13.044  70.624  1.00  0.00    -0.108 OA 
HETATM    6  CA  UNL     1      -6.855  12.473  68.877  1.00  0.00    -0.098 C  
HETATM    7  N   UNL     1      -6.865  11.153  69.236  1.00  0.00    -0.099 N  
HETATM    8  O   UNL     1      -6.033  10.728  71.358  1.00  0.00    -0.343 OA 
HETATM    9  C   UNL     1      -6.182  13.500  69.767  1.00  0.00    -0.116 C  
HETATM   10  CA  UNL     1      -7.320   9.166  69.697  1.00  0.00    -0.065 C  
HETATM   11  C   UNL     1      -6.585  10.403  70.329  1.00  0.00    -0.141 C  
HETATM   12  OXT UNL     1      -6.391  14.702  69.698  1.00  0.00    -0.119 OA 
ENDROOT
BRANCH   4  13
HETATM   13  C   UNL     1      -7.625  14.303  67.230  1.00  0.00    -0.092 C  
BRANCH  13  14
HETATM   14  S   UNL     1      -9.154  15.183  67.636  1.00  0.00    -0.183 SA 
BRANCH  14  15
HETATM   15  C   UNL     1     -10.289  14.636  66.472  1.00  0.00    -0.282 A  
HETATM   16  N   UNL     1     -10.149  14.577  65.170  1.00  0.00    -0.373 NA 
HETATM   17  C   UNL     1     -12.157  14.062  68.084  1.00  0.00    -0.272 C  
HETATM   18  N   UNL     1     -11.352  14.117  64.684  1.00  0.00    -0.371 NA 
HETATM   19  N   UNL     1     -12.205  13.891  65.674  1.00  0.00    -0.424 NA 
HETATM   20  N   UNL     1     -11.541  14.207  66.795  1.00  0.00    -0.372 NA 
ENDBRANCH  14  15
ENDBRANCH  13  14
ENDBRANCH   4  13
BRANCH  10  21
HETATM   21  N   UNL     1      -8.651   8.860  70.267  1.00  0.00    -0.151 N  
HETATM   22  C   UNL     1      -9.480   7.850  69.830  1.00  0.00    -0.163 C  
HETATM   23  O   UNL     1      -9.214   7.125  68.876  1.00  0.00    -0.139 OA 
HETATM   24  H   UNL     1      -8.979   9.439  71.040  1.00  0.00     0.000 HD 
BRANCH  22  25
HETATM   25  C   UNL     1     -10.759   7.720  70.687  1.00  0.00    -0.231 C  
HETATM   26  H   UNL     1     -12.434   6.684  70.619  1.00  0.00     0.000 HD 
HETATM   27  O   UNL     1     -11.648   6.763  70.092  1.00  0.00    -0.354 OA 
BRANCH  25  28
HETATM   28  C   UNL     1     -11.475   9.044  70.839  1.00  0.00    -0.347 A  
HETATM   29  C   UNL     1     -12.378   9.231  71.896  1.00  0.00    -0.454 A  
HETATM   30  C   UNL     1     -13.051  10.444  72.050  1.00  0.00    -0.521 A  
HETATM   31  C   UNL     1     -12.825  11.489  71.156  1.00  0.00    -0.414 A  
HETATM   32  C   UNL     1     -11.918  11.326  70.113  1.00  0.00    -0.452 A  
HETATM   33  C   UNL     1     -11.244  10.114  69.956  1.00  0.00    -0.361 A  
ENDBRANCH  25  28
ENDBRANCH  22  25
ENDBRANCH  10  21
TORSDOF 6
ENDMDL
MODEL      144
REMARK 921   NORMALIZED FREE ENERGY PREDICTED BY IDOCK:   -4.74 KCAL/MOL
REMARK 922        TOTAL FREE ENERGY PREDICTED BY IDOCK:   -7.45 KCAL/MOL
REMARK 923 INTER-LIGAND FREE ENERGY PREDICTED BY IDOCK:   -7.28 KCAL/MOL
REMARK 924 INTRA-LIGAND FREE ENERGY PREDICTED BY IDOCK:   -0.17 KCAL/MOL
REMARK 927      BINDING AFFINITY PREDICTED BY RF-SCORE:    0.00 PKD
ROOT
HETATM    1  C   UNL     1     -11.899  12.466  65.929  1.00  0.00    -0.405 C  
HETATM    2  S   UNL     1     -10.483  12.644  64.812  1.00  0.00    -0.330 SA 
HETATM    3  C   UNL     1      -9.993  10.916  64.986  1.00  0.00    -0.298 C  
HETATM    4  C   UNL     1      -9.910  10.420  66.425  1.00  0.00    -0.266 C  
HETATM    5  O   UNL     1     -11.158  10.927  69.833  1.00  0.00    -0.266 OA 
HETATM    6  CA  UNL     1     -10.555  11.017  67.473  1.00  0.00    -0.227 C  
HETATM    7  N   UNL     1     -11.412  12.056  67.234  1.00  0.00    -0.330 N  
HETATM    8  O   UNL     1     -12.100  13.192  69.135  1.00  0.00    -0.294 OA 
HETATM    9  C   UNL     1     -10.257  10.587  68.897  1.00  0.00    -0.208 C  
HETATM   10  CA  UNL     1     -12.391  13.791  66.603  1.00  0.00    -0.357 C  
HETATM   11  C   UNL     1     -12.021  13.044  67.935  1.00  0.00    -0.291 C  
HETATM   12  OXT UNL     1      -9.293   9.907  69.215  1.00  0.00    -0.181 OA 
ENDROOT
BRANCH   4  13
HETATM   13  C   UNL     1      -8.909   9.271  66.528  1.00  0.00    -0.133 C  
BRANCH  13  14
HETATM   14  S   UNL     1      -8.810   8.178  65.089  1.00  0.00     0.166 SA 
BRANCH  14  15
HETATM   15  C   UNL     1      -8.316   6.665  65.729  1.00  0.00    -0.143 A  
HETATM   16  N   UNL     1      -7.126   6.116  65.684  1.00  0.00    -0.071 NA 
HETATM   17  C   UNL     1     -10.557   5.968  66.682  1.00  0.00    -0.245 C  
HETATM   18  N   UNL     1      -7.256   4.888  66.292  1.00  0.00    -0.075 NA 
HETATM   19  N   UNL     1      -8.501   4.697  66.708  1.00  0.00    -0.106 NA 
HETATM   20  N   UNL     1      -9.166   5.811  66.364  1.00  0.00    -0.148 NA 
ENDBRANCH  14  15
ENDBRANCH  13  14
ENDBRANCH   4  13
BRANCH  10  21
HETATM   21  N   UNL     1     -11.579  14.992  66.302  1.00  0.00    -0.231 N  
HETATM   22  C   UNL     1     -11.045  15.838  67.248  1.00  0.00    -0.211 C  
HETATM   23  O   UNL     1     -11.236  15.707  68.453  1.00  0.00    -0.315 OA 
HETATM   24  H   UNL     1     -11.401  15.208  65.320  1.00  0.00     0.000 HD 
BRANCH  22  25
HETATM   25  C   UNL     1     -10.167  16.945  66.625  1.00  0.00    -0.312 C  
HETATM   26  H   UNL     1      -9.503  17.411  64.829  1.00  0.00     0.000 HD 
HETATM   27  O   UNL     1     -10.044  16.730  65.211  1.00  0.00    -0.577 OA 
BRANCH  25  28
HETATM   28  C   UNL     1      -8.788  16.992  67.247  1.00  0.00    -0.221 A  
HETATM   29  C   UNL     1      -7.813  16.065  66.850  1.00  0.00    -0.284 A  
HETATM   30  C   UNL     1      -6.536  16.091  67.416  1.00  0.00    -0.224 A  
HETATM   31  C   UNL     1      -6.215  17.047  68.377  1.00  0.00    -0.145 A  
HETATM   32  C   UNL     1      -7.166  17.986  68.768  1.00  0.00    -0.283 A  
HETATM   33  C   UNL     1      -8.444  17.962  68.204  1.00  0.00    -0.268 A  
ENDBRANCH  25  28
ENDBRANCH  22  25
ENDBRANCH  10  21
TORSDOF 6
ENDMDL
MODEL      145
REMARK 921   NORMALIZED FREE ENERGY PREDICTED BY IDOCK:   -4.72 KCAL/MOL
REMARK 922        TOTAL FREE ENERGY PREDICTED BY IDOCK:   -7.42 KCAL/MOL
REMARK 923 INTER-LIGAND FREE ENERGY PREDICTED BY IDOCK:   -6.31 KCAL/MOL
REMARK 924 INTRA-LIGAND FREE ENERGY PREDICTED BY IDOCK:   -1.11 KCAL/MOL
REMARK 927      BINDING AFFINITY PREDICTED BY RF-SCORE:    0.00 PKD
ROOT
HETATM    1  C   UNL     1      -7.441   8.719  66.430  1.00  0.00    -0.087 C  
HETATM    2  S   UNL     1      -8.182   9.757  67.718  1.00  0.00    -0.114 SA 
HETATM    3  C   UNL     1      -7.445   8.800  69.060  1.00  0.00    -0.081 C  
HETATM    4  C   UNL     1      -7.632   7.292  68.943  1.00  0.00    -0.103 C  
HETATM    5  O   UNL     1      -8.175   4.524  66.602  1.00  0.00    -0.103 OA 
HETATM    6  CA  UNL     1      -7.907   6.649  67.767  1.00  0.00    -0.112 C  
HETATM    7  N   UNL     1      -7.920   7.358  66.597  1.00  0.00    -0.118 N  
HETATM    8  O   UNL     1      -8.785   6.205  64.782  1.00  0.00    -0.001 OA 
HETATM    9  C   UNL     1      -8.279   5.178  67.771  1.00  0.00    -0.098 C  
HETATM   10  CA  UNL     1      -8.179   8.737  65.048  1.00  0.00    -0.155 C  
HETATM   11  C   UNL     1      -8.365   7.202  65.327  1.00  0.00    -0.096 C  
HETATM   12  OXT UNL     1      -8.599   4.560  68.775  1.00  0.00    -0.084 OA 
ENDROOT
BRANCH   4  13
HETATM   13  C   UNL     1      -7.604   6.650  70.328  1.00  0.00    -0.096 C  
BRANCH  13  14
HETATM   14  S   UNL     1      -8.432   7.574  71.645  1.00  0.00    -0.112 SA 
BRANCH  14  15
HETATM   15  C   UNL     1     -10.103   7.276  71.397  1.00  0.00    -0.187 A  
HETATM   16  N   UNL     1     -10.799   7.431  70.296  1.00  0.00    -0.242 NA 
HETATM   17  C   UNL     1     -10.650   6.514  73.750  1.00  0.00    -0.266 C  
HETATM   18  N   UNL     1     -12.096   7.106  70.624  1.00  0.00    -0.280 NA 
HETATM   19  N   UNL     1     -12.186   6.751  71.899  1.00  0.00    -0.341 NA 
HETATM   20  N   UNL     1     -10.939   6.848  72.384  1.00  0.00    -0.236 NA 
ENDBRANCH  14  15
ENDBRANCH  13  14
ENDBRANCH   4  13
BRANCH  10  21
HETATM   21  N   UNL     1      -9.427   9.531  65.011  1.00  0.00    -0.413 N  
HETATM   22  C   UNL     1      -9.704  10.519  64.091  1.00  0.00    -0.327 C  
HETATM   23  O   UNL     1      -8.908  10.879  63.229  1.00  0.00    -0.188 OA 
HETATM   24  H   UNL     1     -10.136   9.333  65.719  1.00  0.00     0.000 HD 
BRANCH  22  25
HETATM   25  C   UNL     1     -11.126  11.098  64.254  1.00  0.00    -0.105 C  
HETATM   26  H   UNL     1     -12.522  11.832  63.071  1.00  0.00     0.000 HD 
HETATM   27  O   UNL     1     -11.647  11.476  62.970  1.00  0.00    -0.089 OA 
BRANCH  25  28
HETATM   28  C   UNL     1     -11.149  12.296  65.176  1.00  0.00    -0.361 A  
HETATM   29  C   UNL     1     -11.622  12.156  66.489  1.00  0.00    -0.425 A  
HETATM   30  C   UNL     1     -11.653  13.252  67.355  1.00  0.00    -0.396 A  
HETATM   31  C   UNL     1     -11.205  14.498  66.922  1.00  0.00    -0.340 A  
HETATM   32  C   UNL     1     -10.715  14.650  65.628  1.00  0.00    -0.340 A  
HETATM   33  C   UNL     1     -10.683  13.556  64.761  1.00  0.00    -0.412 A  
ENDBRANCH  25  28
ENDBRANCH  22  25
ENDBRANCH  10  21
TORSDOF 6
ENDMDL
MODEL      146
REMARK 921   NORMALIZED FREE ENERGY PREDICTED BY IDOCK:   -4.72 KCAL/MOL
REMARK 922        TOTAL FREE ENERGY PREDICTED BY IDOCK:   -7.41 KCAL/MOL
REMARK 923 INTER-LIGAND FREE ENERGY PREDICTED BY IDOCK:   -6.02 KCAL/MOL
REMARK 924 INTRA-LIGAND FREE ENERGY PREDICTED BY IDOCK:   -1.39 KCAL/MOL
REMARK 927      BINDING AFFINITY PREDICTED BY RF-SCORE:    0.00 PKD
ROOT
HETATM    1  C   UNL     1      -9.548  10.432  69.784  1.00  0.00    -0.026 C  
HETATM    2  S   UNL     1      -8.026   9.851  68.987  1.00  0.00    -0.110 SA 
HETATM    3  C   UNL     1      -7.402  11.523  68.721  1.00  0.00    -0.115 C  
HETATM    4  C   UNL     1      -8.403  12.484  68.089  1.00  0.00    -0.175 C  
HETATM    5  O   UNL     1     -11.967  13.209  67.640  1.00  0.00    -0.357 OA 
HETATM    6  CA  UNL     1      -9.758  12.298  68.121  1.00  0.00    -0.213 C  
HETATM    7  N   UNL     1     -10.280  11.257  68.839  1.00  0.00    -0.199 N  
HETATM    8  O   UNL     1     -12.533  10.861  68.461  1.00  0.00    -0.375 OA 
HETATM    9  C   UNL     1     -10.669  13.187  67.296  1.00  0.00    -0.254 C  
HETATM   10  CA  UNL     1     -10.751   9.431  69.739  1.00  0.00    -0.234 C  
HETATM   11  C   UNL     1     -11.452  10.584  68.935  1.00  0.00    -0.226 C  
HETATM   12  OXT UNL     1     -10.277  13.916  66.397  1.00  0.00    -0.278 OA 
ENDROOT
BRANCH   4  13
HETATM   13  C   UNL     1      -7.667  13.578  67.318  1.00  0.00    -0.077 C  
BRANCH  13  14
HETATM   14  S   UNL     1      -7.170  15.027  68.282  1.00  0.00    -0.122 SA 
BRANCH  14  15
HETATM   15  C   UNL     1      -8.642  15.829  68.645  1.00  0.00    -0.194 A  
HETATM   16  N   UNL     1      -9.447  15.625  69.659  1.00  0.00    -0.283 NA 
HETATM   17  C   UNL     1      -8.662  17.390  66.650  1.00  0.00    -0.260 C  
HETATM   18  N   UNL     1     -10.508  16.482  69.475  1.00  0.00    -0.308 NA 
HETATM   19  N   UNL     1     -10.347  17.201  68.372  1.00  0.00    -0.340 NA 
HETATM   20  N   UNL     1      -9.176  16.801  67.854  1.00  0.00    -0.222 NA 
ENDBRANCH  14  15
ENDBRANCH  13  14
ENDBRANCH   4  13
BRANCH  10  21
HETATM   21  N   UNL     1     -10.507   8.185  68.979  1.00  0.00    -0.264 N  
HETATM   22  C   UNL     1     -10.490   6.920  69.525  1.00  0.00    -0.223 C  
HETATM   23  O   UNL     1     -10.628   6.703  70.725  1.00  0.00    -0.215 OA 
HETATM   24  H   UNL     1     -10.338   8.268  67.976  1.00  0.00     0.000 HD 
BRANCH  22  25
HETATM   25  C   UNL     1     -10.305   5.817  68.461  1.00  0.00    -0.215 C  
HETATM   26  H   UNL     1      -9.993   3.871  68.449  1.00  0.00     0.000 HD 
HETATM   27  O   UNL     1     -10.107   4.549  69.104  1.00  0.00    -0.154 OA 
BRANCH  25  28
HETATM   28  C   UNL     1      -9.135   6.103  67.546  1.00  0.00    -0.109 A  
HETATM   29  C   UNL     1      -7.825   5.991  68.034  1.00  0.00    -0.106 A  
HETATM   30  C   UNL     1      -6.732   6.254  67.205  1.00  0.00    -0.060 A  
HETATM   31  C   UNL     1      -6.934   6.624  65.877  1.00  0.00    -0.061 A  
HETATM   32  C   UNL     1      -8.228   6.722  65.372  1.00  0.00    -0.134 A  
HETATM   33  C   UNL     1      -9.322   6.459  66.199  1.00  0.00    -0.110 A  
ENDBRANCH  25  28
ENDBRANCH  22  25
ENDBRANCH  10  21
TORSDOF 6
ENDMDL
MODEL      147
REMARK 921   NORMALIZED FREE ENERGY PREDICTED BY IDOCK:   -4.71 KCAL/MOL
REMARK 922        TOTAL FREE ENERGY PREDICTED BY IDOCK:   -7.41 KCAL/MOL
REMARK 923 INTER-LIGAND FREE ENERGY PREDICTED BY IDOCK:   -7.43 KCAL/MOL
REMARK 924 INTRA-LIGAND FREE ENERGY PREDICTED BY IDOCK:    0.03 KCAL/MOL
REMARK 927      BINDING AFFINITY PREDICTED BY RF-SCORE:    0.00 PKD
ROOT
HETATM    1  C   UNL     1      -8.924  12.425  67.998  1.00  0.00    -0.194 C  
HETATM    2  S   UNL     1      -8.789  10.910  68.984  1.00  0.00    -0.038 SA 
HETATM    3  C   UNL     1      -7.782  10.068  67.746  1.00  0.00    -0.090 C  
HETATM    4  C   UNL     1      -8.331  10.136  66.326  1.00  0.00    -0.130 C  
HETATM    5  O   UNL     1     -10.426  12.073  64.026  1.00  0.00    -0.307 OA 
HETATM    6  CA  UNL     1      -9.219  11.085  65.899  1.00  0.00    -0.199 C  
HETATM    7  N   UNL     1      -9.574  12.104  66.740  1.00  0.00    -0.206 N  
HETATM    8  O   UNL     1     -11.368  13.377  66.006  1.00  0.00    -0.301 OA 
HETATM    9  C   UNL     1      -9.870  10.962  64.534  1.00  0.00    -0.300 C  
HETATM   10  CA  UNL     1     -10.159  13.331  68.327  1.00  0.00    -0.250 C  
HETATM   11  C   UNL     1     -10.544  13.046  66.831  1.00  0.00    -0.254 C  
HETATM   12  OXT UNL     1      -9.858   9.940  63.864  1.00  0.00    -0.094 OA 
ENDROOT
BRANCH   4  13
HETATM   13  C   UNL     1      -7.854   8.930  65.519  1.00  0.00    -0.100 C  
BRANCH  13  14
HETATM   14  S   UNL     1      -7.423   7.458  66.480  1.00  0.00    -0.086 SA 
BRANCH  14  15
HETATM   15  C   UNL     1      -8.719   6.368  66.206  1.00  0.00    -0.143 A  
HETATM   16  N   UNL     1      -8.772   5.370  65.358  1.00  0.00    -0.153 NA 
HETATM   17  C   UNL     1     -10.332   7.351  67.894  1.00  0.00    -0.204 C  
HETATM   18  N   UNL     1     -10.036   4.837  65.484  1.00  0.00    -0.166 NA 
HETATM   19  N   UNL     1     -10.735   5.495  66.400  1.00  0.00    -0.256 NA 
HETATM   20  N   UNL     1      -9.911   6.449  66.860  1.00  0.00    -0.157 NA 
ENDBRANCH  14  15
ENDBRANCH  13  14
ENDBRANCH   4  13
BRANCH  10  21
HETATM   21  N   UNL     1     -11.092  12.782  69.338  1.00  0.00    -0.450 N  
HETATM   22  C   UNL     1     -11.992  11.765  69.108  1.00  0.00    -0.293 C  
HETATM   23  O   UNL     1     -12.148  11.239  68.011  1.00  0.00    -0.638 OA 
HETATM   24  H   UNL     1     -11.065  13.188  70.275  1.00  0.00     0.000 HD 
BRANCH  22  25
HETATM   25  C   UNL     1     -12.756  11.351  70.385  1.00  0.00    -0.092 C  
HETATM   26  H   UNL     1     -13.023  12.076  72.198  1.00  0.00     0.000 HD 
HETATM   27  O   UNL     1     -12.553  12.331  71.413  1.00  0.00    -0.307 OA 
BRANCH  25  28
HETATM   28  C   UNL     1     -12.319   9.995  70.892  1.00  0.00    -0.438 A  
HETATM   29  C   UNL     1     -13.274   8.990  71.106  1.00  0.00    -0.167 A  
HETATM   30  C   UNL     1     -12.889   7.732  71.578  1.00  0.00    -0.357 A  
HETATM   31  C   UNL     1     -11.547   7.461  71.832  1.00  0.00    -0.307 A  
HETATM   32  C   UNL     1     -10.584   8.441  71.606  1.00  0.00    -0.327 A  
HETATM   33  C   UNL     1     -10.966   9.699  71.135  1.00  0.00    -0.430 A  
ENDBRANCH  25  28
ENDBRANCH  22  25
ENDBRANCH  10  21
TORSDOF 6
ENDMDL
MODEL      148
REMARK 921   NORMALIZED FREE ENERGY PREDICTED BY IDOCK:   -4.69 KCAL/MOL
REMARK 922        TOTAL FREE ENERGY PREDICTED BY IDOCK:   -7.38 KCAL/MOL
REMARK 923 INTER-LIGAND FREE ENERGY PREDICTED BY IDOCK:   -6.05 KCAL/MOL
REMARK 924 INTRA-LIGAND FREE ENERGY PREDICTED BY IDOCK:   -1.32 KCAL/MOL
REMARK 927      BINDING AFFINITY PREDICTED BY RF-SCORE:    0.00 PKD
ROOT
HETATM    1  C   UNL     1      -6.815   6.889  67.921  1.00  0.00    -0.081 C  
HETATM    2  S   UNL     1      -6.705   8.527  68.689  1.00  0.00    -0.060 SA 
HETATM    3  C   UNL     1      -7.409   7.958  70.251  1.00  0.00    -0.065 C  
HETATM    4  C   UNL     1      -8.692   7.146  70.112  1.00  0.00    -0.141 C  
HETATM    5  O   UNL     1     -10.623   4.976  67.877  1.00  0.00    -0.039 OA 
HETATM    6  CA  UNL     1      -9.063   6.503  68.963  1.00  0.00    -0.132 C  
HETATM    7  N   UNL     1      -8.209   6.481  67.895  1.00  0.00    -0.115 N  
HETATM    8  O   UNL     1      -9.150   5.702  65.925  1.00  0.00    -0.157 OA 
HETATM    9  C   UNL     1     -10.446   5.890  68.845  1.00  0.00    -0.259 C  
HETATM   10  CA  UNL     1      -6.855   6.886  66.355  1.00  0.00    -0.064 C  
HETATM   11  C   UNL     1      -8.258   6.211  66.568  1.00  0.00    -0.111 C  
HETATM   12  OXT UNL     1     -11.367   6.136  69.610  1.00  0.00    -0.414 OA 
ENDROOT
BRANCH   4  13
HETATM   13  C   UNL     1      -9.538   7.280  71.376  1.00  0.00    -0.160 C  
BRANCH  13  14
HETATM   14  S   UNL     1      -9.715   8.956  72.035  1.00  0.00    -0.097 SA 
BRANCH  14  15
HETATM   15  C   UNL     1     -10.638   9.789  70.854  1.00  0.00    -0.274 A  
HETATM   16  N   UNL     1     -10.239  10.260  69.698  1.00  0.00    -0.238 NA 
HETATM   17  C   UNL     1     -12.846   9.771  72.096  1.00  0.00    -0.360 C  
HETATM   18  N   UNL     1     -11.337  10.882  69.147  1.00  0.00    -0.258 NA 
HETATM   19  N   UNL     1     -12.388  10.783  69.949  1.00  0.00    -0.316 NA 
HETATM   20  N   UNL     1     -11.957  10.092  71.016  1.00  0.00    -0.346 NA 
ENDBRANCH  14  15
ENDBRANCH  13  14
ENDBRANCH   4  13
BRANCH  10  21
HETATM   21  N   UNL     1      -6.884   8.224  65.722  1.00  0.00    -0.063 N  
HETATM   22  C   UNL     1      -7.396   8.491  64.471  1.00  0.00    -0.093 C  
HETATM   23  O   UNL     1      -7.840   7.624  63.725  1.00  0.00    -0.122 OA 
HETATM   24  H   UNL     1      -6.497   9.006  66.251  1.00  0.00     0.000 HD 
BRANCH  22  25
HETATM   25  C   UNL     1      -7.370   9.997  64.130  1.00  0.00    -0.132 C  
HETATM   26  H   UNL     1      -6.349  11.582  64.705  1.00  0.00     0.000 HD 
HETATM   27  O   UNL     1      -6.365  10.656  64.915  1.00  0.00    -0.072 OA 
BRANCH  25  28
HETATM   28  C   UNL     1      -8.709  10.657  64.376  1.00  0.00    -0.145 A  
HETATM   29  C   UNL     1      -9.473  11.111  63.290  1.00  0.00    -0.346 A  
HETATM   30  C   UNL     1     -10.709  11.725  63.498  1.00  0.00    -0.501 A  
HETATM   31  C   UNL     1     -11.203  11.887  64.791  1.00  0.00    -0.356 A  
HETATM   32  C   UNL     1     -10.466  11.425  65.878  1.00  0.00    -0.309 A  
HETATM   33  C   UNL     1      -9.229  10.810  65.673  1.00  0.00    -0.226 A  
ENDBRANCH  25  28
ENDBRANCH  22  25
ENDBRANCH  10  21
TORSDOF 6
ENDMDL
MODEL      149
REMARK 921   NORMALIZED FREE ENERGY PREDICTED BY IDOCK:   -4.67 KCAL/MOL
REMARK 922        TOTAL FREE ENERGY PREDICTED BY IDOCK:   -7.35 KCAL/MOL
REMARK 923 INTER-LIGAND FREE ENERGY PREDICTED BY IDOCK:   -6.48 KCAL/MOL
REMARK 924 INTRA-LIGAND FREE ENERGY PREDICTED BY IDOCK:   -0.87 KCAL/MOL
REMARK 927      BINDING AFFINITY PREDICTED BY RF-SCORE:    0.00 PKD
ROOT
HETATM    1  C   UNL     1      -7.685  11.938  67.362  1.00  0.00    -0.158 C  
HETATM    2  S   UNL     1      -6.941  12.223  68.990  1.00  0.00    -0.041 SA 
HETATM    3  C   UNL     1      -6.685  10.463  69.298  1.00  0.00    -0.067 C  
HETATM    4  C   UNL     1      -7.906   9.588  69.041  1.00  0.00    -0.077 C  
HETATM    5  O   UNL     1     -11.033   9.309  67.150  1.00  0.00    -0.138 OA 
HETATM    6  CA  UNL     1      -8.950   9.958  68.239  1.00  0.00    -0.119 C  
HETATM    7  N   UNL     1      -8.878  11.127  67.533  1.00  0.00    -0.138 N  
HETATM    8  O   UNL     1     -10.873  11.784  66.552  1.00  0.00    -0.257 OA 
HETATM    9  C   UNL     1     -10.214   9.120  68.198  1.00  0.00    -0.207 C  
HETATM   10  CA  UNL     1      -8.620  13.083  66.843  1.00  0.00    -0.119 C  
HETATM   11  C   UNL     1      -9.717  11.959  66.869  1.00  0.00    -0.200 C  
HETATM   12  OXT UNL     1     -10.486   8.256  69.020  1.00  0.00    -0.219 OA 
ENDROOT
BRANCH   4  13
HETATM   13  C   UNL     1      -7.844   8.331  69.907  1.00  0.00    -0.102 C  
BRANCH  13  14
HETATM   14  S   UNL     1      -8.119   8.578  71.679  1.00  0.00    -0.140 SA 
BRANCH  14  15
HETATM   15  C   UNL     1      -9.147   7.285  72.140  1.00  0.00    -0.132 A  
HETATM   16  N   UNL     1     -10.448   7.303  72.304  1.00  0.00    -0.208 NA 
HETATM   17  C   UNL     1      -7.354   5.512  72.375  1.00  0.00    -0.095 C  
HETATM   18  N   UNL     1     -10.791   6.036  72.721  1.00  0.00    -0.235 NA 
HETATM   19  N   UNL     1      -9.719   5.259  72.801  1.00  0.00    -0.149 NA 
HETATM   20  N   UNL     1      -8.689   6.035  72.430  1.00  0.00    -0.127 NA 
ENDBRANCH  14  15
ENDBRANCH  13  14
ENDBRANCH   4  13
BRANCH  10  21
HETATM   21  N   UNL     1      -8.833  14.200  67.790  1.00  0.00    -0.175 N  
HETATM   22  C   UNL     1      -8.166  15.405  67.749  1.00  0.00    -0.149 C  
HETATM   23  O   UNL     1      -7.278  15.656  66.941  1.00  0.00    -0.179 OA 
HETATM   24  H   UNL     1      -9.526  14.069  68.528  1.00  0.00     0.000 HD 
BRANCH  22  25
HETATM   25  C   UNL     1      -8.678  16.402  68.811  1.00  0.00    -0.246 C  
HETATM   26  H   UNL     1     -10.114  16.451  70.161  1.00  0.00     0.000 HD 
HETATM   27  O   UNL     1      -9.799  15.838  69.508  1.00  0.00    -0.259 OA 
BRANCH  25  28
HETATM   28  C   UNL     1      -9.083  17.725  68.199  1.00  0.00    -0.274 A  
HETATM   29  C   UNL     1     -10.375  17.886  67.678  1.00  0.00    -0.387 A  
HETATM   30  C   UNL     1     -10.765  19.098  67.105  1.00  0.00    -0.567 A  
HETATM   31  C   UNL     1      -9.873  20.167  67.053  1.00  0.00    -0.595 A  
HETATM   32  C   UNL     1      -8.593  20.030  67.583  1.00  0.00    -0.385 A  
HETATM   33  C   UNL     1      -8.200  18.818  68.156  1.00  0.00    -0.332 A  
ENDBRANCH  25  28
ENDBRANCH  22  25
ENDBRANCH  10  21
TORSDOF 6
ENDMDL
MODEL      150
REMARK 921   NORMALIZED FREE ENERGY PREDICTED BY IDOCK:   -4.64 KCAL/MOL
REMARK 922        TOTAL FREE ENERGY PREDICTED BY IDOCK:   -7.31 KCAL/MOL
REMARK 923 INTER-LIGAND FREE ENERGY PREDICTED BY IDOCK:   -6.39 KCAL/MOL
REMARK 924 INTRA-LIGAND FREE ENERGY PREDICTED BY IDOCK:   -0.92 KCAL/MOL
REMARK 927      BINDING AFFINITY PREDICTED BY RF-SCORE:    0.00 PKD
ROOT
HETATM    1  C   UNL     1      -9.439  11.215  69.619  1.00  0.00     0.628 C  
HETATM    2  S   UNL     1      -8.481  11.505  68.108  1.00  0.00    -0.160 SA 
HETATM    3  C   UNL     1      -8.282  13.267  68.447  1.00  0.00    -0.134 C  
HETATM    4  C   UNL     1      -9.570  13.994  68.814  1.00  0.00    -0.098 C  
HETATM    5  O   UNL     1     -12.922  13.591  70.241  1.00  0.00    -0.034 OA 
HETATM    6  CA  UNL     1     -10.687  13.366  69.294  1.00  0.00     0.024 C  
HETATM    7  N   UNL     1     -10.642  12.027  69.569  1.00  0.00     0.162 N  
HETATM    8  O   UNL     1     -12.708  11.062  69.989  1.00  0.00    -0.230 OA 
HETATM    9  C   UNL     1     -11.989  14.131  69.440  1.00  0.00    -0.337 C  
HETATM   10  CA  UNL     1     -10.369   9.955  69.591  1.00  0.00    -0.241 C  
HETATM   11  C   UNL     1     -11.513  11.013  69.793  1.00  0.00    -0.311 C  
HETATM   12  OXT UNL     1     -12.199  15.220  68.927  1.00  0.00    -0.226 OA 
ENDROOT
BRANCH   4  13
HETATM   13  C   UNL     1      -9.466  15.471  68.437  1.00  0.00    -0.196 C  
BRANCH  13  14
HETATM   14  S   UNL     1      -8.572  15.835  66.906  1.00  0.00    -0.272 SA 
BRANCH  14  15
HETATM   15  C   UNL     1      -9.795  16.262  65.783  1.00  0.00    -0.299 A  
HETATM   16  N   UNL     1     -10.468  15.474  64.979  1.00  0.00    -0.410 NA 
HETATM   17  C   UNL     1      -9.782  18.756  66.221  1.00  0.00    -0.330 C  
HETATM   18  N   UNL     1     -11.293  16.300  64.248  1.00  0.00    -0.823 NA 
HETATM   19  N   UNL     1     -11.130  17.566  64.607  1.00  0.00    -0.725 NA 
HETATM   20  N   UNL     1     -10.200  17.546  65.573  1.00  0.00    -0.612 NA 
ENDBRANCH  14  15
ENDBRANCH  13  14
ENDBRANCH   4  13
BRANCH  10  21
HETATM   21  N   UNL     1     -10.402   9.225  68.303  1.00  0.00    -0.209 N  
HETATM   22  C   UNL     1     -10.339   7.855  68.175  1.00  0.00    -0.200 C  
HETATM   23  O   UNL     1     -10.196   7.094  69.127  1.00  0.00    -0.182 OA 
HETATM   24  H   UNL     1     -10.477   9.777  67.448  1.00  0.00     0.000 HD 
BRANCH  22  25
HETATM   25  C   UNL     1     -10.493   7.389  66.710  1.00  0.00    -0.246 C  
HETATM   26  H   UNL     1     -10.778   5.682  65.768  1.00  0.00     0.000 HD 
HETATM   27  O   UNL     1     -10.684   5.967  66.669  1.00  0.00    -0.281 OA 
BRANCH  25  28
HETATM   28  C   UNL     1      -9.291   7.758  65.869  1.00  0.00    -0.026 A  
HETATM   29  C   UNL     1      -9.252   8.998  65.214  1.00  0.00    -0.205 A  
HETATM   30  C   UNL     1      -8.153   9.354  64.430  1.00  0.00    -0.138 A  
HETATM   31  C   UNL     1      -7.075   8.481  64.298  1.00  0.00    -0.082 A  
HETATM   32  C   UNL     1      -7.089   7.255  64.958  1.00  0.00    -0.064 A  
HETATM   33  C   UNL     1      -8.187   6.896  65.741  1.00  0.00    -0.132 A  
ENDBRANCH  25  28
ENDBRANCH  22  25
ENDBRANCH  10  21
TORSDOF 6
ENDMDL
MODEL      151
REMARK 921   NORMALIZED FREE ENERGY PREDICTED BY IDOCK:   -4.62 KCAL/MOL
REMARK 922        TOTAL FREE ENERGY PREDICTED BY IDOCK:   -7.29 KCAL/MOL
REMARK 923 INTER-LIGAND FREE ENERGY PREDICTED BY IDOCK:   -6.05 KCAL/MOL
REMARK 924 INTRA-LIGAND FREE ENERGY PREDICTED BY IDOCK:   -1.24 KCAL/MOL
REMARK 927      BINDING AFFINITY PREDICTED BY RF-SCORE:    0.00 PKD
ROOT
HETATM    1  C   UNL     1     -10.911   9.275  68.554  1.00  0.00    -0.074 C  
HETATM    2  S   UNL     1     -10.703  10.437  67.178  1.00  0.00    -0.229 SA 
HETATM    3  C   UNL     1      -9.718   9.277  66.209  1.00  0.00    -0.271 C  
HETATM    4  C   UNL     1      -8.575   8.619  66.973  1.00  0.00    -0.120 C  
HETATM    5  O   UNL     1      -7.391   7.618  70.294  1.00  0.00    -0.069 OA 
HETATM    6  CA  UNL     1      -8.528   8.523  68.336  1.00  0.00    -0.138 C  
HETATM    7  N   UNL     1      -9.599   8.938  69.079  1.00  0.00    -0.156 N  
HETATM    8  O   UNL     1      -9.196   9.073  71.358  1.00  0.00    -0.247 OA 
HETATM    9  C   UNL     1      -7.266   8.039  69.025  1.00  0.00    -0.078 C  
HETATM   10  CA  UNL     1     -11.224   9.930  69.942  1.00  0.00    -0.250 C  
HETATM   11  C   UNL     1      -9.873   9.251  70.369  1.00  0.00    -0.241 C  
HETATM   12  OXT UNL     1      -6.179   7.956  68.472  1.00  0.00    -0.041 OA 
ENDROOT
BRANCH   4  13
HETATM   13  C   UNL     1      -7.457   8.223  66.009  1.00  0.00    -0.077 C  
BRANCH  13  14
HETATM   14  S   UNL     1      -7.842   6.876  64.863  1.00  0.00    -0.125 SA 
BRANCH  14  15
HETATM   15  C   UNL     1      -8.825   5.804  65.772  1.00  0.00    -0.146 A  
HETATM   16  N   UNL     1     -10.128   5.670  65.734  1.00  0.00     0.131 NA 
HETATM   17  C   UNL     1      -6.967   4.705  67.097  1.00  0.00    -0.060 C  
HETATM   18  N   UNL     1     -10.436   4.720  66.682  1.00  0.00    -0.224 NA 
HETATM   19  N   UNL     1      -9.338   4.277  67.279  1.00  0.00    -0.151 NA 
HETATM   20  N   UNL     1      -8.327   4.947  66.707  1.00  0.00    -0.107 NA 
ENDBRANCH  14  15
ENDBRANCH  13  14
ENDBRANCH   4  13
BRANCH  10  21
HETATM   21  N   UNL     1     -11.222  11.411  69.956  1.00  0.00    -0.482 N  
HETATM   22  C   UNL     1     -12.165  12.192  70.586  1.00  0.00    -0.300 C  
HETATM   23  O   UNL     1     -13.144  11.732  71.164  1.00  0.00    -0.248 OA 
HETATM   24  H   UNL     1     -10.466  11.887  69.462  1.00  0.00     0.000 HD 
BRANCH  22  25
HETATM   25  C   UNL     1     -11.837  13.699  70.502  1.00  0.00    -0.203 C  
HETATM   26  H   UNL     1     -12.801  15.396  70.777  1.00  0.00     0.000 HD 
HETATM   27  O   UNL     1     -13.003  14.470  70.829  1.00  0.00    -0.352 OA 
BRANCH  25  28
HETATM   28  C   UNL     1     -11.343  14.096  69.128  1.00  0.00    -0.318 A  
HETATM   29  C   UNL     1     -12.147  13.861  68.003  1.00  0.00    -0.318 A  
HETATM   30  C   UNL     1     -11.706  14.218  66.727  1.00  0.00    -0.424 A  
HETATM   31  C   UNL     1     -10.461  14.821  66.560  1.00  0.00    -0.291 A  
HETATM   32  C   UNL     1      -9.659  15.078  67.668  1.00  0.00    -0.203 A  
HETATM   33  C   UNL     1     -10.098  14.722  68.945  1.00  0.00    -0.237 A  
ENDBRANCH  25  28
ENDBRANCH  22  25
ENDBRANCH  10  21
TORSDOF 6
ENDMDL
MODEL      152
REMARK 921   NORMALIZED FREE ENERGY PREDICTED BY IDOCK:   -4.55 KCAL/MOL
REMARK 922        TOTAL FREE ENERGY PREDICTED BY IDOCK:   -7.19 KCAL/MOL
REMARK 923 INTER-LIGAND FREE ENERGY PREDICTED BY IDOCK:   -6.32 KCAL/MOL
REMARK 924 INTRA-LIGAND FREE ENERGY PREDICTED BY IDOCK:   -0.87 KCAL/MOL
REMARK 927      BINDING AFFINITY PREDICTED BY RF-SCORE:    0.00 PKD
ROOT
HETATM    1  C   UNL     1      -8.417  14.122  66.583  1.00  0.00     0.127 C  
HETATM    2  S   UNL     1      -8.357  14.042  68.393  1.00  0.00    -0.153 SA 
HETATM    3  C   UNL     1      -9.469  12.623  68.473  1.00  0.00    -0.091 C  
HETATM    4  C   UNL     1     -10.744  12.766  67.650  1.00  0.00    -0.236 C  
HETATM    5  O   UNL     1     -12.250  14.413  64.742  1.00  0.00    -0.423 OA 
HETATM    6  CA  UNL     1     -10.877  13.633  66.600  1.00  0.00    -0.283 C  
HETATM    7  N   UNL     1      -9.792  14.350  66.175  1.00  0.00    -0.307 N  
HETATM    8  O   UNL     1     -10.286  16.040  64.667  1.00  0.00    -0.414 OA 
HETATM    9  C   UNL     1     -12.237  13.861  65.967  1.00  0.00    -0.462 C  
HETATM   10  CA  UNL     1      -8.073  15.519  65.963  1.00  0.00     0.922 C  
HETATM   11  C   UNL     1      -9.539  15.434  65.403  1.00  0.00    -0.126 C  
HETATM   12  OXT UNL     1     -13.292  13.517  66.478  1.00  0.00     0.655 OA 
ENDROOT
BRANCH   4  13
HETATM   13  C   UNL     1     -11.859  11.917  68.256  1.00  0.00    -0.277 C  
BRANCH  13  14
HETATM   14  S   UNL     1     -12.022  11.994  70.057  1.00  0.00    -0.272 SA 
BRANCH  14  15
HETATM   15  C   UNL     1     -12.382  13.637  70.388  1.00  0.00    -0.345 A  
HETATM   16  N   UNL     1     -12.074  14.694  69.675  1.00  0.00    -0.315 NA 
HETATM   17  C   UNL     1     -13.601  13.268  72.577  1.00  0.00    -0.532 C  
HETATM   18  N   UNL     1     -12.542  15.776  70.387  1.00  0.00    -0.352 NA 
HETATM   19  N   UNL     1     -13.132  15.384  71.508  1.00  0.00    -0.433 NA 
HETATM   20  N   UNL     1     -13.041  14.045  71.509  1.00  0.00    -0.346 NA 
ENDBRANCH  14  15
ENDBRANCH  13  14
ENDBRANCH   4  13
BRANCH  10  21
HETATM   21  N   UNL     1      -7.830  16.602  66.943  1.00  0.00    -0.200 N  
HETATM   22  C   UNL     1      -6.671  17.341  67.026  1.00  0.00    -0.185 C  
HETATM   23  O   UNL     1      -5.690  17.139  66.318  1.00  0.00    -0.285 OA 
HETATM   24  H   UNL     1      -8.575  16.815  67.606  1.00  0.00     0.000 HD 
BRANCH  22  25
HETATM   25  C   UNL     1      -6.757  18.461  68.087  1.00  0.00    -0.222 C  
HETATM   26  H   UNL     1      -6.535  18.609  70.040  1.00  0.00     0.000 HD 
HETATM   27  O   UNL     1      -6.482  17.920  69.388  1.00  0.00    -0.250 OA 
BRANCH  25  28
HETATM   28  C   UNL     1      -8.115  19.127  68.098  1.00  0.00    -0.351 A  
HETATM   29  C   UNL     1      -9.067  18.755  69.058  1.00  0.00    -0.157 A  
HETATM   30  C   UNL     1     -10.327  19.356  69.082  1.00  0.00    -0.065 A  
HETATM   31  C   UNL     1     -10.648  20.343  68.153  1.00  0.00    -0.077 A  
HETATM   32  C   UNL     1      -9.708  20.739  67.205  1.00  0.00    -0.457 A  
HETATM   33  C   UNL     1      -8.448  20.138  67.179  1.00  0.00    -0.403 A  
ENDBRANCH  25  28
ENDBRANCH  22  25
ENDBRANCH  10  21
TORSDOF 6
ENDMDL
MODEL      153
REMARK 921   NORMALIZED FREE ENERGY PREDICTED BY IDOCK:   -4.54 KCAL/MOL
REMARK 922        TOTAL FREE ENERGY PREDICTED BY IDOCK:   -7.17 KCAL/MOL
REMARK 923 INTER-LIGAND FREE ENERGY PREDICTED BY IDOCK:   -6.20 KCAL/MOL
REMARK 924 INTRA-LIGAND FREE ENERGY PREDICTED BY IDOCK:   -0.97 KCAL/MOL
REMARK 927      BINDING AFFINITY PREDICTED BY RF-SCORE:    0.00 PKD
ROOT
HETATM    1  C   UNL     1      -8.593  13.835  68.649  1.00  0.00    -0.057 C  
HETATM    2  S   UNL     1      -9.546  14.338  67.192  1.00  0.00    -0.254 SA 
HETATM    3  C   UNL     1      -9.783  12.640  66.630  1.00  0.00    -0.249 C  
HETATM    4  C   UNL     1      -8.512  11.800  66.590  1.00  0.00    -0.153 C  
HETATM    5  O   UNL     1      -5.162  11.386  68.020  1.00  0.00    -0.043 OA 
HETATM    6  CA  UNL     1      -7.386  12.090  67.311  1.00  0.00    -0.151 C  
HETATM    7  N   UNL     1      -7.406  13.126  68.205  1.00  0.00    -0.105 N  
HETATM    8  O   UNL     1      -5.324  13.721  69.035  1.00  0.00    -0.075 OA 
HETATM    9  C   UNL     1      -6.101  11.325  67.061  1.00  0.00    -0.108 C  
HETATM   10  CA  UNL     1      -7.638  14.930  69.235  1.00  0.00    -0.170 C  
HETATM   11  C   UNL     1      -6.517  13.884  68.892  1.00  0.00    -0.098 C  
HETATM   12  OXT UNL     1      -5.908  10.619  66.082  1.00  0.00    -0.085 OA 
ENDROOT
BRANCH   4  13
HETATM   13  C   UNL     1      -8.642  10.697  65.542  1.00  0.00    -0.185 C  
BRANCH  13  14
HETATM   14  S   UNL     1      -9.869   9.413  65.894  1.00  0.00    -0.237 SA 
BRANCH  14  15
HETATM   15  C   UNL     1      -8.947   7.984  66.116  1.00  0.00    -0.175 A  
HETATM   16  N   UNL     1      -7.825   7.645  65.528  1.00  0.00    -0.105 NA 
HETATM   17  C   UNL     1     -10.454   6.888  67.832  1.00  0.00    -0.212 C  
HETATM   18  N   UNL     1      -7.515   6.391  66.008  1.00  0.00    -0.080 NA 
HETATM   19  N   UNL     1      -8.427   5.980  66.878  1.00  0.00    -0.109 NA 
HETATM   20  N   UNL     1      -9.321   6.978  66.955  1.00  0.00    -0.147 NA 
ENDBRANCH  14  15
ENDBRANCH  13  14
ENDBRANCH   4  13
BRANCH  10  21
HETATM   21  N   UNL     1      -7.582  16.194  68.467  1.00  0.00    -0.161 N  
HETATM   22  C   UNL     1      -6.885  17.319  68.853  1.00  0.00    -0.226 C  
HETATM   23  O   UNL     1      -6.274  17.402  69.913  1.00  0.00    -0.232 OA 
HETATM   24  H   UNL     1      -8.097  16.236  67.587  1.00  0.00     0.000 HD 
BRANCH  22  25
HETATM   25  C   UNL     1      -6.942  18.442  67.795  1.00  0.00    -0.213 C  
HETATM   26  H   UNL     1      -6.210  20.261  67.591  1.00  0.00     0.000 HD 
HETATM   27  O   UNL     1      -6.175  19.570  68.242  1.00  0.00    -0.221 OA 
BRANCH  25  28
HETATM   28  C   UNL     1      -8.361  18.882  67.510  1.00  0.00    -0.294 A  
HETATM   29  C   UNL     1      -9.084  19.581  68.487  1.00  0.00    -0.406 A  
HETATM   30  C   UNL     1     -10.396  19.992  68.244  1.00  0.00    -0.494 A  
HETATM   31  C   UNL     1     -10.999  19.717  67.018  1.00  0.00    -0.412 A  
HETATM   32  C   UNL     1     -10.289  19.040  66.030  1.00  0.00    -0.512 A  
HETATM   33  C   UNL     1      -8.977  18.629  66.272  1.00  0.00    -0.228 A  
ENDBRANCH  25  28
ENDBRANCH  22  25
ENDBRANCH  10  21
TORSDOF 6
ENDMDL
MODEL      154
REMARK 921   NORMALIZED FREE ENERGY PREDICTED BY IDOCK:   -4.54 KCAL/MOL
REMARK 922        TOTAL FREE ENERGY PREDICTED BY IDOCK:   -7.17 KCAL/MOL
REMARK 923 INTER-LIGAND FREE ENERGY PREDICTED BY IDOCK:   -5.92 KCAL/MOL
REMARK 924 INTRA-LIGAND FREE ENERGY PREDICTED BY IDOCK:   -1.25 KCAL/MOL
REMARK 927      BINDING AFFINITY PREDICTED BY RF-SCORE:    0.00 PKD
ROOT
HETATM    1  C   UNL     1      -8.442  14.121  66.687  1.00  0.00     0.127 C  
HETATM    2  S   UNL     1      -7.510  13.592  68.149  1.00  0.00    -0.150 SA 
HETATM    3  C   UNL     1      -6.952  12.063  67.370  1.00  0.00    -0.139 C  
HETATM    4  C   UNL     1      -8.054  11.251  66.699  1.00  0.00    -0.160 C  
HETATM    5  O   UNL     1     -11.356  11.435  65.119  1.00  0.00    -0.154 OA 
HETATM    6  CA  UNL     1      -9.252  11.779  66.301  1.00  0.00    -0.221 C  
HETATM    7  N   UNL     1      -9.462  13.127  66.402  1.00  0.00    -0.248 N  
HETATM    8  O   UNL     1     -11.658  13.787  66.062  1.00  0.00    -0.326 OA 
HETATM    9  C   UNL     1     -10.369  10.867  65.831  1.00  0.00    -0.250 C  
HETATM   10  CA  UNL     1      -9.604  15.134  66.965  1.00  0.00    -0.226 C  
HETATM   11  C   UNL     1     -10.506  13.990  66.376  1.00  0.00    -0.284 C  
HETATM   12  OXT UNL     1     -10.381   9.658  66.009  1.00  0.00    -0.218 OA 
ENDROOT
BRANCH   4  13
HETATM   13  C   UNL     1      -7.676   9.771  66.673  1.00  0.00    -0.102 C  
BRANCH  13  14
HETATM   14  S   UNL     1      -6.481   9.239  67.925  1.00  0.00    -0.059 SA 
BRANCH  14  15
HETATM   15  C   UNL     1      -7.404   9.077  69.361  1.00  0.00    -0.075 A  
HETATM   16  N   UNL     1      -8.466   8.335  69.562  1.00  0.00    -0.124 NA 
HETATM   17  C   UNL     1      -6.065  10.683  70.790  1.00  0.00    -0.023 C  
HETATM   18  N   UNL     1      -8.863   8.590  70.856  1.00  0.00    -0.156 NA 
HETATM   19  N   UNL     1      -8.052   9.466  71.434  1.00  0.00    -0.253 NA 
HETATM   20  N   UNL     1      -7.133   9.767  70.504  1.00  0.00    -0.192 NA 
ENDBRANCH  14  15
ENDBRANCH  13  14
ENDBRANCH   4  13
BRANCH  10  21
HETATM   21  N   UNL     1      -9.835  15.454  68.392  1.00  0.00    -0.211 N  
HETATM   22  C   UNL     1     -11.030  15.894  68.916  1.00  0.00    -0.290 C  
HETATM   23  O   UNL     1     -12.024  16.117  68.232  1.00  0.00    -0.107 OA 
HETATM   24  H   UNL     1      -9.051  15.339  69.035  1.00  0.00     0.000 HD 
BRANCH  22  25
HETATM   25  C   UNL     1     -10.983  16.048  70.452  1.00  0.00    -0.336 C  
HETATM   26  H   UNL     1      -9.627  15.870  71.872  1.00  0.00     0.000 HD 
HETATM   27  O   UNL     1      -9.656  15.775  70.927  1.00  0.00     1.094 OA 
BRANCH  25  28
HETATM   28  C   UNL     1     -11.963  15.127  71.145  1.00  0.00    -0.386 A  
HETATM   29  C   UNL     1     -12.838  15.641  72.112  1.00  0.00    -0.517 A  
HETATM   30  C   UNL     1     -13.747  14.806  72.765  1.00  0.00    -0.486 A  
HETATM   31  C   UNL     1     -13.800  13.449  72.453  1.00  0.00    -0.665 A  
HETATM   32  C   UNL     1     -12.951  12.926  71.481  1.00  0.00    -0.388 A  
HETATM   33  C   UNL     1     -12.041  13.760  70.828  1.00  0.00    -0.395 A  
ENDBRANCH  25  28
ENDBRANCH  22  25
ENDBRANCH  10  21
TORSDOF 6
ENDMDL
MODEL      155
REMARK 921   NORMALIZED FREE ENERGY PREDICTED BY IDOCK:   -4.53 KCAL/MOL
REMARK 922        TOTAL FREE ENERGY PREDICTED BY IDOCK:   -7.16 KCAL/MOL
REMARK 923 INTER-LIGAND FREE ENERGY PREDICTED BY IDOCK:   -6.20 KCAL/MOL
REMARK 924 INTRA-LIGAND FREE ENERGY PREDICTED BY IDOCK:   -0.96 KCAL/MOL
REMARK 927      BINDING AFFINITY PREDICTED BY RF-SCORE:    0.00 PKD
ROOT
HETATM    1  C   UNL     1      -8.328  12.691  67.025  1.00  0.00    -0.130 C  
HETATM    2  S   UNL     1      -7.107  12.769  68.363  1.00  0.00    -0.111 SA 
HETATM    3  C   UNL     1      -7.325  11.033  68.805  1.00  0.00    -0.111 C  
HETATM    4  C   UNL     1      -8.776  10.597  68.975  1.00  0.00    -0.152 C  
HETATM    5  O   UNL     1     -12.236  11.296  67.991  1.00  0.00    -0.621 OA 
HETATM    6  CA  UNL     1      -9.838  11.262  68.427  1.00  0.00    -0.199 C  
HETATM    7  N   UNL     1      -9.613  12.321  67.590  1.00  0.00    -0.186 N  
HETATM    8  O   UNL     1     -11.503  13.562  67.078  1.00  0.00    -0.311 OA 
HETATM    9  C   UNL     1     -11.256  10.883  68.811  1.00  0.00    -0.270 C  
HETATM   10  CA  UNL     1      -8.974  14.062  66.627  1.00  0.00    -0.154 C  
HETATM   11  C   UNL     1     -10.308  13.359  67.067  1.00  0.00    -0.247 C  
HETATM   12  OXT UNL     1     -11.536  10.182  69.772  1.00  0.00    -0.235 OA 
ENDROOT
BRANCH   4  13
HETATM   13  C   UNL     1      -8.861   9.417  69.941  1.00  0.00    -0.199 C  
BRANCH  13  14
HETATM   14  S   UNL     1      -8.972   7.779  69.181  1.00  0.00    -0.145 SA 
BRANCH  14  15
HETATM   15  C   UNL     1      -8.131   7.935  67.694  1.00  0.00    -0.124 A  
HETATM   16  N   UNL     1      -8.618   8.237  66.516  1.00  0.00    -0.127 NA 
HETATM   17  C   UNL     1      -5.818   7.389  68.572  1.00  0.00    -0.023 C  
HETATM   18  N   UNL     1      -7.552   8.188  65.645  1.00  0.00    -0.080 NA 
HETATM   19  N   UNL     1      -6.435   7.870  66.285  1.00  0.00    -0.046 NA 
HETATM   20  N   UNL     1      -6.791   7.719  67.569  1.00  0.00    -0.068 NA 
ENDBRANCH  14  15
ENDBRANCH  13  14
ENDBRANCH   4  13
BRANCH  10  21
HETATM   21  N   UNL     1      -8.561  15.217  67.456  1.00  0.00    -0.168 N  
HETATM   22  C   UNL     1      -7.506  16.055  67.168  1.00  0.00    -0.218 C  
HETATM   23  O   UNL     1      -6.760  15.893  66.208  1.00  0.00     0.315 OA 
HETATM   24  H   UNL     1      -9.099  15.407  68.302  1.00  0.00     0.000 HD 
BRANCH  22  25
HETATM   25  C   UNL     1      -7.388  17.224  68.170  1.00  0.00    -0.199 C  
HETATM   26  H   UNL     1      -7.476  17.454  70.126  1.00  0.00     0.000 HD 
HETATM   27  O   UNL     1      -7.549  16.735  69.510  1.00  0.00    -0.091 OA 
BRANCH  25  28
HETATM   28  C   UNL     1      -8.414  18.304  67.905  1.00  0.00    -0.263 A  
HETATM   29  C   UNL     1      -8.526  18.858  66.621  1.00  0.00    -0.308 A  
HETATM   30  C   UNL     1      -9.465  19.858  66.358  1.00  0.00    -0.513 A  
HETATM   31  C   UNL     1     -10.307  20.311  67.371  1.00  0.00    -0.424 A  
HETATM   32  C   UNL     1     -10.221  19.758  68.646  1.00  0.00    -0.515 A  
HETATM   33  C   UNL     1      -9.284  18.758  68.911  1.00  0.00    -0.280 A  
ENDBRANCH  25  28
ENDBRANCH  22  25
ENDBRANCH  10  21
TORSDOF 6
ENDMDL
MODEL      156
REMARK 921   NORMALIZED FREE ENERGY PREDICTED BY IDOCK:   -4.52 KCAL/MOL
REMARK 922        TOTAL FREE ENERGY PREDICTED BY IDOCK:   -7.15 KCAL/MOL
REMARK 923 INTER-LIGAND FREE ENERGY PREDICTED BY IDOCK:   -6.26 KCAL/MOL
REMARK 924 INTRA-LIGAND FREE ENERGY PREDICTED BY IDOCK:   -0.89 KCAL/MOL
REMARK 927      BINDING AFFINITY PREDICTED BY RF-SCORE:    0.00 PKD
ROOT
HETATM    1  C   UNL     1      -9.910  11.625  65.805  1.00  0.00    -0.239 C  
HETATM    2  S   UNL     1     -11.291  11.500  66.972  1.00  0.00    -0.204 SA 
HETATM    3  C   UNL     1     -11.242  13.257  67.381  1.00  0.00    -0.289 C  
HETATM    4  C   UNL     1      -9.857  13.792  67.725  1.00  0.00    -0.234 C  
HETATM    5  O   UNL     1      -6.259  13.299  67.230  1.00  0.00    -0.309 OA 
HETATM    6  CA  UNL     1      -8.692  13.185  67.345  1.00  0.00    -0.206 C  
HETATM    7  N   UNL     1      -8.737  12.094  66.522  1.00  0.00    -0.160 N  
HETATM    8  O   UNL     1      -6.722  10.967  66.305  1.00  0.00    -0.134 OA 
HETATM    9  C   UNL     1      -7.364  13.667  67.899  1.00  0.00    -0.148 C  
HETATM   10  CA  UNL     1      -9.132  10.291  65.541  1.00  0.00    -0.176 C  
HETATM   11  C   UNL     1      -7.915  11.090  66.130  1.00  0.00    -0.129 C  
HETATM   12  OXT UNL     1      -7.259  14.408  68.865  1.00  0.00    -0.114 OA 
ENDROOT
BRANCH   4  13
HETATM   13  C   UNL     1      -9.975  14.999  68.655  1.00  0.00    -0.220 C  
BRANCH  13  14
HETATM   14  S   UNL     1     -10.896  16.413  68.001  1.00  0.00    -0.323 SA 
BRANCH  14  15
HETATM   15  C   UNL     1      -9.725  17.336  67.154  1.00  0.00    -0.259 A  
HETATM   16  N   UNL     1      -9.101  17.030  66.042  1.00  0.00    -0.510 NA 
HETATM   17  C   UNL     1      -9.663  19.312  68.737  1.00  0.00    -0.446 C  
HETATM   18  N   UNL     1      -8.232  18.071  65.802  1.00  0.00    -0.487 NA 
HETATM   19  N   UNL     1      -8.332  18.997  66.745  1.00  0.00    -0.278 NA 
HETATM   20  N   UNL     1      -9.271  18.545  67.589  1.00  0.00    -0.279 NA 
ENDBRANCH  14  15
ENDBRANCH  13  14
ENDBRANCH   4  13
BRANCH  10  21
HETATM   21  N   UNL     1      -9.579   9.132  66.347  1.00  0.00    -0.223 N  
HETATM   22  C   UNL     1      -8.837   7.991  66.562  1.00  0.00    -0.151 C  
HETATM   23  O   UNL     1      -7.735   7.799  66.058  1.00  0.00    -0.087 OA 
HETATM   24  H   UNL     1     -10.505   9.181  66.774  1.00  0.00     0.000 HD 
BRANCH  22  25
HETATM   25  C   UNL     1      -9.535   7.004  67.523  1.00  0.00    -0.126 C  
HETATM   26  H   UNL     1      -9.359   6.472  69.413  1.00  0.00     0.000 HD 
HETATM   27  O   UNL     1      -8.930   7.080  68.823  1.00  0.00    -0.132 OA 
BRANCH  25  28
HETATM   28  C   UNL     1      -9.464   5.579  67.020  1.00  0.00    -0.133 A  
HETATM   29  C   UNL     1     -10.383   5.132  66.059  1.00  0.00    -0.231 A  
HETATM   30  C   UNL     1     -10.336   3.819  65.586  1.00  0.00     0.231 A  
HETATM   31  C   UNL     1      -9.366   2.939  66.060  1.00  0.00    -0.053 A  
HETATM   32  C   UNL     1      -8.434   3.372  67.000  1.00  0.00    -0.109 A  
HETATM   33  C   UNL     1      -8.480   4.684  67.475  1.00  0.00    -0.104 A  
ENDBRANCH  25  28
ENDBRANCH  22  25
ENDBRANCH  10  21
TORSDOF 6
ENDMDL
MODEL      157
REMARK 921   NORMALIZED FREE ENERGY PREDICTED BY IDOCK:   -4.52 KCAL/MOL
REMARK 922        TOTAL FREE ENERGY PREDICTED BY IDOCK:   -7.15 KCAL/MOL
REMARK 923 INTER-LIGAND FREE ENERGY PREDICTED BY IDOCK:   -6.09 KCAL/MOL
REMARK 924 INTRA-LIGAND FREE ENERGY PREDICTED BY IDOCK:   -1.05 KCAL/MOL
REMARK 927      BINDING AFFINITY PREDICTED BY RF-SCORE:    0.00 PKD
ROOT
HETATM    1  C   UNL     1     -11.633   7.835  70.783  1.00  0.00    -0.255 C  
HETATM    2  S   UNL     1     -10.589   9.157  71.450  1.00  0.00    -0.349 SA 
HETATM    3  C   UNL     1     -10.882  10.244  70.040  1.00  0.00    -0.307 C  
HETATM    4  C   UNL     1     -10.689   9.587  68.678  1.00  0.00    -0.218 C  
HETATM    5  O   UNL     1     -10.747   6.400  66.869  1.00  0.00    -0.291 OA 
HETATM    6  CA  UNL     1     -10.739   8.235  68.474  1.00  0.00    -0.017 C  
HETATM    7  N   UNL     1     -11.083   7.408  69.508  1.00  0.00    -0.136 N  
HETATM    8  O   UNL     1     -10.734   5.154  69.095  1.00  0.00    -0.126 OA 
HETATM    9  C   UNL     1     -10.336   7.651  67.133  1.00  0.00    -0.315 C  
HETATM   10  CA  UNL     1     -11.320   6.398  71.322  1.00  0.00    -0.306 C  
HETATM   11  C   UNL     1     -11.013   6.090  69.812  1.00  0.00    -0.401 C  
HETATM   12  OXT UNL     1      -9.723   8.272  66.277  1.00  0.00    -0.230 OA 
ENDROOT
BRANCH   4  13
HETATM   13  C   UNL     1     -10.301  10.635  67.638  1.00  0.00    -0.209 C  
BRANCH  13  14
HETATM   14  S   UNL     1      -9.313  12.024  68.246  1.00  0.00    -0.179 SA 
BRANCH  14  15
HETATM   15  C   UNL     1     -10.381  13.365  68.204  1.00  0.00    -0.247 A  
HETATM   16  N   UNL     1     -11.097  13.861  69.184  1.00  0.00    -0.252 NA 
HETATM   17  C   UNL     1     -10.082  13.943  65.756  1.00  0.00    -0.320 C  
HETATM   18  N   UNL     1     -11.821  14.896  68.633  1.00  0.00    -0.320 NA 
HETATM   19  N   UNL     1     -11.543  15.032  67.344  1.00  0.00    -0.330 NA 
HETATM   20  N   UNL     1     -10.636  14.081  67.073  1.00  0.00    -0.278 NA 
ENDBRANCH  14  15
ENDBRANCH  13  14
ENDBRANCH   4  13
BRANCH  10  21
HETATM   21  N   UNL     1     -10.159   6.307  72.237  1.00  0.00    -0.177 N  
HETATM   22  C   UNL     1      -9.892   5.238  73.064  1.00  0.00    -0.154 C  
HETATM   23  O   UNL     1     -10.628   4.262  73.163  1.00  0.00    -0.171 OA 
HETATM   24  H   UNL     1      -9.509   7.093  72.256  1.00  0.00     0.000 HD 
BRANCH  22  25
HETATM   25  C   UNL     1      -8.557   5.398  73.825  1.00  0.00    -0.113 C  
HETATM   26  H   UNL     1      -7.726   6.746  74.998  1.00  0.00     0.000 HD 
HETATM   27  O   UNL     1      -8.547   6.648  74.530  1.00  0.00    -0.141 OA 
BRANCH  25  28
HETATM   28  C   UNL     1      -7.364   5.335  72.898  1.00  0.00    -0.091 A  
HETATM   29  C   UNL     1      -6.679   6.512  72.563  1.00  0.00    -0.064 A  
HETATM   30  C   UNL     1      -5.577   6.474  71.705  1.00  0.00    -0.032 A  
HETATM   31  C   UNL     1      -5.142   5.260  71.178  1.00  0.00    -0.005 A  
HETATM   32  C   UNL     1      -5.800   4.080  71.516  1.00  0.00    -0.013 A  
HETATM   33  C   UNL     1      -6.901   4.116  72.373  1.00  0.00    -0.046 A  
ENDBRANCH  25  28
ENDBRANCH  22  25
ENDBRANCH  10  21
TORSDOF 6
ENDMDL
MODEL      158
REMARK 921   NORMALIZED FREE ENERGY PREDICTED BY IDOCK:   -4.51 KCAL/MOL
REMARK 922        TOTAL FREE ENERGY PREDICTED BY IDOCK:   -7.14 KCAL/MOL
REMARK 923 INTER-LIGAND FREE ENERGY PREDICTED BY IDOCK:   -6.95 KCAL/MOL
REMARK 924 INTRA-LIGAND FREE ENERGY PREDICTED BY IDOCK:   -0.18 KCAL/MOL
REMARK 927      BINDING AFFINITY PREDICTED BY RF-SCORE:    0.00 PKD
ROOT
HETATM    1  C   UNL     1      -8.487   8.625  67.237  1.00  0.00    -0.115 C  
HETATM    2  S   UNL     1     -10.275   8.867  67.406  1.00  0.00    -0.269 SA 
HETATM    3  C   UNL     1     -10.326  10.162  66.150  1.00  0.00    -0.167 C  
HETATM    4  C   UNL     1      -9.279  11.257  66.322  1.00  0.00    -0.214 C  
HETATM    5  O   UNL     1      -5.975  12.036  67.703  1.00  0.00    -0.068 OA 
HETATM    6  CA  UNL     1      -8.126  11.099  67.041  1.00  0.00    -0.148 C  
HETATM    7  N   UNL     1      -7.817   9.872  67.560  1.00  0.00    -0.098 N  
HETATM    8  O   UNL     1      -6.054   9.881  69.066  1.00  0.00    -0.040 OA 
HETATM    9  C   UNL     1      -7.239  12.296  67.332  1.00  0.00    -0.147 C  
HETATM   10  CA  UNL     1      -7.775   7.997  68.482  1.00  0.00    -0.106 C  
HETATM   11  C   UNL     1      -6.978   9.352  68.489  1.00  0.00    -0.066 C  
HETATM   12  OXT UNL     1      -7.593  13.456  67.187  1.00  0.00    -0.102 OA 
ENDROOT
BRANCH   4  13
HETATM   13  C   UNL     1      -9.775  12.561  65.700  1.00  0.00    -0.158 C  
BRANCH  13  14
HETATM   14  S   UNL     1     -10.731  13.643  66.792  1.00  0.00    -0.272 SA 
BRANCH  14  15
HETATM   15  C   UNL     1     -10.773  15.151  65.976  1.00  0.00    -0.329 A  
HETATM   16  N   UNL     1     -10.357  16.317  66.406  1.00  0.00    -0.306 NA 
HETATM   17  C   UNL     1     -11.859  14.333  63.838  1.00  0.00    -0.121 C  
HETATM   18  N   UNL     1     -10.655  17.215  65.405  1.00  0.00    -0.626 NA 
HETATM   19  N   UNL     1     -11.233  16.603  64.381  1.00  0.00    -1.060 NA 
HETATM   20  N   UNL     1     -11.302  15.310  64.730  1.00  0.00    -0.415 NA 
ENDBRANCH  14  15
ENDBRANCH  13  14
ENDBRANCH   4  13
BRANCH  10  21
HETATM   21  N   UNL     1      -8.646   7.768  69.657  1.00  0.00    -0.134 N  
HETATM   22  C   UNL     1      -8.213   7.296  70.877  1.00  0.00    -0.115 C  
HETATM   23  O   UNL     1      -7.052   6.965  71.098  1.00  0.00    -0.071 OA 
HETATM   24  H   UNL     1      -9.640   7.975  69.556  1.00  0.00     0.000 HD 
BRANCH  22  25
HETATM   25  C   UNL     1      -9.341   7.255  71.931  1.00  0.00    -0.137 C  
HETATM   26  H   UNL     1      -9.607   7.895  73.776  1.00  0.00     0.000 HD 
HETATM   27  O   UNL     1      -8.913   7.921  73.128  1.00  0.00    -0.189 OA 
BRANCH  25  28
HETATM   28  C   UNL     1      -9.754   5.839  72.265  1.00  0.00    -0.174 A  
HETATM   29  C   UNL     1      -9.151   4.762  71.599  1.00  0.00    -0.169 A  
HETATM   30  C   UNL     1      -9.522   3.447  71.892  1.00  0.00    -0.208 A  
HETATM   31  C   UNL     1     -10.492   3.192  72.858  1.00  0.00    -0.238 A  
HETATM   32  C   UNL     1     -11.086   4.250  73.542  1.00  0.00    -0.377 A  
HETATM   33  C   UNL     1     -10.718   5.564  73.251  1.00  0.00    -0.314 A  
ENDBRANCH  25  28
ENDBRANCH  22  25
ENDBRANCH  10  21
TORSDOF 6
ENDMDL
MODEL      159
REMARK 921   NORMALIZED FREE ENERGY PREDICTED BY IDOCK:   -4.48 KCAL/MOL
REMARK 922        TOTAL FREE ENERGY PREDICTED BY IDOCK:   -7.09 KCAL/MOL
REMARK 923 INTER-LIGAND FREE ENERGY PREDICTED BY IDOCK:   -5.87 KCAL/MOL
REMARK 924 INTRA-LIGAND FREE ENERGY PREDICTED BY IDOCK:   -1.21 KCAL/MOL
REMARK 927      BINDING AFFINITY PREDICTED BY RF-SCORE:    0.00 PKD
ROOT
HETATM    1  C   UNL     1      -8.770   9.915  69.122  1.00  0.00    -0.159 C  
HETATM    2  S   UNL     1     -10.418   9.336  69.608  1.00  0.00    -0.232 SA 
HETATM    3  C   UNL     1     -10.044   7.614  69.217  1.00  0.00    -0.190 C  
HETATM    4  C   UNL     1      -9.414   7.395  67.847  1.00  0.00    -0.150 C  
HETATM    5  O   UNL     1      -7.410   8.950  65.201  1.00  0.00    -0.089 OA 
HETATM    6  CA  UNL     1      -8.763   8.373  67.144  1.00  0.00    -0.126 C  
HETATM    7  N   UNL     1      -8.561   9.597  67.721  1.00  0.00    -0.125 N  
HETATM    8  O   UNL     1      -7.809  11.235  66.263  1.00  0.00    -0.147 OA 
HETATM    9  C   UNL     1      -8.345   8.129  65.707  1.00  0.00    -0.136 C  
HETATM   10  CA  UNL     1      -8.682  11.426  68.723  1.00  0.00    -0.076 C  
HETATM   11  C   UNL     1      -8.224  10.851  67.335  1.00  0.00    -0.117 C  
HETATM   12  OXT UNL     1      -8.761   7.205  65.024  1.00  0.00     0.037 OA 
ENDROOT
BRANCH   4  13
HETATM   13  C   UNL     1      -9.737   5.992  67.337  1.00  0.00    -0.115 C  
BRANCH  13  14
HETATM   14  S   UNL     1      -8.660   4.666  67.934  1.00  0.00    -0.103 SA 
BRANCH  14  15
HETATM   15  C   UNL     1      -7.172   4.920  67.121  1.00  0.00    -0.077 A  
HETATM   16  N   UNL     1      -6.165   5.673  67.490  1.00  0.00    -0.029 NA 
HETATM   17  C   UNL     1      -7.638   3.436  65.122  1.00  0.00    -0.080 C  
HETATM   18  N   UNL     1      -5.234   5.578  66.480  1.00  0.00    -0.005 NA 
HETATM   19  N   UNL     1      -5.664   4.774  65.517  1.00  0.00    -0.017 NA 
HETATM   20  N   UNL     1      -6.873   4.353  65.918  1.00  0.00    -0.056 NA 
ENDBRANCH  14  15
ENDBRANCH  13  14
ENDBRANCH   4  13
BRANCH  10  21
HETATM   21  N   UNL     1      -9.972  12.153  68.715  1.00  0.00    -0.402 N  
HETATM   22  C   UNL     1     -10.129  13.472  68.352  1.00  0.00    -0.240 C  
HETATM   23  O   UNL     1      -9.192  14.203  68.045  1.00  0.00    -0.181 OA 
HETATM   24  H   UNL     1     -10.806  11.638  68.998  1.00  0.00     0.000 HD 
BRANCH  22  25
HETATM   25  C   UNL     1     -11.609  13.915  68.354  1.00  0.00    -0.332 C  
HETATM   26  H   UNL     1     -12.660  15.416  67.627  1.00  0.00     0.000 HD 
HETATM   27  O   UNL     1     -11.750  15.144  67.626  1.00  0.00    -0.329 OA 
BRANCH  25  28
HETATM   28  C   UNL     1     -12.143  14.100  69.757  1.00  0.00    -0.409 A  
HETATM   29  C   UNL     1     -12.062  15.357  70.374  1.00  0.00    -0.408 A  
HETATM   30  C   UNL     1     -12.547  15.545  71.670  1.00  0.00    -0.486 A  
HETATM   31  C   UNL     1     -13.126  14.484  72.362  1.00  0.00    -0.487 A  
HETATM   32  C   UNL     1     -13.232  13.234  71.757  1.00  0.00    -0.495 A  
HETATM   33  C   UNL     1     -12.747  13.044  70.461  1.00  0.00    -0.111 A  
ENDBRANCH  25  28
ENDBRANCH  22  25
ENDBRANCH  10  21
TORSDOF 6
ENDMDL
MODEL      160
REMARK 921   NORMALIZED FREE ENERGY PREDICTED BY IDOCK:   -4.47 KCAL/MOL
REMARK 922        TOTAL FREE ENERGY PREDICTED BY IDOCK:   -7.07 KCAL/MOL
REMARK 923 INTER-LIGAND FREE ENERGY PREDICTED BY IDOCK:   -5.85 KCAL/MOL
REMARK 924 INTRA-LIGAND FREE ENERGY PREDICTED BY IDOCK:   -1.22 KCAL/MOL
REMARK 927      BINDING AFFINITY PREDICTED BY RF-SCORE:    0.00 PKD
ROOT
HETATM    1  C   UNL     1      -9.401  10.047  68.632  1.00  0.00    -0.156 C  
HETATM    2  S   UNL     1     -10.812   9.838  67.512  1.00  0.00    -0.134 SA 
HETATM    3  C   UNL     1     -10.613   8.046  67.428  1.00  0.00    -0.267 C  
HETATM    4  C   UNL     1      -9.193   7.576  67.136  1.00  0.00    -0.161 C  
HETATM    5  O   UNL     1      -5.645   8.455  67.401  1.00  0.00    -0.037 OA 
HETATM    6  CA  UNL     1      -8.080   8.339  67.357  1.00  0.00    -0.121 C  
HETATM    7  N   UNL     1      -8.206   9.556  67.969  1.00  0.00    -0.113 N  
HETATM    8  O   UNL     1      -6.297  10.870  67.904  1.00  0.00    -0.057 OA 
HETATM    9  C   UNL     1      -6.726   7.878  66.851  1.00  0.00    -0.068 C  
HETATM   10  CA  UNL     1      -8.742  11.468  68.620  1.00  0.00    -0.103 C  
HETATM   11  C   UNL     1      -7.470  10.680  68.142  1.00  0.00    -0.090 C  
HETATM   12  OXT UNL     1      -6.574   6.983  66.033  1.00  0.00    -0.049 OA 
ENDROOT
BRANCH   4  13
HETATM   13  C   UNL     1      -9.221   6.214  66.446  1.00  0.00    -0.152 C  
BRANCH  13  14
HETATM   14  S   UNL     1      -9.557   4.793  67.516  1.00  0.00    -0.166 SA 
BRANCH  14  15
HETATM   15  C   UNL     1      -8.304   4.828  68.686  1.00  0.00    -0.082 A  
HETATM   16  N   UNL     1      -7.109   4.296  68.610  1.00  0.00    -0.051 NA 
HETATM   17  C   UNL     1      -9.544   6.159  70.449  1.00  0.00    -0.164 C  
HETATM   18  N   UNL     1      -6.503   4.559  69.818  1.00  0.00    -0.031 NA 
HETATM   19  N   UNL     1      -7.312   5.247  70.612  1.00  0.00    -0.068 NA 
HETATM   20  N   UNL     1      -8.438   5.425  69.904  1.00  0.00    -0.102 NA 
ENDBRANCH  14  15
ENDBRANCH  13  14
ENDBRANCH   4  13
BRANCH  10  21
HETATM   21  N   UNL     1      -9.308  12.417  67.634  1.00  0.00    -0.181 N  
HETATM   22  C   UNL     1     -10.184  13.437  67.937  1.00  0.00    -0.241 C  
HETATM   23  O   UNL     1     -10.628  13.630  69.064  1.00  0.00    -0.213 OA 
HETATM   24  H   UNL     1      -9.028  12.309  66.659  1.00  0.00     0.000 HD 
BRANCH  22  25
HETATM   25  C   UNL     1     -10.518  14.314  66.711  1.00  0.00    -0.273 C  
HETATM   26  H   UNL     1     -11.661  15.874  66.330  1.00  0.00     0.000 HD 
HETATM   27  O   UNL     1     -11.455  15.335  67.084  1.00  0.00    -0.307 OA 
BRANCH  25  28
HETATM   28  C   UNL     1     -11.089  13.501  65.571  1.00  0.00    -0.303 A  
HETATM   29  C   UNL     1     -10.239  13.008  64.570  1.00  0.00    -0.331 A  
HETATM   30  C   UNL     1     -10.749  12.259  63.508  1.00  0.00    -0.497 A  
HETATM   31  C   UNL     1     -12.113  11.985  63.437  1.00  0.00    -0.597 A  
HETATM   32  C   UNL     1     -12.969  12.451  64.432  1.00  0.00    -0.219 A  
HETATM   33  C   UNL     1     -12.461  13.200  65.494  1.00  0.00    -0.516 A  
ENDBRANCH  25  28
ENDBRANCH  22  25
ENDBRANCH  10  21
TORSDOF 6
ENDMDL
MODEL      161
REMARK 921   NORMALIZED FREE ENERGY PREDICTED BY IDOCK:   -4.47 KCAL/MOL
REMARK 922        TOTAL FREE ENERGY PREDICTED BY IDOCK:   -7.07 KCAL/MOL
REMARK 923 INTER-LIGAND FREE ENERGY PREDICTED BY IDOCK:   -6.03 KCAL/MOL
REMARK 924 INTRA-LIGAND FREE ENERGY PREDICTED BY IDOCK:   -1.04 KCAL/MOL
REMARK 927      BINDING AFFINITY PREDICTED BY RF-SCORE:    0.00 PKD
ROOT
HETATM    1  C   UNL     1      -9.064   9.573  70.238  1.00  0.00    -0.253 C  
HETATM    2  S   UNL     1     -10.603   8.652  69.974  1.00  0.00    -0.227 SA 
HETATM    3  C   UNL     1     -10.141   7.343  71.128  1.00  0.00    -0.186 C  
HETATM    4  C   UNL     1      -8.742   6.777  70.921  1.00  0.00    -0.142 C  
HETATM    5  O   UNL     1      -5.389   7.503  69.630  1.00  0.00    -0.022 OA 
HETATM    6  CA  UNL     1      -7.742   7.442  70.266  1.00  0.00    -0.093 C  
HETATM    7  N   UNL     1      -7.946   8.730  69.853  1.00  0.00    -0.101 N  
HETATM    8  O   UNL     1      -6.313   9.554  68.428  1.00  0.00    -0.052 OA 
HETATM    9  C   UNL     1      -6.447   6.729  69.926  1.00  0.00    -0.043 C  
HETATM   10  CA  UNL     1      -8.652  10.537  69.074  1.00  0.00    -0.157 C  
HETATM   11  C   UNL     1      -7.378   9.619  69.002  1.00  0.00    -0.073 C  
HETATM   12  OXT UNL     1      -6.306   5.516  69.969  1.00  0.00    -0.031 OA 
ENDROOT
BRANCH   4  13
HETATM   13  C   UNL     1      -8.678   5.335  71.422  1.00  0.00    -0.130 C  
BRANCH  13  14
HETATM   14  S   UNL     1      -9.767   4.158  70.583  1.00  0.00    -0.187 SA 
BRANCH  14  15
HETATM   15  C   UNL     1      -9.145   4.057  68.988  1.00  0.00    -0.133 A  
HETATM   16  N   UNL     1      -8.129   3.347  68.558  1.00  0.00    -0.065 NA 
HETATM   17  C   UNL     1     -10.773   5.663  67.901  1.00  0.00    -0.158 C  
HETATM   18  N   UNL     1      -8.003   3.646  67.220  1.00  0.00    -0.083 NA 
HETATM   19  N   UNL     1      -8.930   4.515  66.841  1.00  0.00    -0.112 NA 
HETATM   20  N   UNL     1      -9.652   4.768  67.943  1.00  0.00    -0.147 NA 
ENDBRANCH  14  15
ENDBRANCH  13  14
ENDBRANCH   4  13
BRANCH  10  21
HETATM   21  N   UNL     1      -9.530  10.498  67.883  1.00  0.00    -0.146 N  
HETATM   22  C   UNL     1      -9.142  10.848  66.609  1.00  0.00    -0.162 C  
HETATM   23  O   UNL     1      -8.026  11.282  66.339  1.00  0.00    -0.164 OA 
HETATM   24  H   UNL     1     -10.493  10.189  68.016  1.00  0.00     0.000 HD 
BRANCH  22  25
HETATM   25  C   UNL     1     -10.254  10.610  65.564  1.00  0.00    -0.262 C  
HETATM   26  H   UNL     1     -10.384   9.839  63.755  1.00  0.00     0.000 HD 
HETATM   27  O   UNL     1      -9.700   9.985  64.397  1.00  0.00    -0.305 OA 
BRANCH  25  28
HETATM   28  C   UNL     1     -10.942  11.896  65.165  1.00  0.00    -0.365 A  
HETATM   29  C   UNL     1     -11.483  12.028  63.878  1.00  0.00    -0.518 A  
HETATM   30  C   UNL     1     -12.118  13.210  63.490  1.00  0.00    -0.585 A  
HETATM   31  C   UNL     1     -12.230  14.271  64.387  1.00  0.00    -0.471 A  
HETATM   32  C   UNL     1     -11.716  14.149  65.675  1.00  0.00    -0.357 A  
HETATM   33  C   UNL     1     -11.079  12.969  66.064  1.00  0.00    -0.301 A  
ENDBRANCH  25  28
ENDBRANCH  22  25
ENDBRANCH  10  21
TORSDOF 6
ENDMDL
MODEL      162
REMARK 921   NORMALIZED FREE ENERGY PREDICTED BY IDOCK:   -4.45 KCAL/MOL
REMARK 922        TOTAL FREE ENERGY PREDICTED BY IDOCK:   -7.05 KCAL/MOL
REMARK 923 INTER-LIGAND FREE ENERGY PREDICTED BY IDOCK:   -7.14 KCAL/MOL
REMARK 924 INTRA-LIGAND FREE ENERGY PREDICTED BY IDOCK:    0.09 KCAL/MOL
REMARK 927      BINDING AFFINITY PREDICTED BY RF-SCORE:    0.00 PKD
ROOT
HETATM    1  C   UNL     1     -10.170  13.891  67.150  1.00  0.00    -0.258 C  
HETATM    2  S   UNL     1      -9.505  12.503  68.108  1.00  0.00    -0.207 SA 
HETATM    3  C   UNL     1      -8.323  12.046  66.823  1.00  0.00    -0.135 C  
HETATM    4  C   UNL     1      -8.915  11.932  65.424  1.00  0.00     0.230 C  
HETATM    5  O   UNL     1     -11.618  13.073  63.226  1.00  0.00    -0.446 OA 
HETATM    6  CA  UNL     1     -10.083  12.535  65.042  1.00  0.00    -0.236 C  
HETATM    7  N   UNL     1     -10.723  13.376  65.910  1.00  0.00    -0.277 N  
HETATM    8  O   UNL     1     -12.863  13.986  65.257  1.00  0.00    -0.686 OA 
HETATM    9  C   UNL     1     -10.707  12.207  63.699  1.00  0.00    -0.467 C  
HETATM   10  CA  UNL     1     -11.622  14.335  67.535  1.00  0.00    -0.363 C  
HETATM   11  C   UNL     1     -11.946  13.943  66.048  1.00  0.00    -0.412 C  
HETATM   12  OXT UNL     1     -10.382  11.249  63.013  1.00  0.00    -0.300 OA 
ENDROOT
BRANCH   4  13
HETATM   13  C   UNL     1      -8.097  10.954  64.583  1.00  0.00     0.232 C  
BRANCH  13  14
HETATM   14  S   UNL     1      -7.780   9.339  65.336  1.00  0.00    -0.101 SA 
BRANCH  14  15
HETATM   15  C   UNL     1      -7.670   8.258  64.009  1.00  0.00    -0.140 A  
HETATM   16  N   UNL     1      -8.605   7.484  63.515  1.00  0.00     0.331 NA 
HETATM   17  C   UNL     1      -5.237   8.684  63.445  1.00  0.00    -0.062 C  
HETATM   18  N   UNL     1      -8.008   6.779  62.494  1.00  0.00    -0.108 NA 
HETATM   19  N   UNL     1      -6.735   7.125  62.363  1.00  0.00    -0.059 NA 
HETATM   20  N   UNL     1      -6.521   8.057  63.305  1.00  0.00    -0.075 NA 
ENDBRANCH  14  15
ENDBRANCH  13  14
ENDBRANCH   4  13
BRANCH  10  21
HETATM   21  N   UNL     1     -12.282  13.506  68.569  1.00  0.00    -0.308 N  
HETATM   22  C   UNL     1     -12.147  13.688  69.927  1.00  0.00    -0.341 C  
HETATM   23  O   UNL     1     -11.413  14.537  70.424  1.00  0.00    -0.261 OA 
HETATM   24  H   UNL     1     -12.881  12.743  68.251  1.00  0.00     0.000 HD 
BRANCH  22  25
HETATM   25  C   UNL     1     -13.035  12.725  70.745  1.00  0.00     0.084 C  
HETATM   26  H   UNL     1     -13.677  12.593  72.604  1.00  0.00     0.000 HD 
HETATM   27  O   UNL     1     -13.130  13.185  72.102  1.00  0.00    -0.397 OA 
BRANCH  25  28
HETATM   28  C   UNL     1     -12.500  11.310  70.732  1.00  0.00    -0.471 A  
HETATM   29  C   UNL     1     -13.085  10.336  71.553  1.00  0.00    -0.534 A  
HETATM   30  C   UNL     1     -12.602   9.025  71.557  1.00  0.00    -0.400 A  
HETATM   31  C   UNL     1     -11.536   8.670  70.734  1.00  0.00    -0.293 A  
HETATM   32  C   UNL     1     -10.956   9.621  69.898  1.00  0.00    -0.281 A  
HETATM   33  C   UNL     1     -11.437  10.932  69.893  1.00  0.00    -0.402 A  
ENDBRANCH  25  28
ENDBRANCH  22  25
ENDBRANCH  10  21
TORSDOF 6
ENDMDL
MODEL      163
REMARK 921   NORMALIZED FREE ENERGY PREDICTED BY IDOCK:   -4.41 KCAL/MOL
REMARK 922        TOTAL FREE ENERGY PREDICTED BY IDOCK:   -7.00 KCAL/MOL
REMARK 923 INTER-LIGAND FREE ENERGY PREDICTED BY IDOCK:   -6.75 KCAL/MOL
REMARK 924 INTRA-LIGAND FREE ENERGY PREDICTED BY IDOCK:   -0.25 KCAL/MOL
REMARK 927      BINDING AFFINITY PREDICTED BY RF-SCORE:    0.00 PKD
ROOT
HETATM    1  C   UNL     1      -8.299  13.484  66.653  1.00  0.00     0.270 C  
HETATM    2  S   UNL     1      -7.301  13.301  68.155  1.00  0.00    -0.137 SA 
HETATM    3  C   UNL     1      -7.837  11.600  68.431  1.00  0.00    -0.137 C  
HETATM    4  C   UNL     1      -9.344  11.388  68.357  1.00  0.00    -0.194 C  
HETATM    5  O   UNL     1     -12.472  12.669  66.940  1.00  0.00    -0.301 OA 
HETATM    6  CA  UNL     1     -10.201  12.238  67.713  1.00  0.00    -0.202 C  
HETATM    7  N   UNL     1      -9.697  13.290  66.998  1.00  0.00    -0.232 N  
HETATM    8  O   UNL     1     -11.282  14.836  66.314  1.00  0.00    -0.338 OA 
HETATM    9  C   UNL     1     -11.701  12.066  67.860  1.00  0.00    -0.323 C  
HETATM   10  CA  UNL     1      -8.668  14.957  66.269  1.00  0.00     0.036 C  
HETATM   11  C   UNL     1     -10.143  14.450  66.459  1.00  0.00    -0.276 C  
HETATM   12  OXT UNL     1     -12.225  11.369  68.716  1.00  0.00    -0.502 OA 
ENDROOT
BRANCH   4  13
HETATM   13  C   UNL     1      -9.749  10.188  69.211  1.00  0.00    -0.224 C  
BRANCH  13  14
HETATM   14  S   UNL     1     -10.224   8.696  68.303  1.00  0.00    -0.197 SA 
BRANCH  14  15
HETATM   15  C   UNL     1     -10.382   7.488  69.510  1.00  0.00    -0.216 A  
HETATM   16  N   UNL     1      -9.757   6.338  69.593  1.00  0.00    -0.151 NA 
HETATM   17  C   UNL     1     -12.130   8.662  70.918  1.00  0.00    -0.147 C  
HETATM   18  N   UNL     1     -10.266   5.714  70.710  1.00  0.00    -0.214 NA 
HETATM   19  N   UNL     1     -11.177   6.474  71.301  1.00  0.00    -0.275 NA 
HETATM   20  N   UNL     1     -11.247   7.589  70.558  1.00  0.00    -0.270 NA 
ENDBRANCH  14  15
ENDBRANCH  13  14
ENDBRANCH   4  13
BRANCH  10  21
HETATM   21  N   UNL     1      -8.223  15.989  67.232  1.00  0.00    -0.169 N  
HETATM   22  C   UNL     1      -6.966  16.552  67.257  1.00  0.00    -0.173 C  
HETATM   23  O   UNL     1      -6.060  16.211  66.503  1.00  0.00    -0.148 OA 
HETATM   24  H   UNL     1      -8.897  16.308  67.929  1.00  0.00     0.000 HD 
BRANCH  22  25
HETATM   25  C   UNL     1      -6.837  17.669  68.316  1.00  0.00    -0.213 C  
HETATM   26  H   UNL     1      -6.722  17.779  70.281  1.00  0.00     0.000 HD 
HETATM   27  O   UNL     1      -6.801  17.092  69.630  1.00  0.00    -0.184 OA 
BRANCH  25  28
HETATM   28  C   UNL     1      -7.977  18.660  68.235  1.00  0.00    -0.337 A  
HETATM   29  C   UNL     1      -7.930  19.703  67.299  1.00  0.00    -0.314 A  
HETATM   30  C   UNL     1      -8.971  20.630  67.212  1.00  0.00    -0.373 A  
HETATM   31  C   UNL     1     -10.076  20.521  68.054  1.00  0.00    -0.264 A  
HETATM   32  C   UNL     1     -10.147  19.481  68.977  1.00  0.00    -0.444 A  
HETATM   33  C   UNL     1      -9.107  18.553  69.065  1.00  0.00    -0.099 A  
ENDBRANCH  25  28
ENDBRANCH  22  25
ENDBRANCH  10  21
TORSDOF 6
ENDMDL
MODEL      164
REMARK 921   NORMALIZED FREE ENERGY PREDICTED BY IDOCK:   -4.40 KCAL/MOL
REMARK 922        TOTAL FREE ENERGY PREDICTED BY IDOCK:   -6.99 KCAL/MOL
REMARK 923 INTER-LIGAND FREE ENERGY PREDICTED BY IDOCK:   -6.29 KCAL/MOL
REMARK 924 INTRA-LIGAND FREE ENERGY PREDICTED BY IDOCK:   -0.70 KCAL/MOL
REMARK 927      BINDING AFFINITY PREDICTED BY RF-SCORE:    0.00 PKD
ROOT
HETATM    1  C   UNL     1      -8.446  14.199  66.617  1.00  0.00     0.127 C  
HETATM    2  S   UNL     1      -8.360  14.119  68.426  1.00  0.00    -0.160 SA 
HETATM    3  C   UNL     1      -9.405  12.651  68.517  1.00  0.00    -0.080 C  
HETATM    4  C   UNL     1     -10.696  12.738  67.710  1.00  0.00    -0.237 C  
HETATM    5  O   UNL     1     -12.310  14.319  64.824  1.00  0.00    -0.450 OA 
HETATM    6  CA  UNL     1     -10.881  13.599  66.663  1.00  0.00    -0.283 C  
HETATM    7  N   UNL     1      -9.835  14.364  66.225  1.00  0.00    -0.291 N  
HETATM    8  O   UNL     1     -10.423  16.032  64.727  1.00  0.00    -0.564 OA 
HETATM    9  C   UNL     1     -12.257  13.767  66.047  1.00  0.00    -0.457 C  
HETATM   10  CA  UNL     1      -8.173  15.610  65.995  1.00  0.00     0.574 C  
HETATM   11  C   UNL     1      -9.640  15.460  65.453  1.00  0.00    -0.126 C  
HETATM   12  OXT UNL     1     -13.289  13.374  66.571  1.00  0.00     0.730 OA 
ENDROOT
BRANCH   4  13
HETATM   13  C   UNL     1     -11.764  11.839  68.328  1.00  0.00    -0.310 C  
BRANCH  13  14
HETATM   14  S   UNL     1     -11.914  11.913  70.131  1.00  0.00    -0.279 SA 
BRANCH  14  15
HETATM   15  C   UNL     1     -11.308  10.404  70.676  1.00  0.00    -0.325 A  
HETATM   16  N   UNL     1     -10.147   9.854  70.412  1.00  0.00    -0.250 NA 
HETATM   17  C   UNL     1     -13.330   9.715  72.037  1.00  0.00    -0.457 C  
HETATM   18  N   UNL     1     -10.161   8.629  71.042  1.00  0.00    -0.201 NA 
HETATM   19  N   UNL     1     -11.306   8.443  71.685  1.00  0.00    -0.268 NA 
HETATM   20  N   UNL     1     -12.023   9.555  71.465  1.00  0.00    -0.374 NA 
ENDBRANCH  14  15
ENDBRANCH  13  14
ENDBRANCH   4  13
BRANCH  10  21
HETATM   21  N   UNL     1      -7.966  16.701  66.974  1.00  0.00    -0.178 N  
HETATM   22  C   UNL     1      -6.754  17.300  67.239  1.00  0.00    -0.158 C  
HETATM   23  O   UNL     1      -5.700  16.949  66.719  1.00  0.00    -0.185 OA 
HETATM   24  H   UNL     1      -8.781  17.034  67.490  1.00  0.00     0.000 HD 
BRANCH  22  25
HETATM   25  C   UNL     1      -6.879  18.471  68.238  1.00  0.00    -0.235 C  
HETATM   26  H   UNL     1      -6.769  18.710  70.192  1.00  0.00     0.000 HD 
HETATM   27  O   UNL     1      -6.692  17.990  69.577  1.00  0.00    -0.209 OA 
BRANCH  25  28
HETATM   28  C   UNL     1      -8.221  19.163  68.137  1.00  0.00    -0.353 A  
HETATM   29  C   UNL     1      -9.042  19.260  69.269  1.00  0.00    -0.088 A  
HETATM   30  C   UNL     1     -10.285  19.891  69.194  1.00  0.00    -0.281 A  
HETATM   31  C   UNL     1     -10.720  20.441  67.990  1.00  0.00     0.039 A  
HETATM   32  C   UNL     1      -9.908  20.369  66.860  1.00  0.00    -0.572 A  
HETATM   33  C   UNL     1      -8.665  19.738  66.933  1.00  0.00    -0.389 A  
ENDBRANCH  25  28
ENDBRANCH  22  25
ENDBRANCH  10  21
TORSDOF 6
ENDMDL
MODEL      165
REMARK 921   NORMALIZED FREE ENERGY PREDICTED BY IDOCK:   -4.40 KCAL/MOL
REMARK 922        TOTAL FREE ENERGY PREDICTED BY IDOCK:   -6.98 KCAL/MOL
REMARK 923 INTER-LIGAND FREE ENERGY PREDICTED BY IDOCK:   -5.86 KCAL/MOL
REMARK 924 INTRA-LIGAND FREE ENERGY PREDICTED BY IDOCK:   -1.12 KCAL/MOL
REMARK 927      BINDING AFFINITY PREDICTED BY RF-SCORE:    0.00 PKD
ROOT
HETATM    1  C   UNL     1      -8.794   8.354  69.949  1.00  0.00    -0.137 C  
HETATM    2  S   UNL     1      -8.421   8.098  68.194  1.00  0.00    -0.126 SA 
HETATM    3  C   UNL     1      -8.491   9.861  67.814  1.00  0.00    -0.118 C  
HETATM    4  C   UNL     1      -9.726  10.579  68.345  1.00  0.00    -0.166 C  
HETATM    5  O   UNL     1     -12.329  10.526  70.924  1.00  0.00    -0.322 OA 
HETATM    6  CA  UNL     1     -10.491  10.110  69.377  1.00  0.00    -0.233 C  
HETATM    7  N   UNL     1     -10.094   8.993  70.059  1.00  0.00    -0.187 N  
HETATM    8  O   UNL     1     -11.693   8.122  71.495  1.00  0.00    -0.268 OA 
HETATM    9  C   UNL     1     -11.814  10.775  69.709  1.00  0.00    -0.335 C  
HETATM   10  CA  UNL     1      -9.413   7.120  70.689  1.00  0.00    -0.161 C  
HETATM   11  C   UNL     1     -10.630   8.088  70.913  1.00  0.00    -0.213 C  
HETATM   12  OXT UNL     1     -12.387  11.558  68.966  1.00  0.00    -0.360 OA 
ENDROOT
BRANCH   4  13
HETATM   13  C   UNL     1     -10.044  11.793  67.475  1.00  0.00    -0.192 C  
BRANCH  13  14
HETATM   14  S   UNL     1      -9.080  13.286  67.819  1.00  0.00    -0.213 SA 
BRANCH  14  15
HETATM   15  C   UNL     1     -10.233  14.425  68.379  1.00  0.00    -0.243 A  
HETATM   16  N   UNL     1     -10.830  14.467  69.546  1.00  0.00    -0.196 NA 
HETATM   17  C   UNL     1     -10.340  15.838  66.280  1.00  0.00    -0.310 C  
HETATM   18  N   UNL     1     -11.697  15.535  69.486  1.00  0.00    -0.343 NA 
HETATM   19  N   UNL     1     -11.622  16.137  68.307  1.00  0.00    -0.269 NA 
HETATM   20  N   UNL     1     -10.702  15.450  67.614  1.00  0.00    -0.285 NA 
ENDBRANCH  14  15
ENDBRANCH  13  14
ENDBRANCH   4  13
BRANCH  10  21
HETATM   21  N   UNL     1      -9.686   5.944  69.833  1.00  0.00    -0.160 N  
HETATM   22  C   UNL     1      -9.027   4.738  69.920  1.00  0.00    -0.096 C  
HETATM   23  O   UNL     1      -8.097   4.532  70.694  1.00  0.00    -0.072 OA 
HETATM   24  H   UNL     1     -10.417   6.033  69.127  1.00  0.00     0.000 HD 
BRANCH  22  25
HETATM   25  C   UNL     1      -9.603   3.676  68.958  1.00  0.00    -0.095 C  
HETATM   26  H   UNL     1      -9.487   1.721  68.740  1.00  0.00     0.000 HD 
HETATM   27  O   UNL     1      -9.133   2.373  69.332  1.00  0.00    -0.097 OA 
BRANCH  25  28
HETATM   28  C   UNL     1      -9.226   3.951  67.519  1.00  0.00    -0.203 A  
HETATM   29  C   UNL     1     -10.230   4.123  66.555  1.00  0.00     0.053 A  
HETATM   30  C   UNL     1      -9.901   4.374  65.221  1.00  0.00    -0.209 A  
HETATM   31  C   UNL     1      -8.566   4.466  64.836  1.00  0.00    -0.130 A  
HETATM   32  C   UNL     1      -7.557   4.317  65.784  1.00  0.00    -0.086 A  
HETATM   33  C   UNL     1      -7.884   4.066  67.117  1.00  0.00    -0.092 A  
ENDBRANCH  25  28
ENDBRANCH  22  25
ENDBRANCH  10  21
TORSDOF 6
ENDMDL
MODEL      166
REMARK 921   NORMALIZED FREE ENERGY PREDICTED BY IDOCK:   -4.38 KCAL/MOL
REMARK 922        TOTAL FREE ENERGY PREDICTED BY IDOCK:   -6.95 KCAL/MOL
REMARK 923 INTER-LIGAND FREE ENERGY PREDICTED BY IDOCK:   -6.02 KCAL/MOL
REMARK 924 INTRA-LIGAND FREE ENERGY PREDICTED BY IDOCK:   -0.93 KCAL/MOL
REMARK 927      BINDING AFFINITY PREDICTED BY RF-SCORE:    0.00 PKD
ROOT
HETATM    1  C   UNL     1      -8.528  11.193  68.720  1.00  0.00    -0.134 C  
HETATM    2  S   UNL     1     -10.312  11.329  68.430  1.00  0.00    -0.200 SA 
HETATM    3  C   UNL     1     -10.546   9.540  68.371  1.00  0.00    -0.219 C  
HETATM    4  C   UNL     1      -9.571   8.801  67.462  1.00  0.00    -0.192 C  
HETATM    5  O   UNL     1      -6.240   8.917  65.936  1.00  0.00    -0.054 OA 
HETATM    6  CA  UNL     1      -8.361   9.308  67.074  1.00  0.00    -0.120 C  
HETATM    7  N   UNL     1      -7.927  10.496  67.596  1.00  0.00    -0.106 N  
HETATM    8  O   UNL     1      -6.066  11.389  66.541  1.00  0.00    -0.142 OA 
HETATM    9  C   UNL     1      -7.543   8.601  66.009  1.00  0.00    -0.093 C  
HETATM   10  CA  UNL     1      -7.685  12.446  68.306  1.00  0.00    -0.140 C  
HETATM   11  C   UNL     1      -6.989  11.435  67.325  1.00  0.00    -0.115 C  
HETATM   12  OXT UNL     1      -7.989   7.731  65.275  1.00  0.00    -0.112 OA 
ENDROOT
BRANCH   4  13
HETATM   13  C   UNL     1     -10.202   7.506  66.955  1.00  0.00    -0.298 C  
BRANCH  13  14
HETATM   14  S   UNL     1     -10.733   6.335  68.229  1.00  0.00    -0.312 SA 
BRANCH  14  15
HETATM   15  C   UNL     1     -10.129   4.819  67.700  1.00  0.00    -0.085 A  
HETATM   16  N   UNL     1     -10.229   4.277  66.511  1.00  0.00    -0.137 NA 
HETATM   17  C   UNL     1      -9.089   4.101  69.896  1.00  0.00    -0.113 C  
HETATM   18  N   UNL     1      -9.628   3.042  66.609  1.00  0.00    -0.005 NA 
HETATM   19  N   UNL     1      -9.162   2.841  67.835  1.00  0.00    -0.189 NA 
HETATM   20  N   UNL     1      -9.467   3.954  68.518  1.00  0.00    -0.160 NA 
ENDBRANCH  14  15
ENDBRANCH  13  14
ENDBRANCH   4  13
BRANCH  10  21
HETATM   21  N   UNL     1      -8.451  13.535  67.657  1.00  0.00    -0.170 N  
HETATM   22  C   UNL     1      -8.862  14.690  68.285  1.00  0.00    -0.176 C  
HETATM   23  O   UNL     1      -8.675  14.912  69.477  1.00  0.00    -0.109 OA 
HETATM   24  H   UNL     1      -8.692  13.421  66.672  1.00  0.00     0.000 HD 
BRANCH  22  25
HETATM   25  C   UNL     1      -9.556  15.675  67.319  1.00  0.00    -0.217 C  
HETATM   26  H   UNL     1     -10.602  17.338  67.471  1.00  0.00     0.000 HD 
HETATM   27  O   UNL     1     -10.175  16.733  68.065  1.00  0.00    -0.275 OA 
BRANCH  25  28
HETATM   28  C   UNL     1     -10.597  14.989  66.462  1.00  0.00    -0.305 A  
HETATM   29  C   UNL     1     -10.357  14.793  65.095  1.00  0.00    -0.439 A  
HETATM   30  C   UNL     1     -11.308  14.166  64.288  1.00  0.00    -0.241 A  
HETATM   31  C   UNL     1     -12.507  13.718  64.838  1.00  0.00    -0.420 A  
HETATM   32  C   UNL     1     -12.754  13.888  66.198  1.00  0.00    -0.336 A  
HETATM   33  C   UNL     1     -11.804  14.515  67.007  1.00  0.00    -0.408 A  
ENDBRANCH  25  28
ENDBRANCH  22  25
ENDBRANCH  10  21
TORSDOF 6
ENDMDL
MODEL      167
REMARK 921   NORMALIZED FREE ENERGY PREDICTED BY IDOCK:   -4.34 KCAL/MOL
REMARK 922        TOTAL FREE ENERGY PREDICTED BY IDOCK:   -6.90 KCAL/MOL
REMARK 923 INTER-LIGAND FREE ENERGY PREDICTED BY IDOCK:   -5.68 KCAL/MOL
REMARK 924 INTRA-LIGAND FREE ENERGY PREDICTED BY IDOCK:   -1.22 KCAL/MOL
REMARK 927      BINDING AFFINITY PREDICTED BY RF-SCORE:    0.00 PKD
ROOT
HETATM    1  C   UNL     1      -8.503   8.727  70.093  1.00  0.00    -0.137 C  
HETATM    2  S   UNL     1      -8.381   7.364  68.904  1.00  0.00    -0.129 SA 
HETATM    3  C   UNL     1      -8.378   8.470  67.477  1.00  0.00    -0.128 C  
HETATM    4  C   UNL     1      -9.481   9.521  67.485  1.00  0.00    -0.155 C  
HETATM    5  O   UNL     1     -11.723  11.479  69.623  1.00  0.00    -0.294 OA 
HETATM    6  CA  UNL     1     -10.135   9.928  68.615  1.00  0.00    -0.175 C  
HETATM    7  N   UNL     1      -9.730   9.459  69.835  1.00  0.00    -0.198 N  
HETATM    8  O   UNL     1     -11.184   9.932  71.578  1.00  0.00    -0.322 OA 
HETATM    9  C   UNL     1     -11.354  10.825  68.510  1.00  0.00    -0.295 C  
HETATM   10  CA  UNL     1      -9.103   8.347  71.489  1.00  0.00    -0.195 C  
HETATM   11  C   UNL     1     -10.211   9.390  71.100  1.00  0.00    -0.291 C  
HETATM   12  OXT UNL     1     -11.965  11.025  67.470  1.00  0.00    -0.529 OA 
ENDROOT
BRANCH   4  13
HETATM   13  C   UNL     1      -9.825   9.933  66.055  1.00  0.00    -0.264 C  
BRANCH  13  14
HETATM   14  S   UNL     1      -8.685  11.101  65.272  1.00  0.00     0.056 SA 
BRANCH  14  15
HETATM   15  C   UNL     1      -8.042  12.014  66.573  1.00  0.00     0.055 A  
HETATM   16  N   UNL     1      -6.980  11.756  67.297  1.00  0.00    -0.127 NA 
HETATM   17  C   UNL     1      -9.780  13.857  66.566  1.00  0.00    -0.294 C  
HETATM   18  N   UNL     1      -6.916  12.758  68.239  1.00  0.00    -0.087 NA 
HETATM   19  N   UNL     1      -7.917  13.614  68.086  1.00  0.00    -0.137 NA 
HETATM   20  N   UNL     1      -8.619  13.157  67.039  1.00  0.00    -0.193 NA 
ENDBRANCH  14  15
ENDBRANCH  13  14
ENDBRANCH   4  13
BRANCH  10  21
HETATM   21  N   UNL     1      -9.566   6.946  71.615  1.00  0.00    -0.161 N  
HETATM   22  C   UNL     1     -10.244   6.437  72.701  1.00  0.00    -0.182 C  
HETATM   23  O   UNL     1     -10.490   7.091  73.709  1.00  0.00    -0.364 OA 
HETATM   24  H   UNL     1      -9.369   6.311  70.841  1.00  0.00     0.000 HD 
BRANCH  22  25
HETATM   25  C   UNL     1     -10.676   4.968  72.494  1.00  0.00    -0.212 C  
HETATM   26  H   UNL     1     -11.796   3.654  73.443  1.00  0.00     0.000 HD 
HETATM   27  O   UNL     1     -11.531   4.557  73.571  1.00  0.00    -0.303 OA 
BRANCH  25  28
HETATM   28  C   UNL     1      -9.489   4.035  72.412  1.00  0.00    -0.182 A  
HETATM   29  C   UNL     1      -9.237   3.330  71.226  1.00  0.00    -0.192 A  
HETATM   30  C   UNL     1      -8.148   2.460  71.132  1.00  0.00    -0.057 A  
HETATM   31  C   UNL     1      -7.292   2.291  72.219  1.00  0.00    -0.042 A  
HETATM   32  C   UNL     1      -7.517   2.999  73.397  1.00  0.00    -0.051 A  
HETATM   33  C   UNL     1      -8.605   3.868  73.493  1.00  0.00    -0.091 A  
ENDBRANCH  25  28
ENDBRANCH  22  25
ENDBRANCH  10  21
TORSDOF 6
ENDMDL
MODEL      168
REMARK 921   NORMALIZED FREE ENERGY PREDICTED BY IDOCK:   -4.34 KCAL/MOL
REMARK 922        TOTAL FREE ENERGY PREDICTED BY IDOCK:   -6.90 KCAL/MOL
REMARK 923 INTER-LIGAND FREE ENERGY PREDICTED BY IDOCK:   -5.63 KCAL/MOL
REMARK 924 INTRA-LIGAND FREE ENERGY PREDICTED BY IDOCK:   -1.27 KCAL/MOL
REMARK 927      BINDING AFFINITY PREDICTED BY RF-SCORE:    0.00 PKD
ROOT
HETATM    1  C   UNL     1      -9.766   8.709  69.027  1.00  0.00    -0.173 C  
HETATM    2  S   UNL     1     -10.532   8.682  67.385  1.00  0.00    -0.247 SA 
HETATM    3  C   UNL     1      -9.530   7.289  66.825  1.00  0.00    -0.171 C  
HETATM    4  C   UNL     1      -8.035   7.435  67.085  1.00  0.00    -0.114 C  
HETATM    5  O   UNL     1      -5.521   9.026  69.225  1.00  0.00    -0.035 OA 
HETATM    6  CA  UNL     1      -7.507   8.272  68.029  1.00  0.00    -0.097 C  
HETATM    7  N   UNL     1      -8.343   8.953  68.871  1.00  0.00    -0.121 N  
HETATM    8  O   UNL     1      -7.309  10.608  70.123  1.00  0.00    -0.155 OA 
HETATM    9  C   UNL     1      -6.010   8.510  68.085  1.00  0.00    -0.046 C  
HETATM   10  CA  UNL     1      -9.849  10.079  69.782  1.00  0.00    -0.235 C  
HETATM   11  C   UNL     1      -8.281  10.009  69.718  1.00  0.00    -0.178 C  
HETATM   12  OXT UNL     1      -5.238   8.203  67.188  1.00  0.00    -0.033 OA 
ENDROOT
BRANCH   4  13
HETATM   13  C   UNL     1      -7.242   6.627  66.060  1.00  0.00    -0.071 C  
BRANCH  13  14
HETATM   14  S   UNL     1      -7.735   6.841  64.332  1.00  0.00    -0.111 SA 
BRANCH  14  15
HETATM   15  C   UNL     1      -6.878   8.231  63.807  1.00  0.00    -0.076 A  
HETATM   16  N   UNL     1      -5.583   8.433  63.810  1.00  0.00    -0.061 NA 
HETATM   17  C   UNL     1      -8.888   9.609  63.114  1.00  0.00    -0.240 C  
HETATM   18  N   UNL     1      -5.402   9.715  63.339  1.00  0.00    -0.074 NA 
HETATM   19  N   UNL     1      -6.567  10.279  63.048  1.00  0.00    -0.136 NA 
HETATM   20  N   UNL     1      -7.493   9.350  63.331  1.00  0.00    -0.103 NA 
ENDBRANCH  14  15
ENDBRANCH  13  14
ENDBRANCH   4  13
BRANCH  10  21
HETATM   21  N   UNL     1     -10.467  11.185  69.016  1.00  0.00    -0.232 N  
HETATM   22  C   UNL     1     -11.550  11.924  69.436  1.00  0.00    -0.325 C  
HETATM   23  O   UNL     1     -12.153  11.702  70.482  1.00  0.00    -0.361 OA 
HETATM   24  H   UNL     1     -10.060  11.416  68.109  1.00  0.00     0.000 HD 
BRANCH  22  25
HETATM   25  C   UNL     1     -11.901  13.069  68.461  1.00  0.00    -0.325 C  
HETATM   26  H   UNL     1     -12.461  13.231  66.578  1.00  0.00     0.000 HD 
HETATM   27  O   UNL     1     -12.246  12.527  67.178  1.00  0.00    -0.474 OA 
BRANCH  25  28
HETATM   28  C   UNL     1     -10.757  14.046  68.301  1.00  0.00    -0.262 A  
HETATM   29  C   UNL     1     -10.050  14.100  67.091  1.00  0.00    -0.258 A  
HETATM   30  C   UNL     1      -8.989  14.993  66.925  1.00  0.00    -0.276 A  
HETATM   31  C   UNL     1      -8.628  15.850  67.963  1.00  0.00    -0.164 A  
HETATM   32  C   UNL     1      -9.332  15.823  69.164  1.00  0.00    -0.258 A  
HETATM   33  C   UNL     1     -10.392  14.930  69.331  1.00  0.00    -0.217 A  
ENDBRANCH  25  28
ENDBRANCH  22  25
ENDBRANCH  10  21
TORSDOF 6
ENDMDL
MODEL      169
REMARK 921   NORMALIZED FREE ENERGY PREDICTED BY IDOCK:   -4.25 KCAL/MOL
REMARK 922        TOTAL FREE ENERGY PREDICTED BY IDOCK:   -6.78 KCAL/MOL
REMARK 923 INTER-LIGAND FREE ENERGY PREDICTED BY IDOCK:   -5.65 KCAL/MOL
REMARK 924 INTRA-LIGAND FREE ENERGY PREDICTED BY IDOCK:   -1.14 KCAL/MOL
REMARK 927      BINDING AFFINITY PREDICTED BY RF-SCORE:    0.00 PKD
ROOT
HETATM    1  C   UNL     1      -8.588   8.639  68.271  1.00  0.00    -0.138 C  
HETATM    2  S   UNL     1     -10.269   7.975  68.406  1.00  0.00    -0.203 SA 
HETATM    3  C   UNL     1      -9.796   6.359  67.755  1.00  0.00    -0.123 C  
HETATM    4  C   UNL     1      -8.979   6.406  66.469  1.00  0.00    -0.153 C  
HETATM    5  O   UNL     1      -6.682   8.441  64.465  1.00  0.00    -0.068 OA 
HETATM    6  CA  UNL     1      -8.269   7.501  66.060  1.00  0.00    -0.130 C  
HETATM    7  N   UNL     1      -8.182   8.594  66.878  1.00  0.00    -0.105 N  
HETATM    8  O   UNL     1      -7.287  10.481  65.872  1.00  0.00    -0.137 OA 
HETATM    9  C   UNL     1      -7.652   7.536  64.674  1.00  0.00    -0.111 C  
HETATM   10  CA  UNL     1      -8.490  10.200  68.179  1.00  0.00    -0.118 C  
HETATM   11  C   UNL     1      -7.832   9.900  66.784  1.00  0.00    -0.109 C  
HETATM   12  OXT UNL     1      -7.945   6.757  63.779  1.00  0.00    -0.117 OA 
ENDROOT
BRANCH   4  13
HETATM   13  C   UNL     1      -9.190   5.125  65.665  1.00  0.00    -0.151 C  
BRANCH  13  14
HETATM   14  S   UNL     1      -9.333   3.600  66.630  1.00  0.00    -0.174 SA 
BRANCH  14  15
HETATM   15  C   UNL     1      -7.733   3.269  67.153  1.00  0.00    -0.078 A  
HETATM   16  N   UNL     1      -6.662   3.090  66.418  1.00  0.00    -0.046 NA 
HETATM   17  C   UNL     1      -8.203   3.243  69.641  1.00  0.00    -0.051 C  
HETATM   18  N   UNL     1      -5.644   2.807  67.302  1.00  0.00    -0.017 NA 
HETATM   19  N   UNL     1      -6.088   2.822  68.552  1.00  0.00    -0.024 NA 
HETATM   20  N   UNL     1      -7.393   3.119  68.463  1.00  0.00    -0.049 NA 
ENDBRANCH  14  15
ENDBRANCH  13  14
ENDBRANCH   4  13
BRANCH  10  21
HETATM   21  N   UNL     1      -9.788  10.911  68.129  1.00  0.00    -0.170 N  
HETATM   22  C   UNL     1      -9.933  12.279  68.059  1.00  0.00    -0.202 C  
HETATM   23  O   UNL     1      -8.986  13.059  68.084  1.00  0.00    -0.191 OA 
HETATM   24  H   UNL     1     -10.638  10.346  68.147  1.00  0.00     0.000 HD 
BRANCH  22  25
HETATM   25  C   UNL     1     -11.409  12.712  67.922  1.00  0.00    -0.288 C  
HETATM   26  H   UNL     1     -13.179  11.878  68.165  1.00  0.00     0.000 HD 
HETATM   27  O   UNL     1     -12.271  11.612  68.249  1.00  0.00    -0.525 OA 
BRANCH  25  28
HETATM   28  C   UNL     1     -11.729  13.202  66.527  1.00  0.00    -0.433 A  
HETATM   29  C   UNL     1     -12.076  12.282  65.528  1.00  0.00    -0.326 A  
HETATM   30  C   UNL     1     -12.371  12.715  64.233  1.00  0.00    -0.517 A  
HETATM   31  C   UNL     1     -12.332  14.073  63.924  1.00  0.00    -0.280 A  
HETATM   32  C   UNL     1     -12.008  15.001  64.910  1.00  0.00    -0.255 A  
HETATM   33  C   UNL     1     -11.712  14.570  66.204  1.00  0.00    -0.355 A  
ENDBRANCH  25  28
ENDBRANCH  22  25
ENDBRANCH  10  21
TORSDOF 6
ENDMDL
MODEL      170
REMARK 921   NORMALIZED FREE ENERGY PREDICTED BY IDOCK:   -4.25 KCAL/MOL
REMARK 922        TOTAL FREE ENERGY PREDICTED BY IDOCK:   -6.78 KCAL/MOL
REMARK 923 INTER-LIGAND FREE ENERGY PREDICTED BY IDOCK:   -5.88 KCAL/MOL
REMARK 924 INTRA-LIGAND FREE ENERGY PREDICTED BY IDOCK:   -0.89 KCAL/MOL
REMARK 927      BINDING AFFINITY PREDICTED BY RF-SCORE:    0.00 PKD
ROOT
HETATM    1  C   UNL     1      -7.949  10.794  68.223  1.00  0.00    -0.118 C  
HETATM    2  S   UNL     1      -8.196  10.489  66.454  1.00  0.00    -0.146 SA 
HETATM    3  C   UNL     1      -9.382  11.838  66.279  1.00  0.00    -0.225 C  
HETATM    4  C   UNL     1     -10.492  11.848  67.324  1.00  0.00    -0.248 C  
HETATM    5  O   UNL     1     -11.398  10.828  70.726  1.00  0.00    -0.256 OA 
HETATM    6  CA  UNL     1     -10.400  11.221  68.537  1.00  0.00    -0.203 C  
HETATM    7  N   UNL     1      -9.221  10.632  68.904  1.00  0.00    -0.179 N  
HETATM    8  O   UNL     1      -9.362   9.292  70.790  1.00  0.00    -0.241 OA 
HETATM    9  C   UNL     1     -11.620  11.107  69.431  1.00  0.00    -0.318 C  
HETATM   10  CA  UNL     1      -7.429   9.568  69.048  1.00  0.00    -0.074 C  
HETATM   11  C   UNL     1      -8.783   9.741  69.826  1.00  0.00    -0.212 C  
HETATM   12  OXT UNL     1     -12.763  11.315  69.053  1.00  0.00    -0.190 OA 
ENDROOT
BRANCH   4  13
HETATM   13  C   UNL     1     -11.738  12.528  66.761  1.00  0.00    -0.384 C  
BRANCH  13  14
HETATM   14  S   UNL     1     -11.683  14.335  66.677  1.00  0.00    -0.409 SA 
BRANCH  14  15
HETATM   15  C   UNL     1     -11.366  14.832  68.288  1.00  0.00    -0.301 A  
HETATM   16  N   UNL     1     -12.177  14.808  69.317  1.00  0.00    -0.244 NA 
HETATM   17  C   UNL     1      -8.970  15.573  67.933  1.00  0.00    -0.173 C  
HETATM   18  N   UNL     1     -11.470  15.355  70.365  1.00  0.00    -0.299 NA 
HETATM   19  N   UNL     1     -10.247  15.696  69.981  1.00  0.00    -0.303 NA 
HETATM   20  N   UNL     1     -10.176  15.364  68.684  1.00  0.00    -0.212 NA 
ENDBRANCH  14  15
ENDBRANCH  13  14
ENDBRANCH   4  13
BRANCH  10  21
HETATM   21  N   UNL     1      -7.293   8.306  68.284  1.00  0.00    -0.093 N  
HETATM   22  C   UNL     1      -6.154   7.909  67.619  1.00  0.00    -0.050 C  
HETATM   23  O   UNL     1      -5.139   8.595  67.550  1.00  0.00    -0.033 OA 
HETATM   24  H   UNL     1      -8.102   7.686  68.248  1.00  0.00     0.000 HD 
BRANCH  22  25
HETATM   25  C   UNL     1      -6.292   6.501  66.998  1.00  0.00    -0.041 C  
HETATM   26  H   UNL     1      -6.074   5.691  65.214  1.00  0.00     0.000 HD 
HETATM   27  O   UNL     1      -5.989   6.557  65.596  1.00  0.00    -0.031 OA 
BRANCH  25  28
HETATM   28  C   UNL     1      -7.680   5.931  67.189  1.00  0.00    -0.101 A  
HETATM   29  C   UNL     1      -7.910   4.979  68.193  1.00  0.00    -0.087 A  
HETATM   30  C   UNL     1      -9.184   4.438  68.382  1.00  0.00    -0.186 A  
HETATM   31  C   UNL     1     -10.245   4.849  67.577  1.00  0.00    -0.152 A  
HETATM   32  C   UNL     1     -10.037   5.807  66.589  1.00  0.00    -0.235 A  
HETATM   33  C   UNL     1      -8.764   6.348  66.398  1.00  0.00    -0.140 A  
ENDBRANCH  25  28
ENDBRANCH  22  25
ENDBRANCH  10  21
TORSDOF 6
ENDMDL
MODEL      171
REMARK 921   NORMALIZED FREE ENERGY PREDICTED BY IDOCK:   -4.24 KCAL/MOL
REMARK 922        TOTAL FREE ENERGY PREDICTED BY IDOCK:   -6.77 KCAL/MOL
REMARK 923 INTER-LIGAND FREE ENERGY PREDICTED BY IDOCK:   -6.41 KCAL/MOL
REMARK 924 INTRA-LIGAND FREE ENERGY PREDICTED BY IDOCK:   -0.36 KCAL/MOL
REMARK 927      BINDING AFFINITY PREDICTED BY RF-SCORE:    0.00 PKD
ROOT
HETATM    1  C   UNL     1     -10.062   9.542  68.227  1.00  0.00    -0.183 C  
HETATM    2  S   UNL     1      -8.284   9.822  68.436  1.00  0.00    -0.106 SA 
HETATM    3  C   UNL     1      -8.054   8.315  69.403  1.00  0.00    -0.115 C  
HETATM    4  C   UNL     1      -9.047   8.134  70.545  1.00  0.00    -0.150 C  
HETATM    5  O   UNL     1     -12.405   8.983  71.743  1.00  0.00    -0.321 OA 
HETATM    6  CA  UNL     1     -10.263   8.757  70.600  1.00  0.00    -0.202 C  
HETATM    7  N   UNL     1     -10.685   9.510  69.539  1.00  0.00    -0.224 N  
HETATM    8  O   UNL     1     -12.564  10.800  69.960  1.00  0.00    -0.308 OA 
HETATM    9  C   UNL     1     -11.101   8.684  71.863  1.00  0.00    -0.346 C  
HETATM   10  CA  UNL     1     -10.911  10.825  67.930  1.00  0.00    -0.289 C  
HETATM   11  C   UNL     1     -11.627  10.448  69.278  1.00  0.00    -0.176 C  
HETATM   12  OXT UNL     1     -10.671   8.313  72.945  1.00  0.00    -0.320 OA 
ENDROOT
BRANCH   4  13
HETATM   13  C   UNL     1      -8.427   7.282  71.651  1.00  0.00    -0.112 C  
BRANCH  13  14
HETATM   14  S   UNL     1      -8.858   5.525  71.632  1.00  0.00    -0.136 SA 
BRANCH  14  15
HETATM   15  C   UNL     1      -9.292   5.205  70.004  1.00  0.00    -0.147 A  
HETATM   16  N   UNL     1     -10.427   5.465  69.402  1.00  0.00    -0.274 NA 
HETATM   17  C   UNL     1      -7.114   4.124  69.293  1.00  0.00    -0.050 C  
HETATM   18  N   UNL     1     -10.295   4.974  68.123  1.00  0.00    -0.074 NA 
HETATM   19  N   UNL     1      -9.097   4.432  67.947  1.00  0.00    -0.120 NA 
HETATM   20  N   UNL     1      -8.464   4.581  69.120  1.00  0.00    -0.078 NA 
ENDBRANCH  14  15
ENDBRANCH  13  14
ENDBRANCH   4  13
BRANCH  10  21
HETATM   21  N   UNL     1     -10.156  12.098  67.947  1.00  0.00    -0.192 N  
HETATM   22  C   UNL     1      -9.412  12.585  66.895  1.00  0.00    -0.219 C  
HETATM   23  O   UNL     1      -9.257  11.977  65.841  1.00  0.00    -0.199 OA 
HETATM   24  H   UNL     1     -10.190  12.657  68.801  1.00  0.00     0.000 HD 
BRANCH  22  25
HETATM   25  C   UNL     1      -8.822  13.983  67.184  1.00  0.00    -0.228 C  
HETATM   26  H   UNL     1      -8.448  15.082  68.776  1.00  0.00     0.000 HD 
HETATM   27  O   UNL     1      -8.811  14.223  68.599  1.00  0.00    -0.183 OA 
BRANCH  25  28
HETATM   28  C   UNL     1      -9.601  15.081  66.495  1.00  0.00    -0.299 A  
HETATM   29  C   UNL     1      -9.511  16.399  66.964  1.00  0.00    -0.240 A  
HETATM   30  C   UNL     1     -10.226  17.426  66.343  1.00  0.00    -0.339 A  
HETATM   31  C   UNL     1     -11.033  17.149  65.242  1.00  0.00     0.031 A  
HETATM   32  C   UNL     1     -11.119  15.848  64.752  1.00  0.00    -0.397 A  
HETATM   33  C   UNL     1     -10.405  14.821  65.372  1.00  0.00    -0.410 A  
ENDBRANCH  25  28
ENDBRANCH  22  25
ENDBRANCH  10  21
TORSDOF 6
ENDMDL
MODEL      172
REMARK 921   NORMALIZED FREE ENERGY PREDICTED BY IDOCK:   -4.24 KCAL/MOL
REMARK 922        TOTAL FREE ENERGY PREDICTED BY IDOCK:   -6.76 KCAL/MOL
REMARK 923 INTER-LIGAND FREE ENERGY PREDICTED BY IDOCK:   -5.84 KCAL/MOL
REMARK 924 INTRA-LIGAND FREE ENERGY PREDICTED BY IDOCK:   -0.93 KCAL/MOL
REMARK 927      BINDING AFFINITY PREDICTED BY RF-SCORE:    0.00 PKD
ROOT
HETATM    1  C   UNL     1     -10.509   7.707  71.045  1.00  0.00    -0.211 C  
HETATM    2  S   UNL     1     -11.209   7.112  69.483  1.00  0.00    -0.022 SA 
HETATM    3  C   UNL     1     -10.583   5.436  69.719  1.00  0.00    -0.277 C  
HETATM    4  C   UNL     1      -9.109   5.355  70.099  1.00  0.00    -0.165 C  
HETATM    5  O   UNL     1      -6.332   7.148  71.682  1.00  0.00    -0.037 OA 
HETATM    6  CA  UNL     1      -8.410   6.390  70.658  1.00  0.00    -0.133 C  
HETATM    7  N   UNL     1      -9.067   7.539  71.002  1.00  0.00    -0.148 N  
HETATM    8  O   UNL     1      -7.679   9.311  71.557  1.00  0.00    -0.340 OA 
HETATM    9  C   UNL     1      -6.904   6.296  70.816  1.00  0.00    -0.063 C  
HETATM   10  CA  UNL     1     -10.259   9.251  71.122  1.00  0.00    -0.317 C  
HETATM   11  C   UNL     1      -8.761   8.822  71.315  1.00  0.00    -0.215 C  
HETATM   12  OXT UNL     1      -6.212   5.460  70.256  1.00  0.00    -0.021 OA 
ENDROOT
BRANCH   4  13
HETATM   13  C   UNL     1      -8.520   4.022  69.641  1.00  0.00    -0.060 C  
BRANCH  13  14
HETATM   14  S   UNL     1      -9.259   2.539  70.369  1.00  0.00    -0.130 SA 
BRANCH  14  15
HETATM   15  C   UNL     1      -9.458   2.926  72.028  1.00  0.00    -0.127 A  
HETATM   16  N   UNL     1     -10.525   3.395  72.628  1.00  0.00    -0.137 NA 
HETATM   17  C   UNL     1      -7.119   2.319  72.786  1.00  0.00    -0.027 C  
HETATM   18  N   UNL     1     -10.164   3.584  73.943  1.00  0.00    -0.131 NA 
HETATM   19  N   UNL     1      -8.901   3.228  74.141  1.00  0.00    -0.083 NA 
HETATM   20  N   UNL     1      -8.459   2.808  72.947  1.00  0.00    -0.071 NA 
ENDBRANCH  14  15
ENDBRANCH  13  14
ENDBRANCH   4  13
BRANCH  10  21
HETATM   21  N   UNL     1     -10.550  10.000  69.878  1.00  0.00    -0.263 N  
HETATM   22  C   UNL     1     -11.630  10.834  69.695  1.00  0.00    -0.316 C  
HETATM   23  O   UNL     1     -12.501  11.003  70.543  1.00  0.00    -0.326 OA 
HETATM   24  H   UNL     1      -9.901   9.889  69.097  1.00  0.00     0.000 HD 
BRANCH  22  25
HETATM   25  C   UNL     1     -11.606  11.545  68.324  1.00  0.00    -0.308 C  
HETATM   26  H   UNL     1     -10.711  11.283  66.587  1.00  0.00     0.000 HD 
HETATM   27  O   UNL     1     -10.726  10.846  67.430  1.00  0.00    -0.223 OA 
BRANCH  25  28
HETATM   28  C   UNL     1     -11.161  12.985  68.441  1.00  0.00    -0.292 A  
HETATM   29  C   UNL     1      -9.968  13.399  67.830  1.00  0.00    -0.233 A  
HETATM   30  C   UNL     1      -9.539  14.724  67.929  1.00  0.00    -0.210 A  
HETATM   31  C   UNL     1     -10.301  15.655  68.633  1.00  0.00    -0.216 A  
HETATM   32  C   UNL     1     -11.497  15.265  69.230  1.00  0.00    -0.334 A  
HETATM   33  C   UNL     1     -11.927  13.941  69.132  1.00  0.00    -0.404 A  
ENDBRANCH  25  28
ENDBRANCH  22  25
ENDBRANCH  10  21
TORSDOF 6
ENDMDL
MODEL      173
REMARK 921   NORMALIZED FREE ENERGY PREDICTED BY IDOCK:   -4.22 KCAL/MOL
REMARK 922        TOTAL FREE ENERGY PREDICTED BY IDOCK:   -6.75 KCAL/MOL
REMARK 923 INTER-LIGAND FREE ENERGY PREDICTED BY IDOCK:   -6.10 KCAL/MOL
REMARK 924 INTRA-LIGAND FREE ENERGY PREDICTED BY IDOCK:   -0.65 KCAL/MOL
REMARK 927      BINDING AFFINITY PREDICTED BY RF-SCORE:    0.00 PKD
ROOT
HETATM    1  C   UNL     1      -7.754  13.058  68.617  1.00  0.00    -0.069 C  
HETATM    2  S   UNL     1      -9.424  13.707  68.342  1.00  0.00    -0.153 SA 
HETATM    3  C   UNL     1     -10.190  12.077  68.458  1.00  0.00    -0.212 C  
HETATM    4  C   UNL     1      -9.525  10.999  67.611  1.00  0.00    -0.173 C  
HETATM    5  O   UNL     1      -6.384   9.958  66.034  1.00  0.00    -0.074 OA 
HETATM    6  CA  UNL     1      -8.236  11.076  67.159  1.00  0.00    -0.133 C  
HETATM    7  N   UNL     1      -7.441  12.115  67.558  1.00  0.00    -0.137 N  
HETATM    8  O   UNL     1      -5.444  12.302  66.396  1.00  0.00    -0.165 OA 
HETATM    9  C   UNL     1      -7.718  10.062  66.156  1.00  0.00    -0.108 C  
HETATM   10  CA  UNL     1      -6.589  13.953  68.073  1.00  0.00    -0.143 C  
HETATM   11  C   UNL     1      -6.275  12.696  67.184  1.00  0.00     0.028 C  
HETATM   12  OXT UNL     1      -8.437   9.310  65.515  1.00  0.00    -0.126 OA 
ENDROOT
BRANCH   4  13
HETATM   13  C   UNL     1     -10.540   9.920  67.240  1.00  0.00    -0.252 C  
BRANCH  13  14
HETATM   14  S   UNL     1     -10.469   8.398  68.218  1.00  0.00    -0.118 SA 
BRANCH  14  15
HETATM   15  C   UNL     1      -9.489   8.798  69.567  1.00  0.00    -0.165 A  
HETATM   16  N   UNL     1      -8.190   8.666  69.693  1.00  0.00    -0.112 NA 
HETATM   17  C   UNL     1     -11.340   9.640  71.077  1.00  0.00    -0.374 C  
HETATM   18  N   UNL     1      -7.893   9.079  70.972  1.00  0.00    -0.170 NA 
HETATM   19  N   UNL     1      -8.990   9.465  71.610  1.00  0.00    -0.153 NA 
HETATM   20  N   UNL     1      -9.990   9.298  70.732  1.00  0.00    -0.269 NA 
ENDBRANCH  14  15
ENDBRANCH  13  14
ENDBRANCH   4  13
BRANCH  10  21
HETATM   21  N   UNL     1      -7.016  15.162  67.333  1.00  0.00    -0.190 N  
HETATM   22  C   UNL     1      -6.886  16.453  67.794  1.00  0.00    -0.134 C  
HETATM   23  O   UNL     1      -6.441  16.731  68.903  1.00  0.00    -0.158 OA 
HETATM   24  H   UNL     1      -7.439  15.029  66.413  1.00  0.00     0.000 HD 
BRANCH  22  25
HETATM   25  C   UNL     1      -7.335  17.502  66.753  1.00  0.00    -0.215 C  
HETATM   26  H   UNL     1      -6.536  19.060  65.848  1.00  0.00     0.000 HD 
HETATM   27  O   UNL     1      -6.259  18.415  66.487  1.00  0.00    -0.162 OA 
BRANCH  25  28
HETATM   28  C   UNL     1      -8.548  18.278  67.218  1.00  0.00    -0.254 A  
HETATM   29  C   UNL     1      -8.600  18.770  68.530  1.00  0.00    -0.378 A  
HETATM   30  C   UNL     1      -9.713  19.485  68.978  1.00  0.00    -0.455 A  
HETATM   31  C   UNL     1     -10.783  19.725  68.118  1.00  0.00    -0.232 A  
HETATM   32  C   UNL     1     -10.738  19.260  66.806  1.00  0.00    -0.526 A  
HETATM   33  C   UNL     1      -9.627  18.545  66.357  1.00  0.00    -0.322 A  
ENDBRANCH  25  28
ENDBRANCH  22  25
ENDBRANCH  10  21
TORSDOF 6
ENDMDL
MODEL      174
REMARK 921   NORMALIZED FREE ENERGY PREDICTED BY IDOCK:   -4.19 KCAL/MOL
REMARK 922        TOTAL FREE ENERGY PREDICTED BY IDOCK:   -6.70 KCAL/MOL
REMARK 923 INTER-LIGAND FREE ENERGY PREDICTED BY IDOCK:   -6.83 KCAL/MOL
REMARK 924 INTRA-LIGAND FREE ENERGY PREDICTED BY IDOCK:    0.14 KCAL/MOL
REMARK 927      BINDING AFFINITY PREDICTED BY RF-SCORE:    0.00 PKD
ROOT
HETATM    1  C   UNL     1      -8.382   9.682  69.878  1.00  0.00    -0.183 C  
HETATM    2  S   UNL     1      -8.389   9.375  68.091  1.00  0.00    -0.119 SA 
HETATM    3  C   UNL     1      -9.344  10.864  67.733  1.00  0.00    -0.157 C  
HETATM    4  C   UNL     1     -10.591  11.042  68.591  1.00  0.00    -0.225 C  
HETATM    5  O   UNL     1     -12.142  10.221  71.808  1.00  0.00    -0.315 OA 
HETATM    6  CA  UNL     1     -10.773  10.434  69.803  1.00  0.00    -0.278 C  
HETATM    7  N   UNL     1      -9.754   9.703  70.351  1.00  0.00    -0.262 N  
HETATM    8  O   UNL     1     -10.364   8.432  72.191  1.00  0.00    -0.271 OA 
HETATM    9  C   UNL     1     -12.121  10.500  70.495  1.00  0.00    -0.345 C  
HETATM   10  CA  UNL     1      -8.164   8.416  70.774  1.00  0.00    -0.124 C  
HETATM   11  C   UNL     1      -9.587   8.782  71.330  1.00  0.00    -0.253 C  
HETATM   12  OXT UNL     1     -13.154  10.848  69.941  1.00  0.00    -0.049 OA 
ENDROOT
BRANCH   4  13
HETATM   13  C   UNL     1     -11.633  11.868  67.839  1.00  0.00    -0.323 C  
BRANCH  13  14
HETATM   14  S   UNL     1     -11.782  13.600  68.342  1.00  0.00    -0.375 SA 
BRANCH  14  15
HETATM   15  C   UNL     1     -11.107  14.488  67.040  1.00  0.00    -0.322 A  
HETATM   16  N   UNL     1     -10.015  15.214  67.035  1.00  0.00    -0.239 NA 
HETATM   17  C   UNL     1     -12.871  13.923  65.312  1.00  0.00    -0.398 C  
HETATM   18  N   UNL     1      -9.932  15.757  65.772  1.00  0.00    -0.338 NA 
HETATM   19  N   UNL     1     -10.951  15.362  65.021  1.00  0.00    -0.417 NA 
HETATM   20  N   UNL     1     -11.684  14.560  65.808  1.00  0.00    -0.358 NA 
ENDBRANCH  14  15
ENDBRANCH  13  14
ENDBRANCH   4  13
BRANCH  10  21
HETATM   21  N   UNL     1      -8.079   7.132  70.041  1.00  0.00    -0.125 N  
HETATM   22  C   UNL     1      -6.947   6.654  69.420  1.00  0.00    -0.067 C  
HETATM   23  O   UNL     1      -5.892   7.278  69.368  1.00  0.00    -0.025 OA 
HETATM   24  H   UNL     1      -8.923   6.559  69.992  1.00  0.00     0.000 HD 
BRANCH  22  25
HETATM   25  C   UNL     1      -7.149   5.243  68.824  1.00  0.00    -0.061 C  
HETATM   26  H   UNL     1      -6.086   3.968  67.761  1.00  0.00     0.000 HD 
HETATM   27  O   UNL     1      -5.962   4.835  68.127  1.00  0.00    -0.024 OA 
BRANCH  25  28
HETATM   28  C   UNL     1      -8.328   5.191  67.878  1.00  0.00    -0.097 A  
HETATM   29  C   UNL     1      -8.225   4.480  66.674  1.00  0.00    -0.102 A  
HETATM   30  C   UNL     1      -9.302   4.424  65.787  1.00  0.00    -0.162 A  
HETATM   31  C   UNL     1     -10.497   5.069  66.095  1.00  0.00    -0.334 A  
HETATM   32  C   UNL     1     -10.623   5.764  67.296  1.00  0.00    -0.353 A  
HETATM   33  C   UNL     1      -9.547   5.822  68.184  1.00  0.00    -0.132 A  
ENDBRANCH  25  28
ENDBRANCH  22  25
ENDBRANCH  10  21
TORSDOF 6
ENDMDL
MODEL      175
REMARK 921   NORMALIZED FREE ENERGY PREDICTED BY IDOCK:   -4.18 KCAL/MOL
REMARK 922        TOTAL FREE ENERGY PREDICTED BY IDOCK:   -6.69 KCAL/MOL
REMARK 923 INTER-LIGAND FREE ENERGY PREDICTED BY IDOCK:   -6.23 KCAL/MOL
REMARK 924 INTRA-LIGAND FREE ENERGY PREDICTED BY IDOCK:   -0.46 KCAL/MOL
REMARK 927      BINDING AFFINITY PREDICTED BY RF-SCORE:    0.00 PKD
ROOT
HETATM    1  C   UNL     1      -9.740   9.401  71.237  1.00  0.00    -0.139 C  
HETATM    2  S   UNL     1      -8.616   8.399  70.226  1.00  0.00    -0.132 SA 
HETATM    3  C   UNL     1      -8.158   9.790  69.170  1.00  0.00    -0.107 C  
HETATM    4  C   UNL     1      -9.335  10.592  68.628  1.00  0.00    -0.177 C  
HETATM    5  O   UNL     1     -12.821  11.554  69.230  1.00  0.00     0.114 OA 
HETATM    6  CA  UNL     1     -10.579  10.597  69.199  1.00  0.00    -0.226 C  
HETATM    7  N   UNL     1     -10.782   9.937  70.380  1.00  0.00    -0.300 N  
HETATM    8  O   UNL     1     -13.008   9.716  70.989  1.00  0.00    -0.317 OA 
HETATM    9  C   UNL     1     -11.743  11.256  68.485  1.00  0.00    -0.308 C  
HETATM   10  CA  UNL     1     -10.860   8.601  71.985  1.00  0.00    -0.360 C  
HETATM   11  C   UNL     1     -11.825   9.487  71.118  1.00  0.00    -0.358 C  
HETATM   12  OXT UNL     1     -11.724  11.580  67.306  1.00  0.00    -0.576 OA 
ENDROOT
BRANCH   4  13
HETATM   13  C   UNL     1      -8.955  11.257  67.307  1.00  0.00    -0.149 C  
BRANCH  13  14
HETATM   14  S   UNL     1      -9.061  13.064  67.272  1.00  0.00    -0.217 SA 
BRANCH  14  15
HETATM   15  C   UNL     1      -7.430  13.592  67.280  1.00  0.00    -0.033 A  
HETATM   16  N   UNL     1      -6.345  12.871  67.428  1.00  0.00    -0.215 NA 
HETATM   17  C   UNL     1      -7.887  16.061  66.949  1.00  0.00    -0.249 C  
HETATM   18  N   UNL     1      -5.296  13.763  67.411  1.00  0.00    -0.329 NA 
HETATM   19  N   UNL     1      -5.734  15.003  67.246  1.00  0.00    -0.261 NA 
HETATM   20  N   UNL     1      -7.069  14.900  67.156  1.00  0.00    -0.188 NA 
ENDBRANCH  14  15
ENDBRANCH  13  14
ENDBRANCH   4  13
BRANCH  10  21
HETATM   21  N   UNL     1     -10.899   7.150  71.695  1.00  0.00    -0.224 N  
HETATM   22  C   UNL     1     -10.658   6.156  72.619  1.00  0.00    -0.218 C  
HETATM   23  O   UNL     1     -10.332   6.381  73.780  1.00  0.00    -0.256 OA 
HETATM   24  H   UNL     1     -11.121   6.864  70.741  1.00  0.00     0.000 HD 
BRANCH  22  25
HETATM   25  C   UNL     1     -10.869   4.742  72.036  1.00  0.00     0.027 C  
HETATM   26  H   UNL     1     -11.015   2.906  72.738  1.00  0.00     0.000 HD 
HETATM   27  O   UNL     1     -10.886   3.776  73.097  1.00  0.00    -0.182 OA 
BRANCH  25  28
HETATM   28  C   UNL     1      -9.792   4.373  71.040  1.00  0.00    -0.260 A  
HETATM   29  C   UNL     1      -8.538   3.940  71.496  1.00  0.00    -0.121 A  
HETATM   30  C   UNL     1      -7.531   3.599  70.592  1.00  0.00    -0.041 A  
HETATM   31  C   UNL     1      -7.765   3.678  69.220  1.00  0.00    -0.052 A  
HETATM   32  C   UNL     1      -9.010   4.087  68.751  1.00  0.00    -0.166 A  
HETATM   33  C   UNL     1     -10.019   4.429  69.653  1.00  0.00    -0.209 A  
ENDBRANCH  25  28
ENDBRANCH  22  25
ENDBRANCH  10  21
TORSDOF 6
ENDMDL
MODEL      176
REMARK 921   NORMALIZED FREE ENERGY PREDICTED BY IDOCK:   -4.15 KCAL/MOL
REMARK 922        TOTAL FREE ENERGY PREDICTED BY IDOCK:   -6.65 KCAL/MOL
REMARK 923 INTER-LIGAND FREE ENERGY PREDICTED BY IDOCK:   -6.30 KCAL/MOL
REMARK 924 INTRA-LIGAND FREE ENERGY PREDICTED BY IDOCK:   -0.35 KCAL/MOL
REMARK 927      BINDING AFFINITY PREDICTED BY RF-SCORE:    0.00 PKD
ROOT
HETATM    1  C   UNL     1     -10.249   7.909  69.719  1.00  0.00    -0.212 C  
HETATM    2  S   UNL     1     -10.528   8.403  67.997  1.00  0.00    -0.143 SA 
HETATM    3  C   UNL     1      -9.555   7.035  67.336  1.00  0.00    -0.135 C  
HETATM    4  C   UNL     1      -8.185   6.859  67.979  1.00  0.00    -0.115 C  
HETATM    5  O   UNL     1      -6.216   7.445  71.015  1.00  0.00    -0.035 OA 
HETATM    6  CA  UNL     1      -7.858   7.346  69.215  1.00  0.00    -0.116 C  
HETATM    7  N   UNL     1      -8.822   7.938  69.984  1.00  0.00    -0.140 N  
HETATM    8  O   UNL     1      -8.015   9.048  71.853  1.00  0.00    -0.348 OA 
HETATM    9  C   UNL     1      -6.419   7.306  69.694  1.00  0.00    -0.036 C  
HETATM   10  CA  UNL     1     -10.401   9.054  70.777  1.00  0.00    -0.243 C  
HETATM   11  C   UNL     1      -8.892   8.736  71.077  1.00  0.00    -0.211 C  
HETATM   12  OXT UNL     1      -5.463   7.095  68.962  1.00  0.00    -0.017 OA 
ENDROOT
BRANCH   4  13
HETATM   13  C   UNL     1      -7.223   6.195  66.996  1.00  0.00    -0.074 C  
BRANCH  13  14
HETATM   14  S   UNL     1      -7.822   4.683  66.202  1.00  0.00    -0.095 SA 
BRANCH  14  15
HETATM   15  C   UNL     1      -6.866   4.530  64.787  1.00  0.00    -0.046 A  
HETATM   16  N   UNL     1      -5.919   3.658  64.539  1.00  0.00    -0.021 NA 
HETATM   17  C   UNL     1      -7.880   6.462  63.500  1.00  0.00    -0.110 C  
HETATM   18  N   UNL     1      -5.427   3.982  63.294  1.00  0.00    -0.012 NA 
HETATM   19  N   UNL     1      -6.069   5.027  62.791  1.00  0.00    -0.017 NA 
HETATM   20  N   UNL     1      -6.976   5.368  63.718  1.00  0.00    -0.046 NA 
ENDBRANCH  14  15
ENDBRANCH  13  14
ENDBRANCH   4  13
BRANCH  10  21
HETATM   21  N   UNL     1     -10.667  10.399  70.217  1.00  0.00    -0.436 N  
HETATM   22  C   UNL     1     -11.919  10.902  69.941  1.00  0.00    -0.353 C  
HETATM   23  O   UNL     1     -12.952  10.255  70.085  1.00  0.00    -0.162 OA 
HETATM   24  H   UNL     1      -9.863  10.997  70.022  1.00  0.00     0.000 HD 
BRANCH  22  25
HETATM   25  C   UNL     1     -11.875  12.368  69.456  1.00  0.00    -0.303 C  
HETATM   26  H   UNL     1     -10.498  13.633  68.832  1.00  0.00     0.000 HD 
HETATM   27  O   UNL     1     -10.525  12.731  69.130  1.00  0.00    -0.055 OA 
BRANCH  25  28
HETATM   28  C   UNL     1     -12.414  13.325  70.495  1.00  0.00    -0.332 A  
HETATM   29  C   UNL     1     -12.963  12.825  71.685  1.00  0.00    -0.402 A  
HETATM   30  C   UNL     1     -13.470  13.693  72.655  1.00  0.00    -0.608 A  
HETATM   31  C   UNL     1     -13.426  15.071  72.452  1.00  0.00    -0.533 A  
HETATM   32  C   UNL     1     -12.868  15.584  71.284  1.00  0.00    -0.540 A  
HETATM   33  C   UNL     1     -12.361  14.718  70.313  1.00  0.00    -0.400 A  
ENDBRANCH  25  28
ENDBRANCH  22  25
ENDBRANCH  10  21
TORSDOF 6
ENDMDL
MODEL      177
REMARK 921   NORMALIZED FREE ENERGY PREDICTED BY IDOCK:   -4.15 KCAL/MOL
REMARK 922        TOTAL FREE ENERGY PREDICTED BY IDOCK:   -6.65 KCAL/MOL
REMARK 923 INTER-LIGAND FREE ENERGY PREDICTED BY IDOCK:   -5.89 KCAL/MOL
REMARK 924 INTRA-LIGAND FREE ENERGY PREDICTED BY IDOCK:   -0.76 KCAL/MOL
REMARK 927      BINDING AFFINITY PREDICTED BY RF-SCORE:    0.00 PKD
ROOT
HETATM    1  C   UNL     1      -7.196   8.767  68.693  1.00  0.00    -0.073 C  
HETATM    2  S   UNL     1      -8.149   9.062  70.206  1.00  0.00    -0.155 SA 
HETATM    3  C   UNL     1      -8.153   7.318  70.670  1.00  0.00    -0.108 C  
HETATM    4  C   UNL     1      -8.565   6.364  69.554  1.00  0.00    -0.133 C  
HETATM    5  O   UNL     1      -8.721   5.912  65.920  1.00  0.00    -0.143 OA 
HETATM    6  CA  UNL     1      -8.504   6.679  68.224  1.00  0.00    -0.120 C  
HETATM    7  N   UNL     1      -7.951   7.869  67.837  1.00  0.00    -0.126 N  
HETATM    8  O   UNL     1      -8.289   8.407  65.607  1.00  0.00    -0.135 OA 
HETATM    9  C   UNL     1      -9.122   5.754  67.192  1.00  0.00    -0.112 C  
HETATM   10  CA  UNL     1      -7.356   9.855  67.578  1.00  0.00    -0.090 C  
HETATM   11  C   UNL     1      -7.919   8.655  66.734  1.00  0.00    -0.094 C  
HETATM   12  OXT UNL     1      -9.901   4.853  67.466  1.00  0.00    -0.158 OA 
ENDROOT
BRANCH   4  13
HETATM   13  C   UNL     1      -9.171   5.093  70.146  1.00  0.00    -0.142 C  
BRANCH  13  14
HETATM   14  S   UNL     1      -8.294   4.384  71.562  1.00  0.00    -0.098 SA 
BRANCH  14  15
HETATM   15  C   UNL     1      -9.500   4.193  72.765  1.00  0.00    -0.125 A  
HETATM   16  N   UNL     1      -9.897   5.065  73.660  1.00  0.00    -0.149 NA 
HETATM   17  C   UNL     1     -10.139   1.806  72.210  1.00  0.00    -0.150 C  
HETATM   18  N   UNL     1     -10.846   4.418  74.420  1.00  0.00    -0.281 NA 
HETATM   19  N   UNL     1     -11.029   3.178  73.989  1.00  0.00    -0.183 NA 
HETATM   20  N   UNL     1     -10.195   3.036  72.948  1.00  0.00    -0.148 NA 
ENDBRANCH  14  15
ENDBRANCH  13  14
ENDBRANCH   4  13
BRANCH  10  21
HETATM   21  N   UNL     1      -8.329  10.929  67.880  1.00  0.00    -0.117 N  
HETATM   22  C   UNL     1      -8.885  11.773  66.944  1.00  0.00    -0.191 C  
HETATM   23  O   UNL     1      -8.586  11.751  65.755  1.00  0.00     0.024 OA 
HETATM   24  H   UNL     1      -8.608  11.054  68.854  1.00  0.00     0.000 HD 
BRANCH  22  25
HETATM   25  C   UNL     1      -9.937  12.724  67.555  1.00  0.00    -0.210 C  
HETATM   26  H   UNL     1     -11.482  12.568  68.770  1.00  0.00     0.000 HD 
HETATM   27  O   UNL     1     -10.835  11.982  68.395  1.00  0.00    -0.212 OA 
BRANCH  25  28
HETATM   28  C   UNL     1     -10.730  13.451  66.492  1.00  0.00    -0.287 A  
HETATM   29  C   UNL     1     -10.196  14.596  65.884  1.00  0.00    -0.344 A  
HETATM   30  C   UNL     1     -10.915  15.281  64.902  1.00  0.00    -0.445 A  
HETATM   31  C   UNL     1     -12.173  14.827  64.510  1.00  0.00    -0.443 A  
HETATM   32  C   UNL     1     -12.709  13.680  65.091  1.00  0.00    -0.443 A  
HETATM   33  C   UNL     1     -11.992  12.994  66.072  1.00  0.00    -0.498 A  
ENDBRANCH  25  28
ENDBRANCH  22  25
ENDBRANCH  10  21
TORSDOF 6
ENDMDL
MODEL      178
REMARK 921   NORMALIZED FREE ENERGY PREDICTED BY IDOCK:   -4.15 KCAL/MOL
REMARK 922        TOTAL FREE ENERGY PREDICTED BY IDOCK:   -6.65 KCAL/MOL
REMARK 923 INTER-LIGAND FREE ENERGY PREDICTED BY IDOCK:   -6.83 KCAL/MOL
REMARK 924 INTRA-LIGAND FREE ENERGY PREDICTED BY IDOCK:    0.19 KCAL/MOL
REMARK 927      BINDING AFFINITY PREDICTED BY RF-SCORE:    0.00 PKD
ROOT
HETATM    1  C   UNL     1      -6.465  15.595  67.274  1.00  0.00    -0.058 C  
HETATM    2  S   UNL     1      -7.724  16.421  66.265  1.00  0.00     0.059 SA 
HETATM    3  C   UNL     1      -6.810  17.976  66.208  1.00  0.00    -0.256 C  
HETATM    4  C   UNL     1      -6.315  18.473  67.561  1.00  0.00    -0.194 C  
HETATM    5  O   UNL     1      -5.340  17.449  70.942  1.00  0.00    -0.251 OA 
HETATM    6  CA  UNL     1      -6.149  17.666  68.653  1.00  0.00    -0.180 C  
HETATM    7  N   UNL     1      -6.328  16.316  68.527  1.00  0.00    -0.118 N  
HETATM    8  O   UNL     1      -6.396  15.163  70.538  1.00  0.00    -0.088 OA 
HETATM    9  C   UNL     1      -5.850  18.272  70.011  1.00  0.00    -0.211 C  
HETATM   10  CA  UNL     1      -6.973  14.372  68.110  1.00  0.00    -0.124 C  
HETATM   11  C   UNL     1      -6.513  15.243  69.334  1.00  0.00    -0.141 C  
HETATM   12  OXT UNL     1      -5.988  19.458  70.273  1.00  0.00    -0.249 OA 
ENDROOT
BRANCH   4  13
HETATM   13  C   UNL     1      -6.175  19.994  67.543  1.00  0.00    -0.199 C  
BRANCH  13  14
HETATM   14  S   UNL     1      -7.680  20.922  67.157  1.00  0.00    -0.069 SA 
BRANCH  14  15
HETATM   15  C   UNL     1      -8.956  19.942  67.751  1.00  0.00    -0.323 A  
HETATM   16  N   UNL     1      -9.120  19.474  68.964  1.00  0.00    -0.304 NA 
HETATM   17  C   UNL     1     -10.258  19.756  65.586  1.00  0.00    -0.267 C  
HETATM   18  N   UNL     1     -10.264  18.708  68.919  1.00  0.00    -0.315 NA 
HETATM   19  N   UNL     1     -10.791  18.719  67.702  1.00  0.00    -0.392 NA 
HETATM   20  N   UNL     1      -9.980  19.496  66.970  1.00  0.00    -0.352 NA 
ENDBRANCH  14  15
ENDBRANCH  13  14
ENDBRANCH   4  13
BRANCH  10  21
HETATM   21  N   UNL     1      -8.428  14.113  68.027  1.00  0.00    -0.160 N  
HETATM   22  C   UNL     1      -9.380  14.706  68.828  1.00  0.00    -0.191 C  
HETATM   23  O   UNL     1      -9.106  15.482  69.737  1.00  0.00    -0.251 OA 
HETATM   24  H   UNL     1      -8.750  13.445  67.326  1.00  0.00     0.000 HD 
BRANCH  22  25
HETATM   25  C   UNL     1     -10.818  14.303  68.435  1.00  0.00    -0.253 C  
HETATM   26  H   UNL     1     -12.601  14.345  69.275  1.00  0.00     0.000 HD 
HETATM   27  O   UNL     1     -11.716  14.593  69.517  1.00  0.00    -0.287 OA 
BRANCH  25  28
HETATM   28  C   UNL     1     -10.919  12.837  68.079  1.00  0.00    -0.266 A  
HETATM   29  C   UNL     1     -11.195  11.894  69.079  1.00  0.00    -0.316 A  
HETATM   30  C   UNL     1     -11.288  10.535  68.770  1.00  0.00    -0.310 A  
HETATM   31  C   UNL     1     -11.117  10.103  67.456  1.00  0.00    -0.251 A  
HETATM   32  C   UNL     1     -10.861  11.029  66.448  1.00  0.00    -0.253 A  
HETATM   33  C   UNL     1     -10.767  12.387  66.755  1.00  0.00    -0.263 A  
ENDBRANCH  25  28
ENDBRANCH  22  25
ENDBRANCH  10  21
TORSDOF 6
ENDMDL
MODEL      179
REMARK 921   NORMALIZED FREE ENERGY PREDICTED BY IDOCK:   -4.09 KCAL/MOL
REMARK 922        TOTAL FREE ENERGY PREDICTED BY IDOCK:   -6.57 KCAL/MOL
REMARK 923 INTER-LIGAND FREE ENERGY PREDICTED BY IDOCK:   -5.60 KCAL/MOL
REMARK 924 INTRA-LIGAND FREE ENERGY PREDICTED BY IDOCK:   -0.97 KCAL/MOL
REMARK 927      BINDING AFFINITY PREDICTED BY RF-SCORE:    0.00 PKD
ROOT
HETATM    1  C   UNL     1      -9.279   8.340  70.542  1.00  0.00    -0.151 C  
HETATM    2  S   UNL     1      -8.717   8.779  68.875  1.00  0.00    -0.134 SA 
HETATM    3  C   UNL     1      -8.842  10.552  69.186  1.00  0.00    -0.151 C  
HETATM    4  C   UNL     1     -10.161  10.999  69.804  1.00  0.00     0.199 C  
HETATM    5  O   UNL     1     -13.006   9.935  71.856  1.00  0.00    -0.399 OA 
HETATM    6  CA  UNL     1     -11.001  10.163  70.488  1.00  0.00    -0.310 C  
HETATM    7  N   UNL     1     -10.616   8.874  70.736  1.00  0.00    -0.211 N  
HETATM    8  O   UNL     1     -12.302   7.503  71.543  1.00  0.00    -0.311 OA 
HETATM    9  C   UNL     1     -12.384  10.636  70.894  1.00  0.00    -0.401 C  
HETATM   10  CA  UNL     1      -9.902   6.910  70.684  1.00  0.00    -0.182 C  
HETATM   11  C   UNL     1     -11.186   7.705  71.117  1.00  0.00    -0.261 C  
HETATM   12  OXT UNL     1     -12.920  11.637  70.443  1.00  0.00     0.025 OA 
ENDROOT
BRANCH   4  13
HETATM   13  C   UNL     1     -10.454  12.450  69.429  1.00  0.00     0.350 C  
BRANCH  13  14
HETATM   14  S   UNL     1      -9.675  13.045  67.907  1.00  0.00    -0.224 SA 
BRANCH  14  15
HETATM   15  C   UNL     1     -10.982  13.309  66.829  1.00  0.00    -0.287 A  
HETATM   16  N   UNL     1     -12.040  14.062  67.008  1.00  0.00    -0.439 NA 
HETATM   17  C   UNL     1     -10.163  11.817  64.954  1.00  0.00    -0.273 C  
HETATM   18  N   UNL     1     -12.811  13.901  65.878  1.00  0.00    -0.432 NA 
HETATM   19  N   UNL     1     -12.226  13.072  65.023  1.00  0.00    -0.425 NA 
HETATM   20  N   UNL     1     -11.078  12.706  65.611  1.00  0.00    -0.284 NA 
ENDBRANCH  14  15
ENDBRANCH  13  14
ENDBRANCH   4  13
BRANCH  10  21
HETATM   21  N   UNL     1     -10.024   6.147  69.420  1.00  0.00    -0.159 N  
HETATM   22  C   UNL     1      -9.222   5.087  69.062  1.00  0.00    -0.114 C  
HETATM   23  O   UNL     1      -8.278   4.696  69.741  1.00  0.00    -0.067 OA 
HETATM   24  H   UNL     1     -10.757   6.428  68.768  1.00  0.00     0.000 HD 
BRANCH  22  25
HETATM   25  C   UNL     1      -9.658   4.438  67.730  1.00  0.00    -0.160 C  
HETATM   26  H   UNL     1      -9.895   2.609  67.033  1.00  0.00     0.000 HD 
HETATM   27  O   UNL     1      -9.627   3.008  67.852  1.00  0.00    -0.194 OA 
BRANCH  25  28
HETATM   28  C   UNL     1      -8.775   4.862  66.577  1.00  0.00    -0.112 A  
HETATM   29  C   UNL     1      -8.886   6.158  66.054  1.00  0.00    -0.160 A  
HETATM   30  C   UNL     1      -8.082   6.566  64.987  1.00  0.00    -0.127 A  
HETATM   31  C   UNL     1      -7.152   5.688  64.436  1.00  0.00    -0.053 A  
HETATM   32  C   UNL     1      -7.017   4.403  64.956  1.00  0.00    -0.058 A  
HETATM   33  C   UNL     1      -7.819   3.993  66.022  1.00  0.00    -0.090 A  
ENDBRANCH  25  28
ENDBRANCH  22  25
ENDBRANCH  10  21
TORSDOF 6
ENDMDL
MODEL      180
REMARK 921   NORMALIZED FREE ENERGY PREDICTED BY IDOCK:   -4.08 KCAL/MOL
REMARK 922        TOTAL FREE ENERGY PREDICTED BY IDOCK:   -6.55 KCAL/MOL
REMARK 923 INTER-LIGAND FREE ENERGY PREDICTED BY IDOCK:   -6.60 KCAL/MOL
REMARK 924 INTRA-LIGAND FREE ENERGY PREDICTED BY IDOCK:    0.05 KCAL/MOL
REMARK 927      BINDING AFFINITY PREDICTED BY RF-SCORE:    0.00 PKD
ROOT
HETATM    1  C   UNL     1      -9.387   8.776  71.880  1.00  0.00    -0.273 C  
HETATM    2  S   UNL     1      -8.397   8.147  70.498  1.00  0.00    -0.127 SA 
HETATM    3  C   UNL     1      -8.400   9.733  69.637  1.00  0.00    -0.173 C  
HETATM    4  C   UNL     1      -9.773  10.381  69.500  1.00  0.00    -0.196 C  
HETATM    5  O   UNL     1     -13.125  10.608  70.964  1.00  0.00    -0.362 OA 
HETATM    6  CA  UNL     1     -10.838  10.082  70.304  1.00  0.00    -0.313 C  
HETATM    7  N   UNL     1     -10.665   9.235  71.364  1.00  0.00    -0.344 N  
HETATM    8  O   UNL     1     -12.635   8.534  72.367  1.00  0.00    -0.374 OA 
HETATM    9  C   UNL     1     -12.218  10.617  69.973  1.00  0.00    -0.298 C  
HETATM   10  CA  UNL     1     -10.178   7.691  72.686  1.00  0.00    -0.265 C  
HETATM   11  C   UNL     1     -11.434   8.504  72.208  1.00  0.00    -0.375 C  
HETATM   12  OXT UNL     1     -12.518  11.104  68.893  1.00  0.00    -0.460 OA 
ENDROOT
BRANCH   4  13
HETATM   13  C   UNL     1      -9.807  11.286  68.269  1.00  0.00    -0.197 C  
BRANCH  13  14
HETATM   14  S   UNL     1     -10.410  10.522  66.744  1.00  0.00    -0.240 SA 
BRANCH  14  15
HETATM   15  C   UNL     1      -9.253   9.309  66.381  1.00  0.00    -0.180 A  
HETATM   16  N   UNL     1      -8.047   9.462  65.890  1.00  0.00    -0.113 NA 
HETATM   17  C   UNL     1     -10.647   7.312  67.075  1.00  0.00    -0.344 C  
HETATM   18  N   UNL     1      -7.541   8.190  65.736  1.00  0.00    -0.080 NA 
HETATM   19  N   UNL     1      -8.420   7.281  66.136  1.00  0.00    -0.135 NA 
HETATM   20  N   UNL     1      -9.490   7.978  66.548  1.00  0.00    -0.203 NA 
ENDBRANCH  14  15
ENDBRANCH  13  14
ENDBRANCH   4  13
BRANCH  10  21
HETATM   21  N   UNL     1     -10.075   6.312  72.155  1.00  0.00    -0.181 N  
HETATM   22  C   UNL     1     -10.749   5.843  71.049  1.00  0.00    -0.267 C  
HETATM   23  O   UNL     1     -11.553   6.518  70.414  1.00  0.00    -0.375 OA 
HETATM   24  H   UNL     1      -9.460   5.662  72.645  1.00  0.00     0.000 HD 
BRANCH  22  25
HETATM   25  C   UNL     1     -10.360   4.392  70.690  1.00  0.00     0.116 C  
HETATM   26  H   UNL     1      -9.610   2.831  71.631  1.00  0.00     0.000 HD 
HETATM   27  O   UNL     1      -9.849   3.724  71.853  1.00  0.00    -0.164 OA 
BRANCH  25  28
HETATM   28  C   UNL     1      -9.327   4.339  69.587  1.00  0.00    -0.235 A  
HETATM   29  C   UNL     1      -9.710   3.970  68.289  1.00  0.00    -0.133 A  
HETATM   30  C   UNL     1      -8.769   3.912  67.259  1.00  0.00    -0.120 A  
HETATM   31  C   UNL     1      -7.436   4.230  67.509  1.00  0.00    -0.069 A  
HETATM   32  C   UNL     1      -7.042   4.618  68.788  1.00  0.00    -0.053 A  
HETATM   33  C   UNL     1      -7.981   4.676  69.819  1.00  0.00    -0.065 A  
ENDBRANCH  25  28
ENDBRANCH  22  25
ENDBRANCH  10  21
TORSDOF 6
ENDMDL
MODEL      181
REMARK 921   NORMALIZED FREE ENERGY PREDICTED BY IDOCK:   -4.07 KCAL/MOL
REMARK 922        TOTAL FREE ENERGY PREDICTED BY IDOCK:   -6.53 KCAL/MOL
REMARK 923 INTER-LIGAND FREE ENERGY PREDICTED BY IDOCK:   -5.06 KCAL/MOL
REMARK 924 INTRA-LIGAND FREE ENERGY PREDICTED BY IDOCK:   -1.47 KCAL/MOL
REMARK 927      BINDING AFFINITY PREDICTED BY RF-SCORE:    0.00 PKD
ROOT
HETATM    1  C   UNL     1     -10.858   5.829  68.536  1.00  0.00    -0.184 C  
HETATM    2  S   UNL     1      -9.776   5.000  69.730  1.00  0.00    -0.216 SA 
HETATM    3  C   UNL     1     -10.712   5.598  71.153  1.00  0.00    -0.241 C  
HETATM    4  C   UNL     1     -11.006   7.094  71.137  1.00  0.00    -0.272 C  
HETATM    5  O   UNL     1     -11.450  10.026  68.983  1.00  0.00    -0.142 OA 
HETATM    6  CA  UNL     1     -10.995   7.858  70.003  1.00  0.00    -0.207 C  
HETATM    7  N   UNL     1     -10.816   7.259  68.787  1.00  0.00    -0.140 N  
HETATM    8  O   UNL     1     -10.431   8.730  67.036  1.00  0.00    -0.283 OA 
HETATM    9  C   UNL     1     -11.097   9.369  70.101  1.00  0.00    -0.242 C  
HETATM   10  CA  UNL     1     -10.212   6.124  67.139  1.00  0.00    -0.199 C  
HETATM   11  C   UNL     1     -10.497   7.621  67.520  1.00  0.00    -0.266 C  
HETATM   12  OXT UNL     1     -10.939   9.996  71.138  1.00  0.00    -0.302 OA 
ENDROOT
BRANCH   4  13
HETATM   13  C   UNL     1     -11.170   7.612  72.565  1.00  0.00    -0.346 C  
BRANCH  13  14
HETATM   14  S   UNL     1     -10.114   6.836  73.814  1.00  0.00    -0.353 SA 
BRANCH  14  15
HETATM   15  C   UNL     1      -8.556   7.492  73.529  1.00  0.00    -0.181 A  
HETATM   16  N   UNL     1      -8.246   8.704  73.135  1.00  0.00    -0.409 NA 
HETATM   17  C   UNL     1      -7.221   5.414  74.091  1.00  0.00    -0.086 C  
HETATM   18  N   UNL     1      -6.875   8.718  73.008  1.00  0.00    -0.323 NA 
HETATM   19  N   UNL     1      -6.359   7.539  73.328  1.00  0.00    -0.060 NA 
HETATM   20  N   UNL     1      -7.407   6.771  73.662  1.00  0.00    -0.082 NA 
ENDBRANCH  14  15
ENDBRANCH  13  14
ENDBRANCH   4  13
BRANCH  10  21
HETATM   21  N   UNL     1      -8.782   5.761  67.017  1.00  0.00    -0.110 N  
HETATM   22  C   UNL     1      -7.973   6.102  65.956  1.00  0.00    -0.110 C  
HETATM   23  O   UNL     1      -8.376   6.705  64.967  1.00  0.00    -0.133 OA 
HETATM   24  H   UNL     1      -8.365   5.219  67.775  1.00  0.00     0.000 HD 
BRANCH  22  25
HETATM   25  C   UNL     1      -6.507   5.662  66.164  1.00  0.00    -0.040 C  
HETATM   26  H   UNL     1      -5.448   4.021  65.896  1.00  0.00     0.000 HD 
HETATM   27  O   UNL     1      -6.349   4.291  65.768  1.00  0.00    -0.031 OA 
BRANCH  25  28
HETATM   28  C   UNL     1      -6.066   5.822  67.602  1.00  0.00    -0.022 A  
HETATM   29  C   UNL     1      -5.898   4.689  68.410  1.00  0.00    -0.025 A  
HETATM   30  C   UNL     1      -5.495   4.818  69.741  1.00  0.00    -0.008 A  
HETATM   31  C   UNL     1      -5.246   6.079  70.278  1.00  0.00    -0.013 A  
HETATM   32  C   UNL     1      -5.389   7.213  69.483  1.00  0.00    -0.015 A  
HETATM   33  C   UNL     1      -5.792   7.087  68.153  1.00  0.00    -0.022 A  
ENDBRANCH  25  28
ENDBRANCH  22  25
ENDBRANCH  10  21
TORSDOF 6
ENDMDL
MODEL      182
REMARK 921   NORMALIZED FREE ENERGY PREDICTED BY IDOCK:   -4.04 KCAL/MOL
REMARK 922        TOTAL FREE ENERGY PREDICTED BY IDOCK:   -6.50 KCAL/MOL
REMARK 923 INTER-LIGAND FREE ENERGY PREDICTED BY IDOCK:   -5.64 KCAL/MOL
REMARK 924 INTRA-LIGAND FREE ENERGY PREDICTED BY IDOCK:   -0.86 KCAL/MOL
REMARK 927      BINDING AFFINITY PREDICTED BY RF-SCORE:    0.00 PKD
ROOT
HETATM    1  C   UNL     1      -8.297   9.879  70.109  1.00  0.00    -0.126 C  
HETATM    2  S   UNL     1     -10.079   9.624  70.323  1.00  0.00    -0.279 SA 
HETATM    3  C   UNL     1      -9.869   8.705  71.862  1.00  0.00    -0.314 C  
HETATM    4  C   UNL     1      -8.831   7.590  71.801  1.00  0.00    -0.131 C  
HETATM    5  O   UNL     1      -5.790   6.433  70.114  1.00  0.00    -0.017 OA 
HETATM    6  CA  UNL     1      -7.825   7.538  70.875  1.00  0.00    -0.094 C  
HETATM    7  N   UNL     1      -7.651   8.582  70.008  1.00  0.00    -0.062 N  
HETATM    8  O   UNL     1      -6.174   8.156  68.273  1.00  0.00    -0.047 OA 
HETATM    9  C   UNL     1      -6.962   6.296  70.755  1.00  0.00    -0.068 C  
HETATM   10  CA  UNL     1      -7.831  10.149  68.638  1.00  0.00    -0.097 C  
HETATM   11  C   UNL     1      -7.003   8.831  68.845  1.00  0.00    -0.062 C  
HETATM   12  OXT UNL     1      -7.246   5.219  71.257  1.00  0.00    -0.071 OA 
ENDROOT
BRANCH   4  13
HETATM   13  C   UNL     1      -9.169   6.501  72.817  1.00  0.00    -0.136 C  
BRANCH  13  14
HETATM   14  S   UNL     1     -10.708   5.595  72.522  1.00  0.00    -0.253 SA 
BRANCH  14  15
HETATM   15  C   UNL     1     -10.419   4.032  73.167  1.00  0.00    -0.175 A  
HETATM   16  N   UNL     1     -10.501   3.644  74.417  1.00  0.00    -0.204 NA 
HETATM   17  C   UNL     1      -9.813   2.889  70.990  1.00  0.00     0.008 C  
HETATM   18  N   UNL     1     -10.128   2.318  74.423  1.00  0.00    -0.110 NA 
HETATM   19  N   UNL     1      -9.832   1.906  73.198  1.00  0.00    -0.088 NA 
HETATM   20  N   UNL     1     -10.020   2.974  72.408  1.00  0.00    -0.157 NA 
ENDBRANCH  14  15
ENDBRANCH  13  14
ENDBRANCH   4  13
BRANCH  10  21
HETATM   21  N   UNL     1      -8.899  10.074  67.615  1.00  0.00    -0.122 N  
HETATM   22  C   UNL     1      -9.130  11.028  66.648  1.00  0.00    -0.166 C  
HETATM   23  O   UNL     1      -8.495  12.075  66.569  1.00  0.00    -0.160 OA 
HETATM   24  H   UNL     1      -9.508   9.256  67.627  1.00  0.00     0.000 HD 
BRANCH  22  25
HETATM   25  C   UNL     1     -10.251  10.618  65.668  1.00  0.00    -0.253 C  
HETATM   26  H   UNL     1     -10.394   9.569  64.006  1.00  0.00     0.000 HD 
HETATM   27  O   UNL     1      -9.704   9.821  64.607  1.00  0.00    -0.268 OA 
BRANCH  25  28
HETATM   28  C   UNL     1     -10.956  11.820  65.079  1.00  0.00    -0.357 A  
HETATM   29  C   UNL     1     -11.794  12.602  65.887  1.00  0.00    -0.499 A  
HETATM   30  C   UNL     1     -12.456  13.713  65.360  1.00  0.00    -0.537 A  
HETATM   31  C   UNL     1     -12.282  14.062  64.023  1.00  0.00    -0.395 A  
HETATM   32  C   UNL     1     -11.438  13.307  63.212  1.00  0.00     0.091 A  
HETATM   33  C   UNL     1     -10.776  12.196  63.737  1.00  0.00    -0.488 A  
ENDBRANCH  25  28
ENDBRANCH  22  25
ENDBRANCH  10  21
TORSDOF 6
ENDMDL
MODEL      183
REMARK 921   NORMALIZED FREE ENERGY PREDICTED BY IDOCK:   -3.99 KCAL/MOL
REMARK 922        TOTAL FREE ENERGY PREDICTED BY IDOCK:   -6.44 KCAL/MOL
REMARK 923 INTER-LIGAND FREE ENERGY PREDICTED BY IDOCK:   -5.57 KCAL/MOL
REMARK 924 INTRA-LIGAND FREE ENERGY PREDICTED BY IDOCK:   -0.86 KCAL/MOL
REMARK 927      BINDING AFFINITY PREDICTED BY RF-SCORE:    0.00 PKD
ROOT
HETATM    1  C   UNL     1      -7.024   9.496  68.348  1.00  0.00    -0.066 C  
HETATM    2  S   UNL     1      -8.127   8.371  69.245  1.00  0.00    -0.116 SA 
HETATM    3  C   UNL     1      -7.036   6.951  69.017  1.00  0.00    -0.088 C  
HETATM    4  C   UNL     1      -6.555   6.741  67.586  1.00  0.00    -0.058 C  
HETATM    5  O   UNL     1      -5.875   8.405  64.392  1.00  0.00    -0.062 OA 
HETATM    6  CA  UNL     1      -6.538   7.727  66.638  1.00  0.00    -0.054 C  
HETATM    7  N   UNL     1      -6.868   9.008  66.990  1.00  0.00    -0.076 N  
HETATM    8  O   UNL     1      -7.170  10.450  65.200  1.00  0.00    -0.134 OA 
HETATM    9  C   UNL     1      -6.239   7.388  65.190  1.00  0.00    -0.038 C  
HETATM   10  CA  UNL     1      -7.712  10.765  67.741  1.00  0.00    -0.104 C  
HETATM   11  C   UNL     1      -7.216  10.165  66.377  1.00  0.00    -0.108 C  
HETATM   12  OXT UNL     1      -6.251   6.252  64.741  1.00  0.00    -0.029 OA 
ENDROOT
BRANCH   4  13
HETATM   13  C   UNL     1      -6.238   5.266  67.349  1.00  0.00    -0.035 C  
BRANCH  13  14
HETATM   14  S   UNL     1      -7.449   4.084  67.993  1.00  0.00    -0.067 SA 
BRANCH  14  15
HETATM   15  C   UNL     1      -7.888   3.133  66.635  1.00  0.00    -0.077 A  
HETATM   16  N   UNL     1      -7.484   1.925  66.327  1.00  0.00    -0.061 NA 
HETATM   17  C   UNL     1      -9.447   4.811  65.554  1.00  0.00    -0.163 C  
HETATM   18  N   UNL     1      -8.082   1.624  65.124  1.00  0.00    -0.073 NA 
HETATM   19  N   UNL     1      -8.843   2.628  64.712  1.00  0.00    -0.113 NA 
HETATM   20  N   UNL     1      -8.731   3.572  65.658  1.00  0.00    -0.115 NA 
ENDBRANCH  14  15
ENDBRANCH  13  14
ENDBRANCH   4  13
BRANCH  10  21
HETATM   21  N   UNL     1      -9.182  10.827  67.910  1.00  0.00    -0.148 N  
HETATM   22  C   UNL     1      -9.897  11.978  68.159  1.00  0.00    -0.201 C  
HETATM   23  O   UNL     1      -9.372  13.076  68.320  1.00  0.00    -0.212 OA 
HETATM   24  H   UNL     1      -9.704   9.953  67.835  1.00  0.00     0.000 HD 
BRANCH  22  25
HETATM   25  C   UNL     1     -11.421  11.733  68.188  1.00  0.00    -0.316 C  
HETATM   26  H   UNL     1     -12.992  12.335  67.161  1.00  0.00     0.000 HD 
HETATM   27  O   UNL     1     -12.055  12.486  67.143  1.00  0.00    -0.504 OA 
BRANCH  25  28
HETATM   28  C   UNL     1     -12.031  12.113  69.519  1.00  0.00    -0.338 A  
HETATM   29  C   UNL     1     -12.459  11.111  70.402  1.00  0.00    -0.382 A  
HETATM   30  C   UNL     1     -13.028  11.443  71.634  1.00  0.00    -0.523 A  
HETATM   31  C   UNL     1     -13.168  12.779  72.002  1.00  0.00    -0.538 A  
HETATM   32  C   UNL     1     -12.730  13.786  71.146  1.00  0.00    -0.438 A  
HETATM   33  C   UNL     1     -12.162  13.456  69.914  1.00  0.00    -0.337 A  
ENDBRANCH  25  28
ENDBRANCH  22  25
ENDBRANCH  10  21
TORSDOF 6
ENDMDL
MODEL      184
REMARK 921   NORMALIZED FREE ENERGY PREDICTED BY IDOCK:   -3.97 KCAL/MOL
REMARK 922        TOTAL FREE ENERGY PREDICTED BY IDOCK:   -6.41 KCAL/MOL
REMARK 923 INTER-LIGAND FREE ENERGY PREDICTED BY IDOCK:   -5.41 KCAL/MOL
REMARK 924 INTRA-LIGAND FREE ENERGY PREDICTED BY IDOCK:   -0.99 KCAL/MOL
REMARK 927      BINDING AFFINITY PREDICTED BY RF-SCORE:    0.00 PKD
ROOT
HETATM    1  C   UNL     1      -8.422   9.436  65.927  1.00  0.00    -0.126 C  
HETATM    2  S   UNL     1      -9.612   9.300  67.287  1.00  0.00    -0.164 SA 
HETATM    3  C   UNL     1      -9.948  11.073  67.310  1.00  0.00    -0.181 C  
HETATM    4  C   UNL     1      -8.706  11.956  67.326  1.00  0.00    -0.171 C  
HETATM    5  O   UNL     1      -5.161  12.136  66.413  1.00  0.00    -0.304 OA 
HETATM    6  CA  UNL     1      -7.472  11.538  66.910  1.00  0.00    -0.145 C  
HETATM    7  N   UNL     1      -7.333  10.299  66.348  1.00  0.00    -0.108 N  
HETATM    8  O   UNL     1      -5.137   9.608  66.072  1.00  0.00    -0.034 OA 
HETATM    9  C   UNL     1      -6.252  12.408  67.148  1.00  0.00    -0.082 C  
HETATM   10  CA  UNL     1      -7.376   8.274  65.833  1.00  0.00    -0.076 C  
HETATM   11  C   UNL     1      -6.335   9.430  66.054  1.00  0.00    -0.068 C  
HETATM   12  OXT UNL     1      -6.235  13.362  67.912  1.00  0.00    -0.117 OA 
ENDROOT
BRANCH   4  13
HETATM   13  C   UNL     1      -9.021  13.294  67.991  1.00  0.00    -0.191 C  
BRANCH  13  14
HETATM   14  S   UNL     1     -10.727  13.877  67.827  1.00  0.00    -0.248 SA 
BRANCH  14  15
HETATM   15  C   UNL     1     -11.067  14.644  69.323  1.00  0.00    -0.269 A  
HETATM   16  N   UNL     1     -11.500  14.097  70.433  1.00  0.00    -0.157 NA 
HETATM   17  C   UNL     1     -10.484  17.005  68.618  1.00  0.00    -0.363 C  
HETATM   18  N   UNL     1     -11.661  15.135  71.325  1.00  0.00    -0.337 NA 
HETATM   19  N   UNL     1     -11.323  16.290  70.768  1.00  0.00    -0.374 NA 
HETATM   20  N   UNL     1     -10.943  15.986  69.518  1.00  0.00    -0.300 NA 
ENDBRANCH  14  15
ENDBRANCH  13  14
ENDBRANCH   4  13
BRANCH  10  21
HETATM   21  N   UNL     1      -7.450   7.270  66.919  1.00  0.00    -0.095 N  
HETATM   22  C   UNL     1      -8.094   6.056  66.826  1.00  0.00    -0.105 C  
HETATM   23  O   UNL     1      -8.724   5.703  65.834  1.00  0.00    -0.138 OA 
HETATM   24  H   UNL     1      -6.989   7.494  67.802  1.00  0.00     0.000 HD 
BRANCH  22  25
HETATM   25  C   UNL     1      -7.912   5.190  68.091  1.00  0.00    -0.087 C  
HETATM   26  H   UNL     1      -8.250   3.319  68.612  1.00  0.00     0.000 HD 
HETATM   27  O   UNL     1      -8.362   3.852  67.833  1.00  0.00    -0.091 OA 
BRANCH  25  28
HETATM   28  C   UNL     1      -8.666   5.753  69.276  1.00  0.00    -0.113 A  
HETATM   29  C   UNL     1      -7.976   6.065  70.457  1.00  0.00    -0.111 A  
HETATM   30  C   UNL     1      -8.656   6.582  71.562  1.00  0.00    -0.129 A  
HETATM   31  C   UNL     1     -10.030   6.801  71.499  1.00  0.00    -0.189 A  
HETATM   32  C   UNL     1     -10.727   6.513  70.328  1.00  0.00    -0.307 A  
HETATM   33  C   UNL     1     -10.049   5.996  69.222  1.00  0.00    -0.235 A  
ENDBRANCH  25  28
ENDBRANCH  22  25
ENDBRANCH  10  21
TORSDOF 6
ENDMDL
MODEL      185
REMARK 921   NORMALIZED FREE ENERGY PREDICTED BY IDOCK:   -3.92 KCAL/MOL
REMARK 922        TOTAL FREE ENERGY PREDICTED BY IDOCK:   -6.34 KCAL/MOL
REMARK 923 INTER-LIGAND FREE ENERGY PREDICTED BY IDOCK:   -6.90 KCAL/MOL
REMARK 924 INTRA-LIGAND FREE ENERGY PREDICTED BY IDOCK:    0.56 KCAL/MOL
REMARK 927      BINDING AFFINITY PREDICTED BY RF-SCORE:    0.00 PKD
ROOT
HETATM    1  C   UNL     1      -9.698  12.205  68.030  1.00  0.00    -0.203 C  
HETATM    2  S   UNL     1      -9.566  10.399  67.945  1.00  0.00    -0.143 SA 
HETATM    3  C   UNL     1      -9.271  10.399  66.165  1.00  0.00    -0.168 C  
HETATM    4  C   UNL     1     -10.253  11.239  65.357  1.00  0.00    -0.323 C  
HETATM    5  O   UNL     1     -12.536  14.103  65.480  1.00  0.00    -0.485 OA 
HETATM    6  CA  UNL     1     -11.000  12.254  65.887  1.00  0.00    -0.302 C  
HETATM    7  N   UNL     1     -10.802  12.630  67.188  1.00  0.00    -0.248 N  
HETATM    8  O   UNL     1     -12.409  14.075  68.027  1.00  0.00    -0.239 OA 
HETATM    9  C   UNL     1     -12.099  12.903  65.066  1.00  0.00    -0.435 C  
HETATM   10  CA  UNL     1     -10.506  12.761  69.252  1.00  0.00     0.246 C  
HETATM   11  C   UNL     1     -11.444  13.351  68.139  1.00  0.00    -0.304 C  
HETATM   12  OXT UNL     1     -12.549  12.426  64.035  1.00  0.00    -0.592 OA 
ENDROOT
BRANCH   4  13
HETATM   13  C   UNL     1     -10.370  10.689  63.937  1.00  0.00    -0.152 C  
BRANCH  13  14
HETATM   14  S   UNL     1      -8.893  10.850  62.902  1.00  0.00    -0.242 SA 
BRANCH  14  15
HETATM   15  C   UNL     1      -7.946   9.473  63.285  1.00  0.00    -0.143 A  
HETATM   16  N   UNL     1      -8.322   8.217  63.325  1.00  0.00    -0.097 NA 
HETATM   17  C   UNL     1      -5.766  10.687  63.715  1.00  0.00    -0.039 C  
HETATM   18  N   UNL     1      -7.213   7.506  63.728  1.00  0.00    -0.073 NA 
HETATM   19  N   UNL     1      -6.180   8.315  63.920  1.00  0.00    -0.067 NA 
HETATM   20  N   UNL     1      -6.632   9.545  63.636  1.00  0.00    -0.100 NA 
ENDBRANCH  14  15
ENDBRANCH  13  14
ENDBRANCH   4  13
BRANCH  10  21
HETATM   21  N   UNL     1     -11.121  11.732  70.122  1.00  0.00    -0.383 N  
HETATM   22  C   UNL     1     -12.193  10.942  69.768  1.00  0.00    -0.311 C  
HETATM   23  O   UNL     1     -12.785  11.050  68.699  1.00  0.00    -0.026 OA 
HETATM   24  H   UNL     1     -10.722  11.599  71.051  1.00  0.00     0.000 HD 
BRANCH  22  25
HETATM   25  C   UNL     1     -12.543   9.899  70.851  1.00  0.00    -0.302 C  
HETATM   26  H   UNL     1     -12.979   9.916  72.773  1.00  0.00     0.000 HD 
HETATM   27  O   UNL     1     -12.764  10.558  72.107  1.00  0.00    -0.320 OA 
BRANCH  25  28
HETATM   28  C   UNL     1     -11.453   8.863  71.014  1.00  0.00    -0.351 A  
HETATM   29  C   UNL     1     -11.078   8.068  69.921  1.00  0.00    -0.108 A  
HETATM   30  C   UNL     1     -10.076   7.104  70.053  1.00  0.00    -0.194 A  
HETATM   31  C   UNL     1      -9.431   6.928  71.275  1.00  0.00    -0.165 A  
HETATM   32  C   UNL     1      -9.778   7.723  72.365  1.00  0.00    -0.249 A  
HETATM   33  C   UNL     1     -10.779   8.687  72.235  1.00  0.00    -0.383 A  
ENDBRANCH  25  28
ENDBRANCH  22  25
ENDBRANCH  10  21
TORSDOF 6
ENDMDL
MODEL      186
REMARK 921   NORMALIZED FREE ENERGY PREDICTED BY IDOCK:   -3.88 KCAL/MOL
REMARK 922        TOTAL FREE ENERGY PREDICTED BY IDOCK:   -6.28 KCAL/MOL
REMARK 923 INTER-LIGAND FREE ENERGY PREDICTED BY IDOCK:   -5.57 KCAL/MOL
REMARK 924 INTRA-LIGAND FREE ENERGY PREDICTED BY IDOCK:   -0.72 KCAL/MOL
REMARK 927      BINDING AFFINITY PREDICTED BY RF-SCORE:    0.00 PKD
ROOT
HETATM    1  C   UNL     1      -9.845   8.404  70.129  1.00  0.00    -0.181 C  
HETATM    2  S   UNL     1     -10.559   7.335  68.850  1.00  0.00    -0.158 SA 
HETATM    3  C   UNL     1      -9.845   5.835  69.556  1.00  0.00    -0.178 C  
HETATM    4  C   UNL     1      -8.359   5.929  69.882  1.00  0.00    -0.121 C  
HETATM    5  O   UNL     1      -5.630   8.223  70.731  1.00  0.00    -0.029 OA 
HETATM    6  CA  UNL     1      -7.696   7.111  70.071  1.00  0.00    -0.103 C  
HETATM    7  N   UNL     1      -8.398   8.285  70.078  1.00  0.00    -0.119 N  
HETATM    8  O   UNL     1      -7.083  10.193  70.013  1.00  0.00    -0.124 OA 
HETATM    9  C   UNL     1      -6.184   7.127  70.188  1.00  0.00    -0.027 C  
HETATM   10  CA  UNL     1      -9.668   9.906  69.724  1.00  0.00    -0.236 C  
HETATM   11  C   UNL     1      -8.146   9.613  69.976  1.00  0.00    -0.178 C  
HETATM   12  OXT UNL     1      -5.467   6.186  69.878  1.00  0.00    -0.012 OA 
ENDROOT
BRANCH   4  13
HETATM   13  C   UNL     1      -7.720   4.544  69.824  1.00  0.00    -0.054 C  
BRANCH  13  14
HETATM   14  S   UNL     1      -7.330   3.786  71.420  1.00  0.00    -0.040 SA 
BRANCH  14  15
HETATM   15  C   UNL     1      -8.784   3.905  72.321  1.00  0.00    -0.105 A  
HETATM   16  N   UNL     1      -9.897   3.234  72.154  1.00  0.00    -0.159 NA 
HETATM   17  C   UNL     1      -8.025   5.712  73.926  1.00  0.00    -0.107 C  
HETATM   18  N   UNL     1     -10.777   3.726  73.093  1.00  0.00    -0.180 NA 
HETATM   19  N   UNL     1     -10.205   4.674  73.823  1.00  0.00    -0.171 NA 
HETATM   20  N   UNL     1      -8.955   4.783  73.349  1.00  0.00    -0.109 NA 
ENDBRANCH  14  15
ENDBRANCH  13  14
ENDBRANCH   4  13
BRANCH  10  21
HETATM   21  N   UNL     1     -10.029  10.229  68.325  1.00  0.00    -0.144 N  
HETATM   22  C   UNL     1     -11.254  10.712  67.920  1.00  0.00    -0.308 C  
HETATM   23  O   UNL     1     -12.199  10.878  68.685  1.00  0.00    -0.533 OA 
HETATM   24  H   UNL     1      -9.319  10.083  67.607  1.00  0.00     0.000 HD 
BRANCH  22  25
HETATM   25  C   UNL     1     -11.292  11.042  66.412  1.00  0.00     0.175 C  
HETATM   26  H   UNL     1     -10.260  10.547  64.807  1.00  0.00     0.000 HD 
HETATM   27  O   UNL     1     -10.237  10.343  65.734  1.00  0.00    -0.260 OA 
BRANCH  25  28
HETATM   28  C   UNL     1     -11.157  12.526  66.153  1.00  0.00    -0.336 A  
HETATM   29  C   UNL     1     -11.808  13.442  66.991  1.00  0.00    -0.443 A  
HETATM   30  C   UNL     1     -11.699  14.816  66.766  1.00  0.00    -0.309 A  
HETATM   31  C   UNL     1     -10.930  15.292  65.705  1.00  0.00    -0.340 A  
HETATM   32  C   UNL     1     -10.261  14.396  64.875  1.00  0.00    -0.357 A  
HETATM   33  C   UNL     1     -10.370  13.023  65.099  1.00  0.00    -0.321 A  
ENDBRANCH  25  28
ENDBRANCH  22  25
ENDBRANCH  10  21
TORSDOF 6
ENDMDL
MODEL      187
REMARK 921   NORMALIZED FREE ENERGY PREDICTED BY IDOCK:   -3.86 KCAL/MOL
REMARK 922        TOTAL FREE ENERGY PREDICTED BY IDOCK:   -6.25 KCAL/MOL
REMARK 923 INTER-LIGAND FREE ENERGY PREDICTED BY IDOCK:   -4.87 KCAL/MOL
REMARK 924 INTRA-LIGAND FREE ENERGY PREDICTED BY IDOCK:   -1.38 KCAL/MOL
REMARK 927      BINDING AFFINITY PREDICTED BY RF-SCORE:    0.00 PKD
ROOT
HETATM    1  C   UNL     1      -9.462   3.943  67.771  1.00  0.00    -0.179 C  
HETATM    2  S   UNL     1      -7.718   3.857  68.258  1.00  0.00    -0.065 SA 
HETATM    3  C   UNL     1      -8.107   3.427  69.967  1.00  0.00    -0.045 C  
HETATM    4  C   UNL     1      -9.151   4.320  70.626  1.00  0.00    -0.175 C  
HETATM    5  O   UNL     1     -12.014   6.523  70.005  1.00  0.00    -0.358 OA 
HETATM    6  CA  UNL     1     -10.053   5.076  69.929  1.00  0.00    -0.274 C  
HETATM    7  N   UNL     1     -10.115   4.967  68.566  1.00  0.00    -0.144 N  
HETATM    8  O   UNL     1     -11.405   6.591  67.529  1.00  0.00    -0.284 OA 
HETATM    9  C   UNL     1     -10.920   6.090  70.652  1.00  0.00    -0.307 C  
HETATM   10  CA  UNL     1      -9.763   4.825  66.512  1.00  0.00    -0.193 C  
HETATM   11  C   UNL     1     -10.631   5.658  67.521  1.00  0.00    -0.221 C  
HETATM   12  OXT UNL     1     -10.709   6.474  71.793  1.00  0.00    -0.219 OA 
ENDROOT
BRANCH   4  13
HETATM   13  C   UNL     1      -8.943   4.345  72.139  1.00  0.00    -0.120 C  
BRANCH  13  14
HETATM   14  S   UNL     1      -7.358   5.008  72.708  1.00  0.00    -0.092 SA 
BRANCH  14  15
HETATM   15  C   UNL     1      -7.357   6.639  72.180  1.00  0.00    -0.089 A  
HETATM   16  N   UNL     1      -6.911   7.124  71.047  1.00  0.00    -0.055 NA 
HETATM   17  C   UNL     1      -8.429   7.647  74.242  1.00  0.00    -0.235 C  
HETATM   18  N   UNL     1      -7.092   8.487  71.124  1.00  0.00    -0.065 NA 
HETATM   19  N   UNL     1      -7.647   8.824  72.281  1.00  0.00    -0.345 NA 
HETATM   20  N   UNL     1      -7.822   7.669  72.941  1.00  0.00    -0.100 NA 
ENDBRANCH  14  15
ENDBRANCH  13  14
ENDBRANCH   4  13
BRANCH  10  21
HETATM   21  N   UNL     1      -8.593   5.534  65.944  1.00  0.00    -0.136 N  
HETATM   22  C   UNL     1      -8.176   5.440  64.635  1.00  0.00    -0.133 C  
HETATM   23  O   UNL     1      -8.710   4.708  63.808  1.00  0.00    -0.134 OA 
HETATM   24  H   UNL     1      -8.057   6.137  66.569  1.00  0.00     0.000 HD 
BRANCH  22  25
HETATM   25  C   UNL     1      -6.985   6.373  64.325  1.00  0.00    -0.044 C  
HETATM   26  H   UNL     1      -5.353   6.975  65.252  1.00  0.00     0.000 HD 
HETATM   27  O   UNL     1      -6.085   6.401  65.443  1.00  0.00    -0.029 OA 
BRANCH  25  28
HETATM   28  C   UNL     1      -7.436   7.782  64.009  1.00  0.00    -0.103 A  
HETATM   29  C   UNL     1      -7.263   8.799  64.959  1.00  0.00    -0.084 A  
HETATM   30  C   UNL     1      -7.676  10.105  64.687  1.00  0.00    -0.141 A  
HETATM   31  C   UNL     1      -8.259  10.413  63.459  1.00  0.00    -0.135 A  
HETATM   32  C   UNL     1      -8.420   9.419  62.498  1.00  0.00    -0.200 A  
HETATM   33  C   UNL     1      -8.008   8.113  62.768  1.00  0.00    -0.159 A  
ENDBRANCH  25  28
ENDBRANCH  22  25
ENDBRANCH  10  21
TORSDOF 6
ENDMDL
MODEL      188
REMARK 921   NORMALIZED FREE ENERGY PREDICTED BY IDOCK:   -3.85 KCAL/MOL
REMARK 922        TOTAL FREE ENERGY PREDICTED BY IDOCK:   -6.24 KCAL/MOL
REMARK 923 INTER-LIGAND FREE ENERGY PREDICTED BY IDOCK:   -4.60 KCAL/MOL
REMARK 924 INTRA-LIGAND FREE ENERGY PREDICTED BY IDOCK:   -1.64 KCAL/MOL
REMARK 927      BINDING AFFINITY PREDICTED BY RF-SCORE:    0.00 PKD
ROOT
HETATM    1  C   UNL     1     -11.338   7.925  70.783  1.00  0.00    -0.274 C  
HETATM    2  S   UNL     1     -10.197   9.256  71.245  1.00  0.00    -0.274 SA 
HETATM    3  C   UNL     1     -10.408  10.124  69.677  1.00  0.00    -0.247 C  
HETATM    4  C   UNL     1     -10.265   9.245  68.439  1.00  0.00    -0.231 C  
HETATM    5  O   UNL     1     -10.562   5.825  67.157  1.00  0.00    -0.240 OA 
HETATM    6  CA  UNL     1     -10.417   7.886  68.451  1.00  0.00    -0.166 C  
HETATM    7  N   UNL     1     -10.821   7.262  69.599  1.00  0.00    -0.238 N  
HETATM    8  O   UNL     1     -10.643   4.951  69.552  1.00  0.00    -0.110 OA 
HETATM    9  C   UNL     1     -10.058   7.068  67.224  1.00  0.00    -0.204 C  
HETATM   10  CA  UNL     1     -11.133   6.572  71.547  1.00  0.00    -0.265 C  
HETATM   11  C   UNL     1     -10.850   6.006  70.109  1.00  0.00    -0.339 C  
HETATM   12  OXT UNL     1      -9.400   7.498  66.288  1.00  0.00    -0.172 OA 
ENDROOT
BRANCH   4  13
HETATM   13  C   UNL     1      -9.799  10.084  67.251  1.00  0.00    -0.181 C  
BRANCH  13  14
HETATM   14  S   UNL     1      -8.286  11.044  67.505  1.00  0.00    -0.119 SA 
BRANCH  14  15
HETATM   15  C   UNL     1      -7.068   9.867  67.774  1.00  0.00    -0.087 A  
HETATM   16  N   UNL     1      -6.568   9.008  66.920  1.00  0.00    -0.064 NA 
HETATM   17  C   UNL     1      -6.666  10.371  70.224  1.00  0.00    -0.138 C  
HETATM   18  N   UNL     1      -5.661   8.255  67.631  1.00  0.00    -0.038 NA 
HETATM   19  N   UNL     1      -5.604   8.656  68.894  1.00  0.00    -0.039 NA 
HETATM   20  N   UNL     1      -6.477   9.670  68.986  1.00  0.00    -0.045 NA 
ENDBRANCH  14  15
ENDBRANCH  13  14
ENDBRANCH   4  13
BRANCH  10  21
HETATM   21  N   UNL     1      -9.983   6.542  72.478  1.00  0.00    -0.170 N  
HETATM   22  C   UNL     1      -9.865   5.691  73.555  1.00  0.00    -0.167 C  
HETATM   23  O   UNL     1     -10.739   4.895  73.884  1.00  0.00    -0.266 OA 
HETATM   24  H   UNL     1      -9.221   7.200  72.310  1.00  0.00     0.000 HD 
BRANCH  22  25
HETATM   25  C   UNL     1      -8.508   5.835  74.278  1.00  0.00    -0.112 C  
HETATM   26  H   UNL     1      -7.397   7.310  74.966  1.00  0.00     0.000 HD 
HETATM   27  O   UNL     1      -8.231   7.222  74.521  1.00  0.00    -0.159 OA 
BRANCH  25  28
HETATM   28  C   UNL     1      -7.374   5.230  73.481  1.00  0.00    -0.091 A  
HETATM   29  C   UNL     1      -6.217   5.983  73.232  1.00  0.00    -0.062 A  
HETATM   30  C   UNL     1      -5.161   5.442  72.495  1.00  0.00    -0.016 A  
HETATM   31  C   UNL     1      -5.244   4.141  72.004  1.00  0.00     0.000 A  
HETATM   32  C   UNL     1      -6.378   3.373  72.258  1.00  0.00    -0.014 A  
HETATM   33  C   UNL     1      -7.435   3.912  72.995  1.00  0.00    -0.073 A  
ENDBRANCH  25  28
ENDBRANCH  22  25
ENDBRANCH  10  21
TORSDOF 6
ENDMDL
MODEL      189
REMARK 921   NORMALIZED FREE ENERGY PREDICTED BY IDOCK:   -3.82 KCAL/MOL
REMARK 922        TOTAL FREE ENERGY PREDICTED BY IDOCK:   -6.20 KCAL/MOL
REMARK 923 INTER-LIGAND FREE ENERGY PREDICTED BY IDOCK:   -5.58 KCAL/MOL
REMARK 924 INTRA-LIGAND FREE ENERGY PREDICTED BY IDOCK:   -0.62 KCAL/MOL
REMARK 927      BINDING AFFINITY PREDICTED BY RF-SCORE:    0.00 PKD
ROOT
HETATM    1  C   UNL     1      -8.938  12.617  67.575  1.00  0.00    -0.187 C  
HETATM    2  S   UNL     1      -9.793  11.394  68.604  1.00  0.00    -0.164 SA 
HETATM    3  C   UNL     1      -9.148   9.996  67.662  1.00  0.00    -0.134 C  
HETATM    4  C   UNL     1      -9.301  10.122  66.151  1.00  0.00    -0.217 C  
HETATM    5  O   UNL     1      -9.616  12.489  63.370  1.00  0.00    -0.156 OA 
HETATM    6  CA  UNL     1      -9.474  11.313  65.501  1.00  0.00    -0.229 C  
HETATM    7  N   UNL     1      -9.406  12.483  66.207  1.00  0.00    -0.213 N  
HETATM    8  O   UNL     1     -10.109  14.356  65.037  1.00  0.00    -0.390 OA 
HETATM    9  C   UNL     1      -9.821  11.334  64.025  1.00  0.00    -0.291 C  
HETATM   10  CA  UNL     1      -9.566  14.052  67.579  1.00  0.00    -0.228 C  
HETATM   11  C   UNL     1      -9.749  13.783  66.042  1.00  0.00    -0.237 C  
HETATM   12  OXT UNL     1     -10.209  10.356  63.403  1.00  0.00    -0.115 OA 
ENDROOT
BRANCH   4  13
HETATM   13  C   UNL     1      -9.370   8.736  65.512  1.00  0.00    -0.095 C  
BRANCH  13  14
HETATM   14  S   UNL     1      -8.227   7.501  66.177  1.00  0.00    -0.132 SA 
BRANCH  14  15
HETATM   15  C   UNL     1      -9.062   6.011  66.019  1.00  0.00    -0.129 A  
HETATM   16  N   UNL     1      -8.779   5.003  65.230  1.00  0.00    -0.145 NA 
HETATM   17  C   UNL     1     -10.881   6.477  67.719  1.00  0.00    -0.314 C  
HETATM   18  N   UNL     1      -9.771   4.072  65.440  1.00  0.00    -0.186 NA 
HETATM   19  N   UNL     1     -10.637   4.502  66.348  1.00  0.00    -0.084 NA 
HETATM   20  N   UNL     1     -10.192   5.712  66.719  1.00  0.00    -0.206 NA 
ENDBRANCH  14  15
ENDBRANCH  13  14
ENDBRANCH   4  13
BRANCH  10  21
HETATM   21  N   UNL     1     -10.821  14.189  68.353  1.00  0.00    -0.247 N  
HETATM   22  C   UNL     1     -11.183  15.306  69.073  1.00  0.00    -0.280 C  
HETATM   23  O   UNL     1     -10.466  16.295  69.187  1.00  0.00    -0.241 OA 
HETATM   24  H   UNL     1     -11.465  13.397  68.354  1.00  0.00     0.000 HD 
BRANCH  22  25
HETATM   25  C   UNL     1     -12.592  15.180  69.693  1.00  0.00    -0.059 C  
HETATM   26  H   UNL     1     -14.266  16.221  69.676  1.00  0.00     0.000 HD 
HETATM   27  O   UNL     1     -13.399  16.298  69.295  1.00  0.00     1.381 OA 
BRANCH  25  28
HETATM   28  C   UNL     1     -12.542  15.110  71.203  1.00  0.00    -0.433 A  
HETATM   29  C   UNL     1     -12.916  13.928  71.858  1.00  0.00    -0.440 A  
HETATM   30  C   UNL     1     -12.881  13.846  73.252  1.00  0.00     0.267 A  
HETATM   31  C   UNL     1     -12.463  14.939  74.007  1.00  0.00    -0.516 A  
HETATM   32  C   UNL     1     -12.070  16.114  73.371  1.00  0.00    -0.586 A  
HETATM   33  C   UNL     1     -12.105  16.199  71.978  1.00  0.00    -0.572 A  
ENDBRANCH  25  28
ENDBRANCH  22  25
ENDBRANCH  10  21
TORSDOF 6
ENDMDL
MODEL      190
REMARK 921   NORMALIZED FREE ENERGY PREDICTED BY IDOCK:   -3.82 KCAL/MOL
REMARK 922        TOTAL FREE ENERGY PREDICTED BY IDOCK:   -6.20 KCAL/MOL
REMARK 923 INTER-LIGAND FREE ENERGY PREDICTED BY IDOCK:   -5.04 KCAL/MOL
REMARK 924 INTRA-LIGAND FREE ENERGY PREDICTED BY IDOCK:   -1.16 KCAL/MOL
REMARK 927      BINDING AFFINITY PREDICTED BY RF-SCORE:    0.00 PKD
ROOT
HETATM    1  C   UNL     1      -6.496   8.542  68.114  1.00  0.00    -0.057 C  
HETATM    2  S   UNL     1      -7.762   7.754  69.146  1.00  0.00    -0.103 SA 
HETATM    3  C   UNL     1      -6.843   6.207  69.278  1.00  0.00    -0.062 C  
HETATM    4  C   UNL     1      -6.333   5.654  67.952  1.00  0.00    -0.042 C  
HETATM    5  O   UNL     1      -5.329   6.537  64.539  1.00  0.00    -0.024 OA 
HETATM    6  CA  UNL     1      -6.159   6.415  66.828  1.00  0.00    -0.029 C  
HETATM    7  N   UNL     1      -6.345   7.769  66.894  1.00  0.00    -0.053 N  
HETATM    8  O   UNL     1      -6.399   8.834  64.836  1.00  0.00    -0.064 OA 
HETATM    9  C   UNL     1      -5.845   5.753  65.500  1.00  0.00    -0.021 C  
HETATM   10  CA  UNL     1      -7.001   9.726  67.222  1.00  0.00    -0.084 C  
HETATM   11  C   UNL     1      -6.526   8.805  66.041  1.00  0.00    -0.057 C  
HETATM   12  OXT UNL     1      -5.976   4.557  65.288  1.00  0.00    -0.021 OA 
ENDROOT
BRANCH   4  13
HETATM   13  C   UNL     1      -6.188   4.136  68.036  1.00  0.00    -0.036 C  
BRANCH  13  14
HETATM   14  S   UNL     1      -7.665   3.228  68.553  1.00  0.00    -0.055 SA 
BRANCH  14  15
HETATM   15  C   UNL     1      -8.959   4.012  67.744  1.00  0.00    -0.125 A  
HETATM   16  N   UNL     1      -9.166   4.111  66.454  1.00  0.00    -0.146 NA 
HETATM   17  C   UNL     1     -10.177   4.838  69.806  1.00  0.00    -0.148 C  
HETATM   18  N   UNL     1     -10.304   4.874  66.314  1.00  0.00    -0.281 NA 
HETATM   19  N   UNL     1     -10.785   5.225  67.499  1.00  0.00    -0.082 NA 
HETATM   20  N   UNL     1      -9.950   4.680  68.397  1.00  0.00    -0.108 NA 
ENDBRANCH  14  15
ENDBRANCH  13  14
ENDBRANCH   4  13
BRANCH  10  21
HETATM   21  N   UNL     1      -8.458   9.983  67.280  1.00  0.00    -0.122 N  
HETATM   22  C   UNL     1      -9.031  11.195  67.597  1.00  0.00    -0.140 C  
HETATM   23  O   UNL     1      -8.380  12.184  67.916  1.00  0.00    -0.142 OA 
HETATM   24  H   UNL     1      -9.084   9.205  67.070  1.00  0.00     0.000 HD 
BRANCH  22  25
HETATM   25  C   UNL     1     -10.570  11.171  67.479  1.00  0.00    -0.221 C  
HETATM   26  H   UNL     1     -12.014   9.865  67.788  1.00  0.00     0.000 HD 
HETATM   27  O   UNL     1     -11.068   9.880  67.861  1.00  0.00    -0.262 OA 
BRANCH  25  28
HETATM   28  C   UNL     1     -11.037  11.493  66.076  1.00  0.00    -0.289 A  
HETATM   29  C   UNL     1     -12.109  12.376  65.883  1.00  0.00    -0.352 A  
HETATM   30  C   UNL     1     -12.555  12.682  64.596  1.00  0.00    -0.517 A  
HETATM   31  C   UNL     1     -11.931  12.117  63.486  1.00  0.00    -0.619 A  
HETATM   32  C   UNL     1     -10.853  11.253  63.659  1.00  0.00    -0.410 A  
HETATM   33  C   UNL     1     -10.405  10.946  64.945  1.00  0.00    -0.371 A  
ENDBRANCH  25  28
ENDBRANCH  22  25
ENDBRANCH  10  21
TORSDOF 6
ENDMDL
MODEL      191
REMARK 921   NORMALIZED FREE ENERGY PREDICTED BY IDOCK:   -3.81 KCAL/MOL
REMARK 922        TOTAL FREE ENERGY PREDICTED BY IDOCK:   -6.18 KCAL/MOL
REMARK 923 INTER-LIGAND FREE ENERGY PREDICTED BY IDOCK:   -5.29 KCAL/MOL
REMARK 924 INTRA-LIGAND FREE ENERGY PREDICTED BY IDOCK:   -0.89 KCAL/MOL
REMARK 927      BINDING AFFINITY PREDICTED BY RF-SCORE:    0.00 PKD
ROOT
HETATM    1  C   UNL     1      -7.787   8.516  67.658  1.00  0.00    -0.103 C  
HETATM    2  S   UNL     1      -8.738   8.804  69.175  1.00  0.00    -0.137 SA 
HETATM    3  C   UNL     1      -8.303   7.200  69.878  1.00  0.00    -0.135 C  
HETATM    4  C   UNL     1      -8.502   6.018  68.937  1.00  0.00    -0.116 C  
HETATM    5  O   UNL     1      -8.649   4.993  65.421  1.00  0.00    -0.131 OA 
HETATM    6  CA  UNL     1      -8.559   6.132  67.575  1.00  0.00    -0.106 C  
HETATM    7  N   UNL     1      -8.325   7.345  66.989  1.00  0.00    -0.120 N  
HETATM    8  O   UNL     1      -8.849   7.442  64.733  1.00  0.00     0.235 OA 
HETATM    9  C   UNL     1      -8.962   4.941  66.726  1.00  0.00    -0.110 C  
HETATM   10  CA  UNL     1      -8.241   9.353  66.414  1.00  0.00    -0.111 C  
HETATM   11  C   UNL     1      -8.518   7.940  65.786  1.00  0.00    -0.140 C  
HETATM   12  OXT UNL     1      -9.488   3.933  67.174  1.00  0.00    -0.179 OA 
ENDROOT
BRANCH   4  13
HETATM   13  C   UNL     1      -8.761   4.744  69.740  1.00  0.00    -0.081 C  
BRANCH  13  14
HETATM   14  S   UNL     1      -9.730   4.949  71.255  1.00  0.00    -0.187 SA 
BRANCH  14  15
HETATM   15  C   UNL     1      -8.625   4.613  72.523  1.00  0.00    -0.115 A  
HETATM   16  N   UNL     1      -8.001   3.489  72.777  1.00  0.00    -0.075 NA 
HETATM   17  C   UNL     1      -8.677   6.899  73.613  1.00  0.00    -0.138 C  
HETATM   18  N   UNL     1      -7.270   3.715  73.922  1.00  0.00    -0.051 NA 
HETATM   19  N   UNL     1      -7.440   4.959  74.351  1.00  0.00    -0.088 NA 
HETATM   20  N   UNL     1      -8.280   5.527  73.473  1.00  0.00    -0.113 NA 
ENDBRANCH  14  15
ENDBRANCH  13  14
ENDBRANCH   4  13
BRANCH  10  21
HETATM   21  N   UNL     1      -9.438  10.199  66.626  1.00  0.00    -0.165 N  
HETATM   22  C   UNL     1      -9.418  11.473  67.150  1.00  0.00    -0.177 C  
HETATM   23  O   UNL     1      -8.395  12.022  67.547  1.00  0.00    -0.148 OA 
HETATM   24  H   UNL     1     -10.344   9.810  66.364  1.00  0.00     0.000 HD 
BRANCH  22  25
HETATM   25  C   UNL     1     -10.814  12.133  67.156  1.00  0.00    -0.244 C  
HETATM   26  H   UNL     1     -11.588  13.861  66.610  1.00  0.00     0.000 HD 
HETATM   27  O   UNL     1     -10.729  13.456  66.606  1.00  0.00    -0.279 OA 
BRANCH  25  28
HETATM   28  C   UNL     1     -11.400  12.206  68.549  1.00  0.00    -0.324 A  
HETATM   29  C   UNL     1     -11.818  11.032  69.192  1.00  0.00    -0.407 A  
HETATM   30  C   UNL     1     -12.365  11.081  70.476  1.00  0.00    -0.462 A  
HETATM   31  C   UNL     1     -12.492  12.301  71.137  1.00  0.00    -0.328 A  
HETATM   32  C   UNL     1     -12.063  13.473  70.520  1.00  0.00    -0.409 A  
HETATM   33  C   UNL     1     -11.517  13.427  69.236  1.00  0.00    -0.345 A  
ENDBRANCH  25  28
ENDBRANCH  22  25
ENDBRANCH  10  21
TORSDOF 6
ENDMDL
MODEL      192
REMARK 921   NORMALIZED FREE ENERGY PREDICTED BY IDOCK:   -3.80 KCAL/MOL
REMARK 922        TOTAL FREE ENERGY PREDICTED BY IDOCK:   -6.18 KCAL/MOL
REMARK 923 INTER-LIGAND FREE ENERGY PREDICTED BY IDOCK:   -5.67 KCAL/MOL
REMARK 924 INTRA-LIGAND FREE ENERGY PREDICTED BY IDOCK:   -0.51 KCAL/MOL
REMARK 927      BINDING AFFINITY PREDICTED BY RF-SCORE:    0.00 PKD
ROOT
HETATM    1  C   UNL     1      -7.411  11.751  66.894  1.00  0.00    -0.106 C  
HETATM    2  S   UNL     1      -9.188  12.107  66.853  1.00  0.00    -0.207 SA 
HETATM    3  C   UNL     1      -8.940  13.893  66.936  1.00  0.00    -0.222 C  
HETATM    4  C   UNL     1      -7.985  14.352  68.032  1.00  0.00    -0.139 C  
HETATM    5  O   UNL     1      -5.145  13.358  70.125  1.00  0.00    -0.084 OA 
HETATM    6  CA  UNL     1      -7.048  13.542  68.612  1.00  0.00    -0.106 C  
HETATM    7  N   UNL     1      -6.861  12.274  68.132  1.00  0.00    -0.071 N  
HETATM    8  O   UNL     1      -5.534  10.924  69.469  1.00  0.00    -0.038 OA 
HETATM    9  C   UNL     1      -6.280  14.015  69.831  1.00  0.00    -0.142 C  
HETATM   10  CA  UNL     1      -7.026  10.322  67.405  1.00  0.00    -0.082 C  
HETATM   11  C   UNL     1      -6.276  11.119  68.532  1.00  0.00    -0.042 C  
HETATM   12  OXT UNL     1      -6.602  14.982  70.506  1.00  0.00    -0.062 OA 
ENDROOT
BRANCH   4  13
HETATM   13  C   UNL     1      -8.328  15.776  68.465  1.00  0.00    -0.175 C  
BRANCH  13  14
HETATM   14  S   UNL     1      -7.649  17.100  67.434  1.00  0.00    -0.173 SA 
BRANCH  14  15
HETATM   15  C   UNL     1      -8.974  18.153  67.157  1.00  0.00    -0.256 A  
HETATM   16  N   UNL     1     -10.216  18.014  67.552  1.00  0.00    -0.352 NA 
HETATM   17  C   UNL     1      -7.727  19.896  65.807  1.00  0.00    -0.264 C  
HETATM   18  N   UNL     1     -10.898  19.094  67.037  1.00  0.00    -0.440 NA 
HETATM   19  N   UNL     1     -10.082  19.881  66.348  1.00  0.00    -0.465 NA 
HETATM   20  N   UNL     1      -8.875  19.300  66.428  1.00  0.00    -0.340 NA 
ENDBRANCH  14  15
ENDBRANCH  13  14
ENDBRANCH   4  13
BRANCH  10  21
HETATM   21  N   UNL     1      -8.161   9.490  67.865  1.00  0.00    -0.106 N  
HETATM   22  C   UNL     1      -8.108   8.598  68.913  1.00  0.00    -0.118 C  
HETATM   23  O   UNL     1      -7.084   8.364  69.548  1.00  0.00    -0.051 OA 
HETATM   24  H   UNL     1      -9.048   9.584  67.369  1.00  0.00     0.000 HD 
BRANCH  22  25
HETATM   25  C   UNL     1      -9.479   7.952  69.211  1.00  0.00    -0.152 C  
HETATM   26  H   UNL     1     -10.411   7.223  70.788  1.00  0.00     0.000 HD 
HETATM   27  O   UNL     1      -9.568   7.621  70.605  1.00  0.00    -0.164 OA 
BRANCH  25  28
HETATM   28  C   UNL     1      -9.710   6.707  68.384  1.00  0.00    -0.126 A  
HETATM   29  C   UNL     1      -9.106   5.498  68.760  1.00  0.00    -0.131 A  
HETATM   30  C   UNL     1      -9.305   4.339  68.007  1.00  0.00    -0.200 A  
HETATM   31  C   UNL     1     -10.117   4.371  66.875  1.00  0.00    -0.159 A  
HETATM   32  C   UNL     1     -10.740   5.558  66.499  1.00  0.00    -0.309 A  
HETATM   33  C   UNL     1     -10.542   6.718  67.251  1.00  0.00    -0.390 A  
ENDBRANCH  25  28
ENDBRANCH  22  25
ENDBRANCH  10  21
TORSDOF 6
ENDMDL
MODEL      193
REMARK 921   NORMALIZED FREE ENERGY PREDICTED BY IDOCK:   -3.79 KCAL/MOL
REMARK 922        TOTAL FREE ENERGY PREDICTED BY IDOCK:   -6.17 KCAL/MOL
REMARK 923 INTER-LIGAND FREE ENERGY PREDICTED BY IDOCK:   -6.64 KCAL/MOL
REMARK 924 INTRA-LIGAND FREE ENERGY PREDICTED BY IDOCK:    0.48 KCAL/MOL
REMARK 927      BINDING AFFINITY PREDICTED BY RF-SCORE:    0.00 PKD
ROOT
HETATM    1  C   UNL     1      -8.103   9.714  69.212  1.00  0.00    -0.107 C  
HETATM    2  S   UNL     1      -8.153   9.418  67.424  1.00  0.00    -0.110 SA 
HETATM    3  C   UNL     1      -9.068  10.938  67.092  1.00  0.00    -0.145 C  
HETATM    4  C   UNL     1     -10.293  11.149  67.974  1.00  0.00    -0.208 C  
HETATM    5  O   UNL     1     -11.809  10.357  71.216  1.00  0.00    -0.350 OA 
HETATM    6  CA  UNL     1     -10.471  10.540  69.186  1.00  0.00    -0.228 C  
HETATM    7  N   UNL     1      -9.466   9.775  69.711  1.00  0.00    -0.216 N  
HETATM    8  O   UNL     1     -10.080   8.512  71.556  1.00  0.00    -0.202 OA 
HETATM    9  C   UNL     1     -11.804  10.643  69.903  1.00  0.00    -0.315 C  
HETATM   10  CA  UNL     1      -7.908   8.436  70.097  1.00  0.00    -0.102 C  
HETATM   11  C   UNL     1      -9.308   8.843  70.682  1.00  0.00    -0.212 C  
HETATM   12  OXT UNL     1     -12.835  11.026  69.372  1.00  0.00    -0.190 OA 
ENDROOT
BRANCH   4  13
HETATM   13  C   UNL     1     -11.323  12.011  67.246  1.00  0.00    -0.330 C  
BRANCH  13  14
HETATM   14  S   UNL     1     -11.560  13.681  67.902  1.00  0.00    -0.362 SA 
BRANCH  14  15
HETATM   15  C   UNL     1     -10.818  14.708  66.746  1.00  0.00    -0.312 A  
HETATM   16  N   UNL     1     -11.373  15.311  65.723  1.00  0.00    -0.244 NA 
HETATM   17  C   UNL     1      -8.466  14.602  67.682  1.00  0.00    -0.180 C  
HETATM   18  N   UNL     1     -10.352  15.974  65.079  1.00  0.00    -0.547 NA 
HETATM   19  N   UNL     1      -9.198  15.785  65.705  1.00  0.00    -0.293 NA 
HETATM   20  N   UNL     1      -9.487  15.000  66.754  1.00  0.00    -0.232 NA 
ENDBRANCH  14  15
ENDBRANCH  13  14
ENDBRANCH   4  13
BRANCH  10  21
HETATM   21  N   UNL     1      -7.877   7.155  69.356  1.00  0.00    -0.111 N  
HETATM   22  C   UNL     1      -8.989   6.486  68.895  1.00  0.00    -0.128 C  
HETATM   23  O   UNL     1     -10.138   6.867  69.100  1.00  0.00    -0.165 OA 
HETATM   24  H   UNL     1      -6.964   6.736  69.174  1.00  0.00     0.000 HD 
BRANCH  22  25
HETATM   25  C   UNL     1      -8.627   5.228  68.076  1.00  0.00    -0.103 C  
HETATM   26  H   UNL     1      -9.101   4.473  66.318  1.00  0.00     0.000 HD 
HETATM   27  O   UNL     1      -9.325   5.247  66.821  1.00  0.00    -0.125 OA 
BRANCH  25  28
HETATM   28  C   UNL     1      -8.963   3.953  68.817  1.00  0.00    -0.172 A  
HETATM   29  C   UNL     1      -9.105   2.751  68.109  1.00  0.00    -0.228 A  
HETATM   30  C   UNL     1      -9.419   1.565  68.775  1.00  0.00    -0.209 A  
HETATM   31  C   UNL     1      -9.585   1.563  70.159  1.00  0.00    -0.103 A  
HETATM   32  C   UNL     1      -9.428   2.744  70.880  1.00  0.00    -0.224 A  
HETATM   33  C   UNL     1      -9.115   3.931  70.215  1.00  0.00    -0.189 A  
ENDBRANCH  25  28
ENDBRANCH  22  25
ENDBRANCH  10  21
TORSDOF 6
ENDMDL
MODEL      194
REMARK 921   NORMALIZED FREE ENERGY PREDICTED BY IDOCK:   -3.79 KCAL/MOL
REMARK 922        TOTAL FREE ENERGY PREDICTED BY IDOCK:   -6.16 KCAL/MOL
REMARK 923 INTER-LIGAND FREE ENERGY PREDICTED BY IDOCK:   -6.54 KCAL/MOL
REMARK 924 INTRA-LIGAND FREE ENERGY PREDICTED BY IDOCK:    0.38 KCAL/MOL
REMARK 927      BINDING AFFINITY PREDICTED BY RF-SCORE:    0.00 PKD
ROOT
HETATM    1  C   UNL     1     -11.514   6.265  70.833  1.00  0.00    -0.312 C  
HETATM    2  S   UNL     1     -11.266   6.395  69.042  1.00  0.00    -0.243 SA 
HETATM    3  C   UNL     1     -10.173   4.960  68.983  1.00  0.00    -0.094 C  
HETATM    4  C   UNL     1      -9.055   4.967  70.019  1.00  0.00    -0.166 C  
HETATM    5  O   UNL     1      -8.048   6.220  73.312  1.00  0.00    -0.109 OA 
HETATM    6  CA  UNL     1      -9.093   5.703  71.172  1.00  0.00    -0.145 C  
HETATM    7  N   UNL     1     -10.226   6.400  71.491  1.00  0.00    -0.192 N  
HETATM    8  O   UNL     1      -9.976   7.889  73.250  1.00  0.00    -0.303 OA 
HETATM    9  C   UNL     1      -7.858   5.813  72.046  1.00  0.00    -0.107 C  
HETATM   10  CA  UNL     1     -11.942   7.591  71.548  1.00  0.00    -0.307 C  
HETATM   11  C   UNL     1     -10.595   7.396  72.332  1.00  0.00    -0.244 C  
HETATM   12  OXT UNL     1      -6.736   5.497  71.682  1.00  0.00    -0.053 OA 
ENDROOT
BRANCH   4  13
HETATM   13  C   UNL     1      -7.863   4.158  69.512  1.00  0.00    -0.053 C  
BRANCH  13  14
HETATM   14  S   UNL     1      -7.200   4.652  67.902  1.00  0.00    -0.066 SA 
BRANCH  14  15
HETATM   15  C   UNL     1      -7.922   3.567  66.787  1.00  0.00    -0.084 A  
HETATM   16  N   UNL     1      -7.848   2.258  66.767  1.00  0.00    -0.070 NA 
HETATM   17  C   UNL     1      -9.055   5.303  65.331  1.00  0.00    -0.117 C  
HETATM   18  N   UNL     1      -8.553   1.860  65.653  1.00  0.00    -0.105 NA 
HETATM   19  N   UNL     1      -9.055   2.907  65.013  1.00  0.00    -0.143 NA 
HETATM   20  N   UNL     1      -8.668   3.977  65.724  1.00  0.00    -0.117 NA 
ENDBRANCH  14  15
ENDBRANCH  13  14
ENDBRANCH   4  13
BRANCH  10  21
HETATM   21  N   UNL     1     -12.002   8.786  70.677  1.00  0.00    -0.475 N  
HETATM   22  C   UNL     1     -10.931   9.600  70.384  1.00  0.00    -0.299 C  
HETATM   23  O   UNL     1      -9.813   9.443  70.865  1.00  0.00    -0.276 OA 
HETATM   24  H   UNL     1     -12.904   9.024  70.262  1.00  0.00     0.000 HD 
BRANCH  22  25
HETATM   25  C   UNL     1     -11.289  10.709  69.371  1.00  0.00    -0.284 C  
HETATM   26  H   UNL     1     -12.933  11.566  68.701  1.00  0.00     0.000 HD 
HETATM   27  O   UNL     1     -12.713  10.884  69.324  1.00  0.00    -0.282 OA 
BRANCH  25  28
HETATM   28  C   UNL     1     -10.777  10.395  67.982  1.00  0.00    -0.292 A  
HETATM   29  C   UNL     1     -10.949  11.327  66.948  1.00  0.00    -0.348 A  
HETATM   30  C   UNL     1     -10.487  11.053  65.660  1.00  0.00    -0.293 A  
HETATM   31  C   UNL     1      -9.838   9.850  65.390  1.00  0.00    -0.384 A  
HETATM   32  C   UNL     1      -9.642   8.922  66.410  1.00  0.00    -0.304 A  
HETATM   33  C   UNL     1     -10.104   9.194  67.699  1.00  0.00    -0.273 A  
ENDBRANCH  25  28
ENDBRANCH  22  25
ENDBRANCH  10  21
TORSDOF 6
ENDMDL
MODEL      195
REMARK 921   NORMALIZED FREE ENERGY PREDICTED BY IDOCK:   -3.75 KCAL/MOL
REMARK 922        TOTAL FREE ENERGY PREDICTED BY IDOCK:   -6.10 KCAL/MOL
REMARK 923 INTER-LIGAND FREE ENERGY PREDICTED BY IDOCK:   -5.63 KCAL/MOL
REMARK 924 INTRA-LIGAND FREE ENERGY PREDICTED BY IDOCK:   -0.48 KCAL/MOL
REMARK 927      BINDING AFFINITY PREDICTED BY RF-SCORE:    0.00 PKD
ROOT
HETATM    1  C   UNL     1      -8.202  10.415  68.997  1.00  0.00    -0.141 C  
HETATM    2  S   UNL     1      -7.284  10.371  67.435  1.00  0.00    -0.093 SA 
HETATM    3  C   UNL     1      -7.786  12.041  66.971  1.00  0.00    -0.129 C  
HETATM    4  C   UNL     1      -9.280  12.315  67.095  1.00  0.00    -0.196 C  
HETATM    5  O   UNL     1     -12.360  11.334  68.823  1.00  0.00    -0.518 OA 
HETATM    6  CA  UNL     1     -10.123  11.583  67.886  1.00  0.00    -0.189 C  
HETATM    7  N   UNL     1      -9.610  10.613  68.703  1.00  0.00    -0.172 N  
HETATM    8  O   UNL     1     -11.199   9.222  69.661  1.00  0.00    -0.170 OA 
HETATM    9  C   UNL     1     -11.624  11.789  67.796  1.00  0.00    -0.304 C  
HETATM   10  CA  UNL     1      -8.591   9.016  69.585  1.00  0.00    -0.137 C  
HETATM   11  C   UNL     1     -10.059   9.547  69.408  1.00  0.00    -0.198 C  
HETATM   12  OXT UNL     1     -12.175  12.390  66.886  1.00  0.00    -0.527 OA 
ENDROOT
BRANCH   4  13
HETATM   13  C   UNL     1      -9.697  13.410  66.116  1.00  0.00    -0.250 C  
BRANCH  13  14
HETATM   14  S   UNL     1     -10.331  14.934  66.859  1.00  0.00    -0.269 SA 
BRANCH  14  15
HETATM   15  C   UNL     1      -8.927  15.830  67.270  1.00  0.00    -0.196 A  
HETATM   16  N   UNL     1      -7.673  15.468  67.155  1.00  0.00    -0.211 NA 
HETATM   17  C   UNL     1     -10.104  17.906  68.120  1.00  0.00    -0.366 C  
HETATM   18  N   UNL     1      -6.933  16.512  67.663  1.00  0.00    -0.127 NA 
HETATM   19  N   UNL     1      -7.723  17.495  68.073  1.00  0.00    -0.205 NA 
HETATM   20  N   UNL     1      -8.972  17.075  67.821  1.00  0.00    -0.221 NA 
ENDBRANCH  14  15
ENDBRANCH  13  14
ENDBRANCH   4  13
BRANCH  10  21
HETATM   21  N   UNL     1      -8.230   7.855  68.741  1.00  0.00    -0.126 N  
HETATM   22  C   UNL     1      -7.394   6.831  69.128  1.00  0.00    -0.093 C  
HETATM   23  O   UNL     1      -6.816   6.806  70.210  1.00  0.00    -0.058 OA 
HETATM   24  H   UNL     1      -8.630   7.810  67.803  1.00  0.00     0.000 HD 
BRANCH  22  25
HETATM   25  C   UNL     1      -7.289   5.717  68.063  1.00  0.00    -0.073 C  
HETATM   26  H   UNL     1      -8.108   5.320  66.315  1.00  0.00     0.000 HD 
HETATM   27  O   UNL     1      -8.173   6.005  66.970  1.00  0.00    -0.105 OA 
BRANCH  25  28
HETATM   28  C   UNL     1      -7.621   4.356  68.632  1.00  0.00    -0.063 A  
HETATM   29  C   UNL     1      -6.624   3.374  68.719  1.00  0.00    -0.040 A  
HETATM   30  C   UNL     1      -6.914   2.110  69.238  1.00  0.00    -0.033 A  
HETATM   31  C   UNL     1      -8.200   1.815  69.685  1.00  0.00    -0.064 A  
HETATM   32  C   UNL     1      -9.197   2.785  69.624  1.00  0.00    -0.206 A  
HETATM   33  C   UNL     1      -8.910   4.049  69.105  1.00  0.00    -0.147 A  
ENDBRANCH  25  28
ENDBRANCH  22  25
ENDBRANCH  10  21
TORSDOF 6
ENDMDL
MODEL      196
REMARK 921   NORMALIZED FREE ENERGY PREDICTED BY IDOCK:   -3.73 KCAL/MOL
REMARK 922        TOTAL FREE ENERGY PREDICTED BY IDOCK:   -6.08 KCAL/MOL
REMARK 923 INTER-LIGAND FREE ENERGY PREDICTED BY IDOCK:   -4.99 KCAL/MOL
REMARK 924 INTRA-LIGAND FREE ENERGY PREDICTED BY IDOCK:   -1.09 KCAL/MOL
REMARK 927      BINDING AFFINITY PREDICTED BY RF-SCORE:    0.00 PKD
ROOT
HETATM    1  C   UNL     1      -8.182   9.348  67.237  1.00  0.00    -0.117 C  
HETATM    2  S   UNL     1      -9.374   8.984  68.553  1.00  0.00    -0.140 SA 
HETATM    3  C   UNL     1      -8.802   7.283  68.744  1.00  0.00    -0.127 C  
HETATM    4  C   UNL     1      -8.680   6.502  67.441  1.00  0.00    -0.117 C  
HETATM    5  O   UNL     1      -8.161   6.796  63.824  1.00  0.00    -0.092 OA 
HETATM    6  CA  UNL     1      -8.558   7.090  66.212  1.00  0.00    -0.139 C  
HETATM    7  N   UNL     1      -8.431   8.450  66.123  1.00  0.00    -0.124 N  
HETATM    8  O   UNL     1      -8.634   9.298  63.976  1.00  0.00    -0.187 OA 
HETATM    9  C   UNL     1      -8.646   6.250  64.952  1.00  0.00     0.064 C  
HETATM   10  CA  UNL     1      -8.576  10.528  66.285  1.00  0.00    -0.147 C  
HETATM   11  C   UNL     1      -8.539   9.414  65.178  1.00  0.00    -0.167 C  
HETATM   12  OXT UNL     1      -9.070   5.104  64.926  1.00  0.00    -0.133 OA 
ENDROOT
BRANCH   4  13
HETATM   13  C   UNL     1      -8.853   5.008  67.704  1.00  0.00    -0.103 C  
BRANCH  13  14
HETATM   14  S   UNL     1      -7.343   4.098  68.116  1.00  0.00    -0.064 SA 
BRANCH  14  15
HETATM   15  C   UNL     1      -6.726   3.578  66.603  1.00  0.00    -0.049 A  
HETATM   16  N   UNL     1      -5.823   4.162  65.853  1.00  0.00    -0.022 NA 
HETATM   17  C   UNL     1      -8.112   1.469  66.394  1.00  0.00    -0.075 C  
HETATM   18  N   UNL     1      -5.711   3.381  64.724  1.00  0.00    -0.013 NA 
HETATM   19  N   UNL     1      -6.525   2.336  64.791  1.00  0.00    -0.019 NA 
HETATM   20  N   UNL     1      -7.156   2.452  65.969  1.00  0.00    -0.062 NA 
ENDBRANCH  14  15
ENDBRANCH  13  14
ENDBRANCH   4  13
BRANCH  10  21
HETATM   21  N   UNL     1      -9.906  11.127  66.539  1.00  0.00    -0.203 N  
HETATM   22  C   UNL     1     -10.196  12.469  66.439  1.00  0.00    -0.244 C  
HETATM   23  O   UNL     1      -9.356  13.323  66.175  1.00  0.00    -0.190 OA 
HETATM   24  H   UNL     1     -10.664  10.498  66.808  1.00  0.00     0.000 HD 
BRANCH  22  25
HETATM   25  C   UNL     1     -11.693  12.770  66.671  1.00  0.00    -0.393 C  
HETATM   26  H   UNL     1     -13.072  13.916  65.851  1.00  0.00     0.000 HD 
HETATM   27  O   UNL     1     -12.151  13.731  65.708  1.00  0.00    -0.378 OA 
BRANCH  25  28
HETATM   28  C   UNL     1     -11.957  13.295  68.065  1.00  0.00    -0.351 A  
HETATM   29  C   UNL     1     -12.244  12.398  69.105  1.00  0.00    -0.058 A  
HETATM   30  C   UNL     1     -12.493  12.864  70.398  1.00  0.00    -0.247 A  
HETATM   31  C   UNL     1     -12.450  14.229  70.670  1.00  0.00    -0.428 A  
HETATM   32  C   UNL     1     -12.147  15.131  69.654  1.00  0.00    -0.336 A  
HETATM   33  C   UNL     1     -11.898  14.668  68.360  1.00  0.00    -0.330 A  
ENDBRANCH  25  28
ENDBRANCH  22  25
ENDBRANCH  10  21
TORSDOF 6
ENDMDL
MODEL      197
REMARK 921   NORMALIZED FREE ENERGY PREDICTED BY IDOCK:   -3.70 KCAL/MOL
REMARK 922        TOTAL FREE ENERGY PREDICTED BY IDOCK:   -6.04 KCAL/MOL
REMARK 923 INTER-LIGAND FREE ENERGY PREDICTED BY IDOCK:   -5.14 KCAL/MOL
REMARK 924 INTRA-LIGAND FREE ENERGY PREDICTED BY IDOCK:   -0.90 KCAL/MOL
REMARK 927      BINDING AFFINITY PREDICTED BY RF-SCORE:    0.00 PKD
ROOT
HETATM    1  C   UNL     1     -11.256   8.374  70.197  1.00  0.00    -0.136 C  
HETATM    2  S   UNL     1     -10.231   9.671  70.940  1.00  0.00    -0.135 SA 
HETATM    3  C   UNL     1     -10.122  10.612  69.404  1.00  0.00    -0.174 C  
HETATM    4  C   UNL     1      -9.735   9.790  68.180  1.00  0.00    -0.163 C  
HETATM    5  O   UNL     1      -9.772   6.436  66.704  1.00  0.00    -0.156 OA 
HETATM    6  CA  UNL     1      -9.887   8.433  68.097  1.00  0.00    -0.169 C  
HETATM    7  N   UNL     1     -10.514   7.761  69.110  1.00  0.00    -0.219 N  
HETATM    8  O   UNL     1     -10.331   5.453  68.991  1.00  0.00    -0.217 OA 
HETATM    9  C   UNL     1      -9.290   7.669  66.930  1.00  0.00    -0.161 C  
HETATM   10  CA  UNL     1     -11.210   6.986  70.922  1.00  0.00    -0.282 C  
HETATM   11  C   UNL     1     -10.645   6.484  69.544  1.00  0.00    -0.246 C  
HETATM   12  OXT UNL     1      -8.458   8.135  66.165  1.00  0.00    -0.121 OA 
ENDROOT
BRANCH   4  13
HETATM   13  C   UNL     1      -9.040  10.678  67.149  1.00  0.00    -0.143 C  
BRANCH  13  14
HETATM   14  S   UNL     1      -9.009  12.448  67.523  1.00  0.00    -0.193 SA 
BRANCH  14  15
HETATM   15  C   UNL     1      -7.359  12.892  67.376  1.00  0.00    -0.128 A  
HETATM   16  N   UNL     1      -6.332  12.119  67.117  1.00  0.00    -0.154 NA 
HETATM   17  C   UNL     1      -7.646  15.367  67.830  1.00  0.00    -0.150 C  
HETATM   18  N   UNL     1      -5.226  12.939  67.153  1.00  0.00    -0.333 NA 
HETATM   19  N   UNL     1      -5.576  14.190  67.422  1.00  0.00    -0.310 NA 
HETATM   20  N   UNL     1      -6.910  14.166  67.554  1.00  0.00    -0.209 NA 
ENDBRANCH  14  15
ENDBRANCH  13  14
ENDBRANCH   4  13
BRANCH  10  21
HETATM   21  N   UNL     1     -10.269   6.902  72.062  1.00  0.00    -0.187 N  
HETATM   22  C   UNL     1     -10.447   6.103  73.170  1.00  0.00    -0.236 C  
HETATM   23  O   UNL     1     -11.443   5.410  73.348  1.00  0.00    -0.221 OA 
HETATM   24  H   UNL     1      -9.428   7.477  72.024  1.00  0.00     0.000 HD 
BRANCH  22  25
HETATM   25  C   UNL     1      -9.247   6.161  74.141  1.00  0.00    -0.140 C  
HETATM   26  H   UNL     1      -7.928   7.509  74.714  1.00  0.00     0.000 HD 
HETATM   27  O   UNL     1      -8.666   7.474  74.117  1.00  0.00    -0.209 OA 
BRANCH  25  28
HETATM   28  C   UNL     1      -8.189   5.138  73.795  1.00  0.00    -0.109 A  
HETATM   29  C   UNL     1      -8.399   3.786  74.103  1.00  0.00    -0.086 A  
HETATM   30  C   UNL     1      -7.432   2.827  73.795  1.00  0.00    -0.050 A  
HETATM   31  C   UNL     1      -6.246   3.205  73.168  1.00  0.00    -0.009 A  
HETATM   32  C   UNL     1      -6.029   4.541  72.839  1.00  0.00    -0.013 A  
HETATM   33  C   UNL     1      -6.995   5.501  73.147  1.00  0.00    -0.081 A  
ENDBRANCH  25  28
ENDBRANCH  22  25
ENDBRANCH  10  21
TORSDOF 6
ENDMDL
MODEL      198
REMARK 921   NORMALIZED FREE ENERGY PREDICTED BY IDOCK:   -3.70 KCAL/MOL
REMARK 922        TOTAL FREE ENERGY PREDICTED BY IDOCK:   -6.03 KCAL/MOL
REMARK 923 INTER-LIGAND FREE ENERGY PREDICTED BY IDOCK:   -4.91 KCAL/MOL
REMARK 924 INTRA-LIGAND FREE ENERGY PREDICTED BY IDOCK:   -1.12 KCAL/MOL
REMARK 927      BINDING AFFINITY PREDICTED BY RF-SCORE:    0.00 PKD
ROOT
HETATM    1  C   UNL     1      -7.244  10.589  66.996  1.00  0.00    -0.098 C  
HETATM    2  S   UNL     1      -7.007   8.801  67.172  1.00  0.00    -0.071 SA 
HETATM    3  C   UNL     1      -6.506   8.592  65.451  1.00  0.00    -0.056 C  
HETATM    4  C   UNL     1      -7.431   9.251  64.434  1.00  0.00    -0.106 C  
HETATM    5  O   UNL     1      -9.861  11.946  63.919  1.00  0.00    -0.292 OA 
HETATM    6  CA  UNL     1      -8.288  10.274  64.738  1.00  0.00    -0.172 C  
HETATM    7  N   UNL     1      -8.263  10.826  65.989  1.00  0.00    -0.162 N  
HETATM    8  O   UNL     1     -10.030  12.255  66.446  1.00  0.00    -0.219 OA 
HETATM    9  C   UNL     1      -9.315  10.735  63.722  1.00  0.00    -0.266 C  
HETATM   10  CA  UNL     1      -8.216  11.241  68.037  1.00  0.00    -0.134 C  
HETATM   11  C   UNL     1      -9.048  11.618  66.758  1.00  0.00    -0.186 C  
HETATM   12  OXT UNL     1      -9.617  10.100  62.722  1.00  0.00    -0.302 OA 
ENDROOT
BRANCH   4  13
HETATM   13  C   UNL     1      -7.352   8.517  63.097  1.00  0.00    -0.103 C  
BRANCH  13  14
HETATM   14  S   UNL     1      -8.160   6.898  63.036  1.00  0.00     0.042 SA 
BRANCH  14  15
HETATM   15  C   UNL     1      -7.044   5.831  63.782  1.00  0.00    -0.052 A  
HETATM   16  N   UNL     1      -5.789   5.620  63.467  1.00  0.00    -0.017 NA 
HETATM   17  C   UNL     1      -8.612   4.900  65.540  1.00  0.00    -0.135 C  
HETATM   18  N   UNL     1      -5.345   4.642  64.329  1.00  0.00    -0.012 NA 
HETATM   19  N   UNL     1      -6.310   4.271  65.159  1.00  0.00    -0.034 NA 
HETATM   20  N   UNL     1      -7.373   5.019  64.826  1.00  0.00    -0.063 NA 
ENDBRANCH  14  15
ENDBRANCH  13  14
ENDBRANCH   4  13
BRANCH  10  21
HETATM   21  N   UNL     1      -8.874  10.294  68.965  1.00  0.00    -0.158 N  
HETATM   22  C   UNL     1      -8.334   9.856  70.154  1.00  0.00    -0.126 C  
HETATM   23  O   UNL     1      -7.214  10.173  70.544  1.00  0.00    -0.284 OA 
HETATM   24  H   UNL     1      -9.794   9.940  68.705  1.00  0.00     0.000 HD 
BRANCH  22  25
HETATM   25  C   UNL     1      -9.301   8.948  70.945  1.00  0.00    -0.238 C  
HETATM   26  H   UNL     1      -9.343   8.100  72.724  1.00  0.00     0.000 HD 
HETATM   27  O   UNL     1      -8.748   8.658  72.238  1.00  0.00    -0.306 OA 
BRANCH  25  28
HETATM   28  C   UNL     1      -9.584   7.652  70.219  1.00  0.00    -0.172 A  
HETATM   29  C   UNL     1     -10.870   7.400  69.718  1.00  0.00    -0.246 A  
HETATM   30  C   UNL     1     -11.151   6.208  69.048  1.00  0.00    -0.437 A  
HETATM   31  C   UNL     1     -10.150   5.257  68.861  1.00  0.00    -0.254 A  
HETATM   32  C   UNL     1      -8.863   5.500  69.335  1.00  0.00    -0.114 A  
HETATM   33  C   UNL     1      -8.580   6.691  70.006  1.00  0.00    -0.140 A  
ENDBRANCH  25  28
ENDBRANCH  22  25
ENDBRANCH  10  21
TORSDOF 6
ENDMDL
MODEL      199
REMARK 921   NORMALIZED FREE ENERGY PREDICTED BY IDOCK:   -3.61 KCAL/MOL
REMARK 922        TOTAL FREE ENERGY PREDICTED BY IDOCK:   -5.92 KCAL/MOL
REMARK 923 INTER-LIGAND FREE ENERGY PREDICTED BY IDOCK:   -5.09 KCAL/MOL
REMARK 924 INTRA-LIGAND FREE ENERGY PREDICTED BY IDOCK:   -0.83 KCAL/MOL
REMARK 927      BINDING AFFINITY PREDICTED BY RF-SCORE:    0.00 PKD
ROOT
HETATM    1  C   UNL     1     -10.982   6.537  68.871  1.00  0.00    -0.314 C  
HETATM    2  S   UNL     1     -11.025   6.366  67.066  1.00  0.00    -0.313 SA 
HETATM    3  C   UNL     1     -10.403   4.672  67.106  1.00  0.00    -0.025 C  
HETATM    4  C   UNL     1      -9.164   4.470  67.970  1.00  0.00    -0.166 C  
HETATM    5  O   UNL     1      -7.287   5.755  70.844  1.00  0.00    -0.080 OA 
HETATM    6  CA  UNL     1      -8.793   5.318  68.977  1.00  0.00    -0.099 C  
HETATM    7  N   UNL     1      -9.613   6.357  69.321  1.00  0.00    -0.138 N  
HETATM    8  O   UNL     1      -8.655   7.906  70.756  1.00  0.00    -0.128 OA 
HETATM    9  C   UNL     1      -7.443   5.159  69.651  1.00  0.00    -0.061 C  
HETATM   10  CA  UNL     1     -10.893   8.007  69.402  1.00  0.00    -0.094 C  
HETATM   11  C   UNL     1      -9.537   7.514  70.023  1.00  0.00    -0.164 C  
HETATM   12  OXT UNL     1      -6.534   4.476  69.201  1.00  0.00    -0.037 OA 
ENDROOT
BRANCH   4  13
HETATM   13  C   UNL     1      -8.351   3.284  67.455  1.00  0.00    -0.087 C  
BRANCH  13  14
HETATM   14  S   UNL     1      -7.493   3.537  65.882  1.00  0.00    -0.077 SA 
BRANCH  14  15
HETATM   15  C   UNL     1      -8.581   2.943  64.696  1.00  0.00    -0.100 A  
HETATM   16  N   UNL     1      -9.086   1.738  64.592  1.00  0.00    -0.125 NA 
HETATM   17  C   UNL     1      -8.793   5.078  63.351  1.00  0.00    -0.030 C  
HETATM   18  N   UNL     1      -9.859   1.752  63.452  1.00  0.00    -0.112 NA 
HETATM   19  N   UNL     1      -9.831   2.948  62.879  1.00  0.00    -0.092 NA 
HETATM   20  N   UNL     1      -9.038   3.698  63.659  1.00  0.00    -0.097 NA 
ENDBRANCH  14  15
ENDBRANCH  13  14
ENDBRANCH   4  13
BRANCH  10  21
HETATM   21  N   UNL     1     -10.771   9.049  68.357  1.00  0.00    -0.410 N  
HETATM   22  C   UNL     1     -10.230  10.301  68.554  1.00  0.00    -0.172 C  
HETATM   23  O   UNL     1      -9.837  10.701  69.645  1.00  0.00    -0.158 OA 
HETATM   24  H   UNL     1     -11.111   8.823  67.422  1.00  0.00     0.000 HD 
BRANCH  22  25
HETATM   25  C   UNL     1     -10.154  11.125  67.250  1.00  0.00    -0.188 C  
HETATM   26  H   UNL     1      -8.814  11.472  65.847  1.00  0.00     0.000 HD 
HETATM   27  O   UNL     1      -8.860  10.965  66.649  1.00  0.00    -0.151 OA 
BRANCH  25  28
HETATM   28  C   UNL     1     -10.416  12.594  67.492  1.00  0.00    -0.229 A  
HETATM   29  C   UNL     1      -9.367  13.518  67.379  1.00  0.00    -0.228 A  
HETATM   30  C   UNL     1      -9.589  14.878  67.603  1.00  0.00    -0.200 A  
HETATM   31  C   UNL     1     -10.864  15.334  67.933  1.00  0.00    -0.288 A  
HETATM   32  C   UNL     1     -11.921  14.433  68.030  1.00  0.00    -0.326 A  
HETATM   33  C   UNL     1     -11.700  13.073  67.807  1.00  0.00    -0.405 A  
ENDBRANCH  25  28
ENDBRANCH  22  25
ENDBRANCH  10  21
TORSDOF 6
ENDMDL
MODEL      200
REMARK 921   NORMALIZED FREE ENERGY PREDICTED BY IDOCK:   -3.56 KCAL/MOL
REMARK 922        TOTAL FREE ENERGY PREDICTED BY IDOCK:   -5.85 KCAL/MOL
REMARK 923 INTER-LIGAND FREE ENERGY PREDICTED BY IDOCK:   -5.09 KCAL/MOL
REMARK 924 INTRA-LIGAND FREE ENERGY PREDICTED BY IDOCK:   -0.76 KCAL/MOL
REMARK 927      BINDING AFFINITY PREDICTED BY RF-SCORE:    0.00 PKD
ROOT
HETATM    1  C   UNL     1      -7.606  10.867  68.475  1.00  0.00    -0.111 C  
HETATM    2  S   UNL     1      -7.148  11.498  66.838  1.00  0.00    -0.111 SA 
HETATM    3  C   UNL     1      -7.570  13.201  67.260  1.00  0.00    -0.080 C  
HETATM    4  C   UNL     1      -8.938  13.376  67.908  1.00  0.00    -0.201 C  
HETATM    5  O   UNL     1     -11.534  11.716  69.893  1.00  0.00    -0.277 OA 
HETATM    6  CA  UNL     1      -9.615  12.368  68.539  1.00  0.00    -0.118 C  
HETATM    7  N   UNL     1      -9.012  11.151  68.704  1.00  0.00    -0.171 N  
HETATM    8  O   UNL     1     -10.430   9.465  69.426  1.00  0.00    -0.206 OA 
HETATM    9  C   UNL     1     -11.053  12.571  68.976  1.00  0.00    -0.234 C  
HETATM   10  CA  UNL     1      -7.975   9.346  68.527  1.00  0.00    -0.093 C  
HETATM   11  C   UNL     1      -9.370   9.881  69.011  1.00  0.00    -0.174 C  
HETATM   12  OXT UNL     1     -11.758  13.492  68.590  1.00  0.00    -0.308 OA 
ENDROOT
BRANCH   4  13
HETATM   13  C   UNL     1      -9.479  14.776  67.626  1.00  0.00    -0.204 C  
BRANCH  13  14
HETATM   14  S   UNL     1      -9.370  15.957  68.994  1.00  0.00    -0.257 SA 
BRANCH  14  15
HETATM   15  C   UNL     1      -9.803  17.464  68.299  1.00  0.00    -0.310 A  
HETATM   16  N   UNL     1     -10.907  18.149  68.474  1.00  0.00     0.036 NA 
HETATM   17  C   UNL     1      -7.700  17.805  66.929  1.00  0.00    -0.215 C  
HETATM   18  N   UNL     1     -10.792  19.257  67.665  1.00  0.00    -0.434 NA 
HETATM   19  N   UNL     1      -9.635  19.250  67.016  1.00  0.00    -0.313 NA 
HETATM   20  N   UNL     1      -9.010  18.133  67.417  1.00  0.00    -0.255 NA 
ENDBRANCH  14  15
ENDBRANCH  13  14
ENDBRANCH   4  13
BRANCH  10  21
HETATM   21  N   UNL     1      -7.980   8.653  67.218  1.00  0.00    -0.101 N  
HETATM   22  C   UNL     1      -7.371   7.444  66.966  1.00  0.00    -0.097 C  
HETATM   23  O   UNL     1      -6.709   6.835  67.801  1.00  0.00    -0.062 OA 
HETATM   24  H   UNL     1      -8.471   9.105  66.446  1.00  0.00     0.000 HD 
BRANCH  22  25
HETATM   25  C   UNL     1      -7.635   6.935  65.532  1.00  0.00    -0.091 C  
HETATM   26  H   UNL     1      -8.611   7.569  63.940  1.00  0.00     0.000 HD 
HETATM   27  O   UNL     1      -8.448   7.882  64.822  1.00  0.00    -0.108 OA 
BRANCH  25  28
HETATM   28  C   UNL     1      -8.317   5.585  65.526  1.00  0.00    -0.136 A  
HETATM   29  C   UNL     1      -7.716   4.503  64.866  1.00  0.00    -0.081 A  
HETATM   30  C   UNL     1      -8.332   3.250  64.847  1.00  0.00    -0.094 A  
HETATM   31  C   UNL     1      -9.551   3.060  65.494  1.00  0.00     0.027 A  
HETATM   32  C   UNL     1     -10.152   4.119  66.170  1.00  0.00    -0.145 A  
HETATM   33  C   UNL     1      -9.538   5.372  66.190  1.00  0.00    -0.169 A  
ENDBRANCH  25  28
ENDBRANCH  22  25
ENDBRANCH  10  21
TORSDOF 6
ENDMDL
MODEL      201
REMARK 921   NORMALIZED FREE ENERGY PREDICTED BY IDOCK:   -3.55 KCAL/MOL
REMARK 922        TOTAL FREE ENERGY PREDICTED BY IDOCK:   -5.83 KCAL/MOL
REMARK 923 INTER-LIGAND FREE ENERGY PREDICTED BY IDOCK:   -4.85 KCAL/MOL
REMARK 924 INTRA-LIGAND FREE ENERGY PREDICTED BY IDOCK:   -0.99 KCAL/MOL
REMARK 927      BINDING AFFINITY PREDICTED BY RF-SCORE:    0.00 PKD
ROOT
HETATM    1  C   UNL     1      -8.047  10.992  67.868  1.00  0.00    -0.114 C  
HETATM    2  S   UNL     1      -8.445  10.575  66.149  1.00  0.00    -0.158 SA 
HETATM    3  C   UNL     1      -9.687  11.877  66.010  1.00  0.00    -0.237 C  
HETATM    4  C   UNL     1     -10.697  11.918  67.152  1.00  0.00    -0.280 C  
HETATM    5  O   UNL     1     -11.252  11.077  70.675  1.00  0.00    -0.094 OA 
HETATM    6  CA  UNL     1     -10.472  11.368  68.384  1.00  0.00    -0.200 C  
HETATM    7  N   UNL     1      -9.246  10.835  68.672  1.00  0.00    -0.177 N  
HETATM    8  O   UNL     1      -9.168   9.606  70.636  1.00  0.00    -0.229 OA 
HETATM    9  C   UNL     1     -11.601  11.272  69.393  1.00  0.00    -0.321 C  
HETATM   10  CA  UNL     1      -7.413   9.833  68.708  1.00  0.00    -0.075 C  
HETATM   11  C   UNL     1      -8.695  10.013  69.598  1.00  0.00    -0.194 C  
HETATM   12  OXT UNL     1     -12.780  11.425  69.112  1.00  0.00    -0.135 OA 
ENDROOT
BRANCH   4  13
HETATM   13  C   UNL     1     -12.011  12.528  66.670  1.00  0.00    -0.281 C  
BRANCH  13  14
HETATM   14  S   UNL     1     -11.970  14.297  66.290  1.00  0.00    -0.393 SA 
BRANCH  14  15
HETATM   15  C   UNL     1     -10.993  14.980  67.523  1.00  0.00    -0.307 A  
HETATM   16  N   UNL     1     -11.297  15.174  68.783  1.00  0.00    -0.283 NA 
HETATM   17  C   UNL     1      -8.949  15.441  66.100  1.00  0.00    -0.259 C  
HETATM   18  N   UNL     1     -10.201  15.792  69.343  1.00  0.00    -0.243 NA 
HETATM   19  N   UNL     1      -9.244  15.963  68.441  1.00  0.00    -0.192 NA 
HETATM   20  N   UNL     1      -9.733  15.449  67.302  1.00  0.00    -0.211 NA 
ENDBRANCH  14  15
ENDBRANCH  13  14
ENDBRANCH   4  13
BRANCH  10  21
HETATM   21  N   UNL     1      -7.305   8.532  68.008  1.00  0.00    -0.091 N  
HETATM   22  C   UNL     1      -6.202   8.111  67.297  1.00  0.00    -0.055 C  
HETATM   23  O   UNL     1      -5.204   8.804  67.129  1.00  0.00    -0.032 OA 
HETATM   24  H   UNL     1      -8.106   7.902  68.055  1.00  0.00     0.000 HD 
BRANCH  22  25
HETATM   25  C   UNL     1      -6.357   6.670  66.764  1.00  0.00    -0.042 C  
HETATM   26  H   UNL     1      -5.364   4.973  66.902  1.00  0.00     0.000 HD 
HETATM   27  O   UNL     1      -5.268   5.859  67.230  1.00  0.00    -0.004 OA 
BRANCH  25  28
HETATM   28  C   UNL     1      -6.402   6.627  65.252  1.00  0.00    -0.042 A  
HETATM   29  C   UNL     1      -6.961   7.698  64.541  1.00  0.00    -0.056 A  
HETATM   30  C   UNL     1      -7.014   7.675  63.145  1.00  0.00    -0.068 A  
HETATM   31  C   UNL     1      -6.502   6.586  62.444  1.00  0.00    -0.034 A  
HETATM   32  C   UNL     1      -5.927   5.522  63.134  1.00  0.00    -0.018 A  
HETATM   33  C   UNL     1      -5.873   5.544  64.529  1.00  0.00    -0.021 A  
ENDBRANCH  25  28
ENDBRANCH  22  25
ENDBRANCH  10  21
TORSDOF 6
ENDMDL
MODEL      202
REMARK 921   NORMALIZED FREE ENERGY PREDICTED BY IDOCK:   -3.47 KCAL/MOL
REMARK 922        TOTAL FREE ENERGY PREDICTED BY IDOCK:   -5.73 KCAL/MOL
REMARK 923 INTER-LIGAND FREE ENERGY PREDICTED BY IDOCK:   -5.30 KCAL/MOL
REMARK 924 INTRA-LIGAND FREE ENERGY PREDICTED BY IDOCK:   -0.44 KCAL/MOL
REMARK 927      BINDING AFFINITY PREDICTED BY RF-SCORE:    0.00 PKD
ROOT
HETATM    1  C   UNL     1      -7.593   9.442  67.738  1.00  0.00    -0.088 C  
HETATM    2  S   UNL     1      -7.855   7.688  68.114  1.00  0.00    -0.123 SA 
HETATM    3  C   UNL     1      -6.898   7.131  66.688  1.00  0.00    -0.065 C  
HETATM    4  C   UNL     1      -7.267   7.804  65.372  1.00  0.00    -0.068 C  
HETATM    5  O   UNL     1      -8.696  10.822  63.860  1.00  0.00    -0.158 OA 
HETATM    6  CA  UNL     1      -7.908   9.010  65.288  1.00  0.00    -0.102 C  
HETATM    7  N   UNL     1      -8.152   9.725  66.428  1.00  0.00    -0.115 N  
HETATM    8  O   UNL     1      -9.581  11.529  66.146  1.00  0.00    -0.211 OA 
HETATM    9  C   UNL     1      -8.420   9.511  63.951  1.00  0.00    -0.190 C  
HETATM   10  CA  UNL     1      -8.661  10.421  68.332  1.00  0.00    -0.129 C  
HETATM   11  C   UNL     1      -8.930  10.762  66.822  1.00  0.00    -0.147 C  
HETATM   12  OXT UNL     1      -8.529   8.807  62.957  1.00  0.00    -0.191 OA 
ENDROOT
BRANCH   4  13
HETATM   13  C   UNL     1      -6.945   6.879  64.200  1.00  0.00    -0.052 C  
BRANCH  13  14
HETATM   14  S   UNL     1      -8.095   5.507  63.935  1.00  0.00    -0.112 SA 
BRANCH  14  15
HETATM   15  C   UNL     1      -7.090   4.159  63.603  1.00  0.00    -0.046 A  
HETATM   16  N   UNL     1      -5.883   4.155  63.092  1.00  0.00    -0.016 NA 
HETATM   17  C   UNL     1      -8.691   2.359  64.386  1.00  0.00    -0.100 C  
HETATM   18  N   UNL     1      -5.527   2.829  62.978  1.00  0.00    -0.008 NA 
HETATM   19  N   UNL     1      -6.498   2.041  63.421  1.00  0.00    -0.014 NA 
HETATM   20  N   UNL     1      -7.475   2.870  63.820  1.00  0.00    -0.065 NA 
ENDBRANCH  14  15
ENDBRANCH  13  14
ENDBRANCH   4  13
BRANCH  10  21
HETATM   21  N   UNL     1      -9.784   9.771  69.045  1.00  0.00    -0.169 N  
HETATM   22  C   UNL     1      -9.761   9.392  70.369  1.00  0.00    -0.261 C  
HETATM   23  O   UNL     1      -8.773   9.512  71.087  1.00  0.00    -0.259 OA 
HETATM   24  H   UNL     1     -10.639   9.591  68.517  1.00  0.00     0.000 HD 
BRANCH  22  25
HETATM   25  C   UNL     1     -11.117   8.829  70.848  1.00  0.00    -0.268 C  
HETATM   26  H   UNL     1     -12.692   9.508  71.819  1.00  0.00     0.000 HD 
HETATM   27  O   UNL     1     -11.859   9.855  71.525  1.00  0.00    -0.381 OA 
BRANCH  25  28
HETATM   28  C   UNL     1     -10.944   7.644  71.772  1.00  0.00    -0.276 A  
HETATM   29  C   UNL     1     -11.168   6.346  71.291  1.00  0.00    -0.346 A  
HETATM   30  C   UNL     1     -11.017   5.240  72.130  1.00  0.00    -0.226 A  
HETATM   31  C   UNL     1     -10.631   5.416  73.457  1.00  0.00    -0.310 A  
HETATM   32  C   UNL     1     -10.386   6.697  73.946  1.00  0.00    -0.385 A  
HETATM   33  C   UNL     1     -10.537   7.804  73.108  1.00  0.00    -0.415 A  
ENDBRANCH  25  28
ENDBRANCH  22  25
ENDBRANCH  10  21
TORSDOF 6
ENDMDL
MODEL      203
REMARK 921   NORMALIZED FREE ENERGY PREDICTED BY IDOCK:   -3.40 KCAL/MOL
REMARK 922        TOTAL FREE ENERGY PREDICTED BY IDOCK:   -5.63 KCAL/MOL
REMARK 923 INTER-LIGAND FREE ENERGY PREDICTED BY IDOCK:   -5.23 KCAL/MOL
REMARK 924 INTRA-LIGAND FREE ENERGY PREDICTED BY IDOCK:   -0.40 KCAL/MOL
REMARK 927      BINDING AFFINITY PREDICTED BY RF-SCORE:    0.00 PKD
ROOT
HETATM    1  C   UNL     1     -11.645  12.325  66.911  1.00  0.00    -0.361 C  
HETATM    2  S   UNL     1     -10.076  12.461  67.808  1.00  0.00    -0.208 SA 
HETATM    3  C   UNL     1     -10.381  14.171  68.296  1.00  0.00    -0.245 C  
HETATM    4  C   UNL     1     -10.816  15.089  67.159  1.00  0.00    -0.314 C  
HETATM    5  O   UNL     1     -12.447  15.211  63.879  1.00  0.00    -0.768 OA 
HETATM    6  CA  UNL     1     -11.370  14.642  65.991  1.00  0.00    -0.344 C  
HETATM    7  N   UNL     1     -11.658  13.313  65.846  1.00  0.00    -0.333 N  
HETATM    8  O   UNL     1     -12.213  12.678  63.686  1.00  0.00    -0.479 OA 
HETATM    9  C   UNL     1     -11.585  15.599  64.834  1.00  0.00    -0.156 C  
HETATM   10  CA  UNL     1     -11.688  11.224  65.798  1.00  0.00     0.617 C  
HETATM   11  C   UNL     1     -11.946  12.446  64.845  1.00  0.00    -0.398 C  
HETATM   12  OXT UNL     1     -11.073  16.707  64.762  1.00  0.00    -0.643 OA 
ENDROOT
BRANCH   4  13
HETATM   13  C   UNL     1     -10.416  16.531  67.466  1.00  0.00    -0.310 C  
BRANCH  13  14
HETATM   14  S   UNL     1      -9.773  16.837  69.130  1.00  0.00    -0.153 SA 
BRANCH  14  15
HETATM   15  C   UNL     1      -8.227  17.532  68.874  1.00  0.00    -0.161 A  
HETATM   16  N   UNL     1      -7.929  18.793  68.675  1.00  0.00    -0.337 NA 
HETATM   17  C   UNL     1      -6.882  15.390  69.000  1.00  0.00    -0.136 C  
HETATM   18  N   UNL     1      -6.566  18.830  68.476  1.00  0.00    -0.235 NA 
HETATM   19  N   UNL     1      -6.045  17.614  68.562  1.00  0.00    -0.175 NA 
HETATM   20  N   UNL     1      -7.079  16.800  68.819  1.00  0.00    -0.190 NA 
ENDBRANCH  14  15
ENDBRANCH  13  14
ENDBRANCH   4  13
BRANCH  10  21
HETATM   21  N   UNL     1     -10.413  10.504  65.575  1.00  0.00    -0.201 N  
HETATM   22  C   UNL     1      -9.899  10.181  64.339  1.00  0.00    -0.237 C  
HETATM   23  O   UNL     1     -10.480  10.416  63.284  1.00  0.00     0.159 OA 
HETATM   24  H   UNL     1      -9.876  10.227  66.397  1.00  0.00     0.000 HD 
BRANCH  22  25
HETATM   25  C   UNL     1      -8.508   9.516  64.431  1.00  0.00    -0.181 C  
HETATM   26  H   UNL     1      -6.750   9.738  63.567  1.00  0.00     0.000 HD 
HETATM   27  O   UNL     1      -7.605  10.147  63.510  1.00  0.00    -0.145 OA 
BRANCH  25  28
HETATM   28  C   UNL     1      -8.567   8.033  64.139  1.00  0.00     0.220 A  
HETATM   29  C   UNL     1      -8.137   7.550  62.895  1.00  0.00    -0.075 A  
HETATM   30  C   UNL     1      -8.188   6.185  62.606  1.00  0.00    -0.065 A  
HETATM   31  C   UNL     1      -8.660   5.285  63.559  1.00  0.00    -0.048 A  
HETATM   32  C   UNL     1      -9.073   5.746  64.806  1.00  0.00     0.315 A  
HETATM   33  C   UNL     1      -9.024   7.111  65.097  1.00  0.00     0.358 A  
ENDBRANCH  25  28
ENDBRANCH  22  25
ENDBRANCH  10  21
TORSDOF 6
ENDMDL
MODEL      204
REMARK 921   NORMALIZED FREE ENERGY PREDICTED BY IDOCK:   -3.39 KCAL/MOL
REMARK 922        TOTAL FREE ENERGY PREDICTED BY IDOCK:   -5.62 KCAL/MOL
REMARK 923 INTER-LIGAND FREE ENERGY PREDICTED BY IDOCK:   -4.98 KCAL/MOL
REMARK 924 INTRA-LIGAND FREE ENERGY PREDICTED BY IDOCK:   -0.64 KCAL/MOL
REMARK 927      BINDING AFFINITY PREDICTED BY RF-SCORE:    0.00 PKD
ROOT
HETATM    1  C   UNL     1      -7.222   9.494  68.333  1.00  0.00    -0.075 C  
HETATM    2  S   UNL     1      -8.320   8.517  69.393  1.00  0.00    -0.120 SA 
HETATM    3  C   UNL     1      -7.344   7.011  69.196  1.00  0.00    -0.092 C  
HETATM    4  C   UNL     1      -6.992   6.666  67.754  1.00  0.00    -0.083 C  
HETATM    5  O   UNL     1      -6.461   8.043  64.399  1.00  0.00    -0.059 OA 
HETATM    6  CA  UNL     1      -6.987   7.577  66.734  1.00  0.00    -0.078 C  
HETATM    7  N   UNL     1      -7.204   8.899  67.008  1.00  0.00    -0.079 N  
HETATM    8  O   UNL     1      -7.553  10.226  65.140  1.00  0.00    -0.139 OA 
HETATM    9  C   UNL     1      -6.825   7.114  65.298  1.00  0.00    -0.051 C  
HETATM   10  CA  UNL     1      -7.873  10.761  67.682  1.00  0.00    -0.109 C  
HETATM   11  C   UNL     1      -7.525  10.031  66.335  1.00  0.00    -0.104 C  
HETATM   12  OXT UNL     1      -6.945   5.952  64.940  1.00  0.00    -0.052 OA 
ENDROOT
BRANCH   4  13
HETATM   13  C   UNL     1      -6.790   5.159  67.609  1.00  0.00    -0.060 C  
BRANCH  13  14
HETATM   14  S   UNL     1      -8.281   4.144  67.756  1.00  0.00    -0.094 SA 
BRANCH  14  15
HETATM   15  C   UNL     1      -8.319   3.670  69.404  1.00  0.00    -0.059 A  
HETATM   16  N   UNL     1      -9.213   3.973  70.313  1.00  0.00    -0.124 NA 
HETATM   17  C   UNL     1      -6.182   2.310  69.401  1.00  0.00    -0.025 C  
HETATM   18  N   UNL     1      -8.771   3.395  71.482  1.00  0.00    -0.079 NA 
HETATM   19  N   UNL     1      -7.632   2.744  71.285  1.00  0.00    -0.040 NA 
HETATM   20  N   UNL     1      -7.351   2.907  69.983  1.00  0.00    -0.043 NA 
ENDBRANCH  14  15
ENDBRANCH  13  14
ENDBRANCH   4  13
BRANCH  10  21
HETATM   21  N   UNL     1      -9.317  10.938  67.953  1.00  0.00    -0.153 N  
HETATM   22  C   UNL     1      -9.971  12.150  67.973  1.00  0.00    -0.203 C  
HETATM   23  O   UNL     1      -9.402  13.225  67.815  1.00  0.00    -0.193 OA 
HETATM   24  H   UNL     1      -9.869  10.100  68.139  1.00  0.00     0.000 HD 
BRANCH  22  25
HETATM   25  C   UNL     1     -11.493  11.999  68.189  1.00  0.00    -0.322 C  
HETATM   26  H   UNL     1     -13.139  12.616  67.297  1.00  0.00     0.000 HD 
HETATM   27  O   UNL     1     -12.203  12.710  67.164  1.00  0.00    -0.445 OA 
BRANCH  25  28
HETATM   28  C   UNL     1     -11.926  12.509  69.545  1.00  0.00    -0.329 A  
HETATM   29  C   UNL     1     -12.302  11.600  70.545  1.00  0.00    -0.410 A  
HETATM   30  C   UNL     1     -12.709  12.053  71.802  1.00  0.00    -0.273 A  
HETATM   31  C   UNL     1     -12.736  13.418  72.079  1.00  0.00    -0.238 A  
HETATM   32  C   UNL     1     -12.348  14.333  71.103  1.00  0.00    -0.440 A  
HETATM   33  C   UNL     1     -11.941  13.882  69.846  1.00  0.00    -0.405 A  
ENDBRANCH  25  28
ENDBRANCH  22  25
ENDBRANCH  10  21
TORSDOF 6
ENDMDL
MODEL      205
REMARK 921   NORMALIZED FREE ENERGY PREDICTED BY IDOCK:   -3.34 KCAL/MOL
REMARK 922        TOTAL FREE ENERGY PREDICTED BY IDOCK:   -5.55 KCAL/MOL
REMARK 923 INTER-LIGAND FREE ENERGY PREDICTED BY IDOCK:   -5.94 KCAL/MOL
REMARK 924 INTRA-LIGAND FREE ENERGY PREDICTED BY IDOCK:    0.39 KCAL/MOL
REMARK 927      BINDING AFFINITY PREDICTED BY RF-SCORE:    0.00 PKD
ROOT
HETATM    1  C   UNL     1      -6.988  10.204  65.009  1.00  0.00    -0.135 C  
HETATM    2  S   UNL     1      -8.459   9.594  64.144  1.00  0.00    -0.195 SA 
HETATM    3  C   UNL     1      -9.432  11.060  64.544  1.00  0.00    -0.233 C  
HETATM    4  C   UNL     1      -9.393  11.468  66.012  1.00  0.00    -0.239 C  
HETATM    5  O   UNL     1      -7.419  11.326  69.097  1.00  0.00    -0.120 OA 
HETATM    6  CA  UNL     1      -8.403  11.094  66.879  1.00  0.00    -0.147 C  
HETATM    7  N   UNL     1      -7.321  10.401  66.408  1.00  0.00    -0.113 N  
HETATM    8  O   UNL     1      -5.955   9.513  68.058  1.00  0.00    -0.047 OA 
HETATM    9  C   UNL     1      -8.543  11.371  68.363  1.00  0.00    -0.156 C  
HETATM   10  CA  UNL     1      -5.978   9.101  65.474  1.00  0.00    -0.055 C  
HETATM   11  C   UNL     1      -6.306   9.654  66.907  1.00  0.00    -0.066 C  
HETATM   12  OXT UNL     1      -9.595  11.688  68.900  1.00  0.00    -0.123 OA 
ENDROOT
BRANCH   4  13
HETATM   13  C   UNL     1     -10.669  12.221  66.383  1.00  0.00    -0.251 C  
BRANCH  13  14
HETATM   14  S   UNL     1     -10.452  13.947  66.882  1.00  0.00    -0.277 SA 
BRANCH  14  15
HETATM   15  C   UNL     1     -11.011  14.858  65.541  1.00  0.00    -0.350 A  
HETATM   16  N   UNL     1     -10.504  15.959  65.042  1.00  0.00    -0.559 NA 
HETATM   17  C   UNL     1     -13.006  13.405  64.971  1.00  0.00    -0.152 C  
HETATM   18  N   UNL     1     -11.339  16.321  64.008  1.00  0.00    -0.902 NA 
HETATM   19  N   UNL     1     -12.331  15.451  63.876  1.00  0.00    -0.572 NA 
HETATM   20  N   UNL     1     -12.125  14.529  64.829  1.00  0.00    -0.437 NA 
ENDBRANCH  14  15
ENDBRANCH  13  14
ENDBRANCH   4  13
BRANCH  10  21
HETATM   21  N   UNL     1      -6.407   7.706  65.218  1.00  0.00    -0.038 N  
HETATM   22  C   UNL     1      -6.238   7.038  64.026  1.00  0.00    -0.036 C  
HETATM   23  O   UNL     1      -5.753   7.557  63.025  1.00  0.00    -0.048 OA 
HETATM   24  H   UNL     1      -6.860   7.204  65.982  1.00  0.00     0.000 HD 
BRANCH  22  25
HETATM   25  C   UNL     1      -6.700   5.566  64.101  1.00  0.00    -0.042 C  
HETATM   26  H   UNL     1      -7.692   4.312  62.949  1.00  0.00     0.000 HD 
HETATM   27  O   UNL     1      -7.408   5.217  62.902  1.00  0.00    -0.042 OA 
BRANCH  25  28
HETATM   28  C   UNL     1      -7.588   5.312  65.299  1.00  0.00    -0.082 A  
HETATM   29  C   UNL     1      -7.051   4.720  66.452  1.00  0.00    -0.075 A  
HETATM   30  C   UNL     1      -7.856   4.475  67.567  1.00  0.00    -0.089 A  
HETATM   31  C   UNL     1      -9.204   4.824  67.547  1.00  0.00    -0.142 A  
HETATM   32  C   UNL     1      -9.749   5.430  66.417  1.00  0.00    -0.183 A  
HETATM   33  C   UNL     1      -8.946   5.676  65.302  1.00  0.00    -0.039 A  
ENDBRANCH  25  28
ENDBRANCH  22  25
ENDBRANCH  10  21
TORSDOF 6
ENDMDL
MODEL      206
REMARK 921   NORMALIZED FREE ENERGY PREDICTED BY IDOCK:   -3.34 KCAL/MOL
REMARK 922        TOTAL FREE ENERGY PREDICTED BY IDOCK:   -5.55 KCAL/MOL
REMARK 923 INTER-LIGAND FREE ENERGY PREDICTED BY IDOCK:   -4.31 KCAL/MOL
REMARK 924 INTRA-LIGAND FREE ENERGY PREDICTED BY IDOCK:   -1.23 KCAL/MOL
REMARK 927      BINDING AFFINITY PREDICTED BY RF-SCORE:    0.00 PKD
ROOT
HETATM    1  C   UNL     1      -9.610   4.473  68.214  1.00  0.00    -0.143 C  
HETATM    2  S   UNL     1      -7.860   4.031  68.383  1.00  0.00    -0.069 SA 
HETATM    3  C   UNL     1      -7.706   4.827  69.995  1.00  0.00    -0.055 C  
HETATM    4  C   UNL     1      -8.255   6.248  70.059  1.00  0.00    -0.125 C  
HETATM    5  O   UNL     1     -10.656   8.588  68.578  1.00  0.00    -0.193 OA 
HETATM    6  CA  UNL     1      -9.174   6.747  69.177  1.00  0.00    -0.137 C  
HETATM    7  N   UNL     1      -9.728   5.920  68.239  1.00  0.00    -0.123 N  
HETATM    8  O   UNL     1     -10.948   7.009  66.596  1.00  0.00    -0.219 OA 
HETATM    9  C   UNL     1      -9.514   8.226  69.185  1.00  0.00    -0.155 C  
HETATM   10  CA  UNL     1     -10.150   4.521  66.745  1.00  0.00    -0.186 C  
HETATM   11  C   UNL     1     -10.428   6.030  67.083  1.00  0.00    -0.264 C  
HETATM   12  OXT UNL     1      -8.847   9.074  69.759  1.00  0.00    -0.138 OA 
ENDROOT
BRANCH   4  13
HETATM   13  C   UNL     1      -7.532   7.043  71.144  1.00  0.00    -0.081 C  
BRANCH  13  14
HETATM   14  S   UNL     1      -7.698   6.410  72.831  1.00  0.00    -0.102 SA 
BRANCH  14  15
HETATM   15  C   UNL     1      -9.309   5.830  72.918  1.00  0.00    -0.144 A  
HETATM   16  N   UNL     1      -9.719   4.591  73.040  1.00  0.00    -0.135 NA 
HETATM   17  C   UNL     1     -10.471   8.072  72.720  1.00  0.00    -0.345 C  
HETATM   18  N   UNL     1     -11.095   4.646  73.014  1.00  0.00    -0.254 NA 
HETATM   19  N   UNL     1     -11.514   5.898  72.888  1.00  0.00    -0.226 NA 
HETATM   20  N   UNL     1     -10.399   6.643  72.836  1.00  0.00    -0.201 NA 
ENDBRANCH  14  15
ENDBRANCH  13  14
ENDBRANCH   4  13
BRANCH  10  21
HETATM   21  N   UNL     1      -9.136   4.283  65.692  1.00  0.00    -0.129 N  
HETATM   22  C   UNL     1      -9.421   3.997  64.376  1.00  0.00    -0.164 C  
HETATM   23  O   UNL     1     -10.563   3.858  63.948  1.00  0.00    -0.249 OA 
HETATM   24  H   UNL     1      -8.153   4.335  65.963  1.00  0.00     0.000 HD 
BRANCH  22  25
HETATM   25  C   UNL     1      -8.151   3.897  63.503  1.00  0.00    -0.089 C  
HETATM   26  H   UNL     1      -6.469   2.870  63.527  1.00  0.00     0.000 HD 
HETATM   27  O   UNL     1      -7.250   2.931  64.064  1.00  0.00    -0.054 OA 
BRANCH  25  28
HETATM   28  C   UNL     1      -7.444   5.228  63.375  1.00  0.00    -0.054 A  
HETATM   29  C   UNL     1      -8.141   6.344  62.892  1.00  0.00    -0.059 A  
HETATM   30  C   UNL     1      -7.504   7.581  62.764  1.00  0.00    -0.106 A  
HETATM   31  C   UNL     1      -6.166   7.719  63.126  1.00  0.00    -0.067 A  
HETATM   32  C   UNL     1      -5.465   6.625  63.626  1.00  0.00    -0.027 A  
HETATM   33  C   UNL     1      -6.099   5.388  63.754  1.00  0.00    -0.022 A  
ENDBRANCH  25  28
ENDBRANCH  22  25
ENDBRANCH  10  21
TORSDOF 6
ENDMDL
MODEL      207
REMARK 921   NORMALIZED FREE ENERGY PREDICTED BY IDOCK:   -3.29 KCAL/MOL
REMARK 922        TOTAL FREE ENERGY PREDICTED BY IDOCK:   -5.48 KCAL/MOL
REMARK 923 INTER-LIGAND FREE ENERGY PREDICTED BY IDOCK:   -4.91 KCAL/MOL
REMARK 924 INTRA-LIGAND FREE ENERGY PREDICTED BY IDOCK:   -0.57 KCAL/MOL
REMARK 927      BINDING AFFINITY PREDICTED BY RF-SCORE:    0.00 PKD
ROOT
HETATM    1  C   UNL     1      -8.469  10.817  68.028  1.00  0.00    -0.124 C  
HETATM    2  S   UNL     1      -8.097   9.201  67.294  1.00  0.00    -0.106 SA 
HETATM    3  C   UNL     1      -7.974   9.871  65.623  1.00  0.00    -0.130 C  
HETATM    4  C   UNL     1      -9.135  10.768  65.209  1.00  0.00    -0.217 C  
HETATM    5  O   UNL     1     -11.770  12.996  66.443  1.00  0.00    -0.351 OA 
HETATM    6  CA  UNL     1      -9.962  11.398  66.098  1.00  0.00    -0.227 C  
HETATM    7  N   UNL     1      -9.696  11.323  67.438  1.00  0.00    -0.173 N  
HETATM    8  O   UNL     1     -11.399  12.102  68.804  1.00  0.00    -0.242 OA 
HETATM    9  C   UNL     1     -11.212  12.104  65.609  1.00  0.00    -0.335 C  
HETATM   10  CA  UNL     1      -9.225  10.771  69.398  1.00  0.00     0.020 C  
HETATM   11  C   UNL     1     -10.338  11.551  68.609  1.00  0.00    -0.210 C  
HETATM   12  OXT UNL     1     -11.688  11.951  64.494  1.00  0.00    -0.314 OA 
ENDROOT
BRANCH   4  13
HETATM   13  C   UNL     1      -9.309  10.737  63.692  1.00  0.00    -0.273 C  
BRANCH  13  14
HETATM   14  S   UNL     1      -7.808  10.426  62.731  1.00  0.00    -0.127 SA 
BRANCH  14  15
HETATM   15  C   UNL     1      -7.688   8.716  62.660  1.00  0.00    -0.121 A  
HETATM   16  N   UNL     1      -8.617   7.852  62.333  1.00  0.00    -0.035 NA 
HETATM   17  C   UNL     1      -5.266   8.531  63.378  1.00  0.00    -0.062 C  
HETATM   18  N   UNL     1      -8.042   6.609  62.478  1.00  0.00    -0.102 NA 
HETATM   19  N   UNL     1      -6.781   6.717  62.876  1.00  0.00    -0.041 NA 
HETATM   20  N   UNL     1      -6.553   8.034  62.984  1.00  0.00    -0.083 NA 
ENDBRANCH  14  15
ENDBRANCH  13  14
ENDBRANCH   4  13
BRANCH  10  21
HETATM   21  N   UNL     1      -9.608   9.418  69.863  1.00  0.00    -0.196 N  
HETATM   22  C   UNL     1      -9.170   8.836  71.032  1.00  0.00    -0.222 C  
HETATM   23  O   UNL     1      -8.367   9.368  71.791  1.00  0.00    -0.191 OA 
HETATM   24  H   UNL     1     -10.242   8.878  69.274  1.00  0.00     0.000 HD 
BRANCH  22  25
HETATM   25  C   UNL     1      -9.821   7.458  71.286  1.00  0.00    -0.176 C  
HETATM   26  H   UNL     1     -10.446   6.432  72.849  1.00  0.00     0.000 HD 
HETATM   27  O   UNL     1     -10.047   7.279  72.693  1.00  0.00    -0.174 OA 
BRANCH  25  28
HETATM   28  C   UNL     1      -8.965   6.323  70.768  1.00  0.00    -0.144 A  
HETATM   29  C   UNL     1      -9.559   5.275  70.049  1.00  0.00    -0.238 A  
HETATM   30  C   UNL     1      -8.786   4.217  69.566  1.00  0.00    -0.124 A  
HETATM   31  C   UNL     1      -7.410   4.197  69.787  1.00  0.00    -0.049 A  
HETATM   32  C   UNL     1      -6.803   5.240  70.482  1.00  0.00    -0.051 A  
HETATM   33  C   UNL     1      -7.574   6.298  70.966  1.00  0.00    -0.090 A  
ENDBRANCH  25  28
ENDBRANCH  22  25
ENDBRANCH  10  21
TORSDOF 6
ENDMDL
MODEL      208
REMARK 921   NORMALIZED FREE ENERGY PREDICTED BY IDOCK:   -3.24 KCAL/MOL
REMARK 922        TOTAL FREE ENERGY PREDICTED BY IDOCK:   -5.42 KCAL/MOL
REMARK 923 INTER-LIGAND FREE ENERGY PREDICTED BY IDOCK:   -4.45 KCAL/MOL
REMARK 924 INTRA-LIGAND FREE ENERGY PREDICTED BY IDOCK:   -0.97 KCAL/MOL
REMARK 927      BINDING AFFINITY PREDICTED BY RF-SCORE:    0.00 PKD
ROOT
HETATM    1  C   UNL     1      -9.783   8.235  70.205  1.00  0.00    -0.175 C  
HETATM    2  S   UNL     1     -10.012   6.946  68.952  1.00  0.00    -0.162 SA 
HETATM    3  C   UNL     1      -9.510   5.622  70.072  1.00  0.00    -0.158 C  
HETATM    4  C   UNL     1      -8.211   5.883  70.825  1.00  0.00    -0.124 C  
HETATM    5  O   UNL     1      -5.979   8.490  72.111  1.00  0.00    -0.051 OA 
HETATM    6  CA  UNL     1      -7.685   7.130  71.023  1.00  0.00    -0.090 C  
HETATM    7  N   UNL     1      -8.393   8.232  70.627  1.00  0.00    -0.116 N  
HETATM    8  O   UNL     1      -7.194  10.215  70.676  1.00  0.00    -0.317 OA 
HETATM    9  C   UNL     1      -6.292   7.287  71.602  1.00  0.00    -0.036 C  
HETATM   10  CA  UNL     1      -9.539   9.677  69.645  1.00  0.00    -0.208 C  
HETATM   11  C   UNL     1      -8.167   9.549  70.401  1.00  0.00    -0.190 C  
HETATM   12  OXT UNL     1      -5.481   6.376  71.682  1.00  0.00    -0.026 OA 
ENDROOT
BRANCH   4  13
HETATM   13  C   UNL     1      -7.538   4.560  71.188  1.00  0.00    -0.071 C  
BRANCH  13  14
HETATM   14  S   UNL     1      -7.576   4.109  72.940  1.00  0.00    -0.081 SA 
BRANCH  14  15
HETATM   15  C   UNL     1      -9.160   4.517  73.457  1.00  0.00    -0.106 A  
HETATM   16  N   UNL     1      -9.557   5.608  74.065  1.00  0.00    -0.139 NA 
HETATM   17  C   UNL     1     -10.310   2.397  72.683  1.00  0.00    -0.156 C  
HETATM   18  N   UNL     1     -10.902   5.433  74.308  1.00  0.00    -0.210 NA 
HETATM   19  N   UNL     1     -11.316   4.261  73.848  1.00  0.00    -0.164 NA 
HETATM   20  N   UNL     1     -10.230   3.687  73.307  1.00  0.00    -0.141 NA 
ENDBRANCH  14  15
ENDBRANCH  13  14
ENDBRANCH   4  13
BRANCH  10  21
HETATM   21  N   UNL     1      -9.443   9.773  68.170  1.00  0.00    -0.135 N  
HETATM   22  C   UNL     1      -9.661  10.921  67.441  1.00  0.00    -0.168 C  
HETATM   23  O   UNL     1     -10.011  11.984  67.945  1.00  0.00    -0.187 OA 
HETATM   24  H   UNL     1      -9.198   8.926  67.657  1.00  0.00     0.000 HD 
BRANCH  22  25
HETATM   25  C   UNL     1      -9.392  10.725  65.933  1.00  0.00    -0.189 C  
HETATM   26  H   UNL     1      -9.893   9.421  64.543  1.00  0.00     0.000 HD 
HETATM   27  O   UNL     1     -10.059   9.542  65.470  1.00  0.00    -0.260 OA 
BRANCH  25  28
HETATM   28  C   UNL     1      -7.914  10.618  65.631  1.00  0.00    -0.136 A  
HETATM   29  C   UNL     1      -7.485   9.952  64.473  1.00  0.00    -0.140 A  
HETATM   30  C   UNL     1      -6.125   9.840  64.179  1.00  0.00    -0.114 A  
HETATM   31  C   UNL     1      -5.176  10.400  65.032  1.00  0.00    -0.122 A  
HETATM   32  C   UNL     1      -5.585  11.081  66.175  1.00  0.00    -0.147 A  
HETATM   33  C   UNL     1      -6.945  11.194  66.471  1.00  0.00    -0.126 A  
ENDBRANCH  25  28
ENDBRANCH  22  25
ENDBRANCH  10  21
TORSDOF 6
ENDMDL
MODEL      209
REMARK 921   NORMALIZED FREE ENERGY PREDICTED BY IDOCK:   -3.21 KCAL/MOL
REMARK 922        TOTAL FREE ENERGY PREDICTED BY IDOCK:   -5.38 KCAL/MOL
REMARK 923 INTER-LIGAND FREE ENERGY PREDICTED BY IDOCK:   -6.11 KCAL/MOL
REMARK 924 INTRA-LIGAND FREE ENERGY PREDICTED BY IDOCK:    0.73 KCAL/MOL
REMARK 927      BINDING AFFINITY PREDICTED BY RF-SCORE:    0.00 PKD
ROOT
HETATM    1  C   UNL     1      -9.641  12.149  66.577  1.00  0.00    -0.228 C  
HETATM    2  S   UNL     1      -8.328  13.163  67.307  1.00  0.00    -0.153 SA 
HETATM    3  C   UNL     1      -7.207  11.762  67.498  1.00  0.00    -0.123 C  
HETATM    4  C   UNL     1      -7.828  10.536  68.158  1.00  0.00    -0.109 C  
HETATM    5  O   UNL     1     -10.968   8.748  68.775  1.00  0.00    -0.048 OA 
HETATM    6  CA  UNL     1      -9.175  10.297  68.202  1.00  0.00    -0.136 C  
HETATM    7  N   UNL     1     -10.031  11.132  67.538  1.00  0.00    -0.180 N  
HETATM    8  O   UNL     1     -12.271  10.815  68.043  1.00  0.00    -0.297 OA 
HETATM    9  C   UNL     1      -9.721   9.164  69.051  1.00  0.00    -0.166 C  
HETATM   10  CA  UNL     1     -11.089  12.732  66.709  1.00  0.00    -0.277 C  
HETATM   11  C   UNL     1     -11.356  11.413  67.521  1.00  0.00    -0.292 C  
HETATM   12  OXT UNL     1      -9.074   8.584  69.910  1.00  0.00    -0.146 OA 
ENDROOT
BRANCH   4  13
HETATM   13  C   UNL     1      -6.750   9.715  68.862  1.00  0.00    -0.046 C  
BRANCH  13  14
HETATM   14  S   UNL     1      -6.439  10.139  70.594  1.00  0.00    -0.035 SA 
BRANCH  14  15
HETATM   15  C   UNL     1      -6.129   8.635  71.357  1.00  0.00    -0.050 A  
HETATM   16  N   UNL     1      -5.137   7.805  71.140  1.00  0.00    -0.026 NA 
HETATM   17  C   UNL     1      -8.139   8.632  72.899  1.00  0.00     0.083 C  
HETATM   18  N   UNL     1      -5.363   6.726  71.965  1.00  0.00    -0.035 NA 
HETATM   19  N   UNL     1      -6.467   6.900  72.678  1.00  0.00    -0.054 NA 
HETATM   20  N   UNL     1      -6.945   8.098  72.307  1.00  0.00    -0.083 NA 
ENDBRANCH  14  15
ENDBRANCH  13  14
ENDBRANCH   4  13
BRANCH  10  21
HETATM   21  N   UNL     1     -11.195  13.988  67.487  1.00  0.00    -0.298 N  
HETATM   22  C   UNL     1     -11.747  14.090  68.744  1.00  0.00    -0.353 C  
HETATM   23  O   UNL     1     -12.260  13.144  69.334  1.00  0.00    -0.251 OA 
HETATM   24  H   UNL     1     -10.832  14.840  67.059  1.00  0.00     0.000 HD 
BRANCH  22  25
HETATM   25  C   UNL     1     -11.624  15.513  69.332  1.00  0.00    -0.355 C  
HETATM   26  H   UNL     1     -10.168  16.778  69.738  1.00  0.00     0.000 HD 
HETATM   27  O   UNL     1     -10.243  15.903  69.377  1.00  0.00    -0.227 OA 
BRANCH  25  28
HETATM   28  C   UNL     1     -12.216  15.607  70.720  1.00  0.00    -0.463 A  
HETATM   29  C   UNL     1     -11.377  15.551  71.842  1.00  0.00    -0.456 A  
HETATM   30  C   UNL     1     -11.906  15.632  73.132  1.00  0.00    -0.540 A  
HETATM   31  C   UNL     1     -13.279  15.779  73.317  1.00  0.00    -0.687 A  
HETATM   32  C   UNL     1     -14.125  15.855  72.213  1.00  0.00    -0.278 A  
HETATM   33  C   UNL     1     -13.598  15.774  70.923  1.00  0.00     0.200 A  
ENDBRANCH  25  28
ENDBRANCH  22  25
ENDBRANCH  10  21
TORSDOF 6
ENDMDL
MODEL      210
REMARK 921   NORMALIZED FREE ENERGY PREDICTED BY IDOCK:   -3.02 KCAL/MOL
REMARK 922        TOTAL FREE ENERGY PREDICTED BY IDOCK:   -5.12 KCAL/MOL
REMARK 923 INTER-LIGAND FREE ENERGY PREDICTED BY IDOCK:   -5.50 KCAL/MOL
REMARK 924 INTRA-LIGAND FREE ENERGY PREDICTED BY IDOCK:    0.38 KCAL/MOL
REMARK 927      BINDING AFFINITY PREDICTED BY RF-SCORE:    0.00 PKD
ROOT
HETATM    1  C   UNL     1      -9.394   8.188  72.933  1.00  0.00    -0.273 C  
HETATM    2  S   UNL     1      -8.107   7.294  72.020  1.00  0.00    -0.095 SA 
HETATM    3  C   UNL     1      -7.661   8.735  71.030  1.00  0.00    -0.111 C  
HETATM    4  C   UNL     1      -8.840   9.457  70.389  1.00  0.00    -0.290 C  
HETATM    5  O   UNL     1     -12.430  10.142  70.669  1.00  0.00    -0.303 OA 
HETATM    6  CA  UNL     1     -10.128   9.357  70.839  1.00  0.00    -0.296 C  
HETATM    7  N   UNL     1     -10.389   8.661  71.987  1.00  0.00    -0.329 N  
HETATM    8  O   UNL     1     -12.639   8.261  72.380  1.00  0.00    -0.331 OA 
HETATM    9  C   UNL     1     -11.268   9.941  70.026  1.00  0.00    -0.276 C  
HETATM   10  CA  UNL     1     -10.514   7.292  73.561  1.00  0.00    -0.374 C  
HETATM   11  C   UNL     1     -11.460   8.119  72.618  1.00  0.00    -0.387 C  
HETATM   12  OXT UNL     1     -11.163  10.288  68.859  1.00  0.00    -0.236 OA 
ENDROOT
BRANCH   4  13
HETATM   13  C   UNL     1      -8.390  10.175  69.118  1.00  0.00    -0.154 C  
BRANCH  13  14
HETATM   14  S   UNL     1      -8.717   9.309  67.563  1.00  0.00    -0.114 SA 
BRANCH  14  15
HETATM   15  C   UNL     1      -8.415   7.658  67.916  1.00  0.00    -0.123 A  
HETATM   16  N   UNL     1      -9.285   6.714  68.180  1.00  0.00    -0.118 NA 
HETATM   17  C   UNL     1      -5.889   7.751  67.764  1.00  0.00    -0.040 C  
HETATM   18  N   UNL     1      -8.544   5.583  68.441  1.00  0.00    -0.100 NA 
HETATM   19  N   UNL     1      -7.246   5.833  68.330  1.00  0.00    -0.074 NA 
HETATM   20  N   UNL     1      -7.162   7.129  67.993  1.00  0.00    -0.088 NA 
ENDBRANCH  14  15
ENDBRANCH  13  14
ENDBRANCH   4  13
BRANCH  10  21
HETATM   21  N   UNL     1     -10.415   5.847  73.251  1.00  0.00    -0.220 N  
HETATM   22  C   UNL     1     -10.652   5.291  72.013  1.00  0.00    -0.216 C  
HETATM   23  O   UNL     1     -11.025   5.941  71.042  1.00  0.00    -0.277 OA 
HETATM   24  H   UNL     1     -10.150   5.218  74.009  1.00  0.00     0.000 HD 
BRANCH  22  25
HETATM   25  C   UNL     1     -10.373   3.772  71.984  1.00  0.00    -0.013 C  
HETATM   26  H   UNL     1     -10.198   2.318  73.303  1.00  0.00     0.000 HD 
HETATM   27  O   UNL     1     -10.370   3.252  73.322  1.00  0.00    -0.137 OA 
BRANCH  25  28
HETATM   28  C   UNL     1      -9.053   3.451  71.318  1.00  0.00    -0.175 A  
HETATM   29  C   UNL     1      -9.030   2.665  70.157  1.00  0.00    -0.165 A  
HETATM   30  C   UNL     1      -7.821   2.356  69.531  1.00  0.00    -0.050 A  
HETATM   31  C   UNL     1      -6.621   2.835  70.051  1.00  0.00    -0.033 A  
HETATM   32  C   UNL     1      -6.627   3.633  71.193  1.00  0.00    -0.030 A  
HETATM   33  C   UNL     1      -7.835   3.943  71.820  1.00  0.00    -0.070 A  
ENDBRANCH  25  28
ENDBRANCH  22  25
ENDBRANCH  10  21
TORSDOF 6
ENDMDL
MODEL      211
REMARK 921   NORMALIZED FREE ENERGY PREDICTED BY IDOCK:   -3.00 KCAL/MOL
REMARK 922        TOTAL FREE ENERGY PREDICTED BY IDOCK:   -5.09 KCAL/MOL
REMARK 923 INTER-LIGAND FREE ENERGY PREDICTED BY IDOCK:   -5.48 KCAL/MOL
REMARK 924 INTRA-LIGAND FREE ENERGY PREDICTED BY IDOCK:    0.39 KCAL/MOL
REMARK 927      BINDING AFFINITY PREDICTED BY RF-SCORE:    0.00 PKD
ROOT
HETATM    1  C   UNL     1      -6.160   8.345  67.459  1.00  0.00    -0.052 C  
HETATM    2  S   UNL     1      -6.240   9.060  69.122  1.00  0.00    -0.043 SA 
HETATM    3  C   UNL     1      -5.719   7.528  69.921  1.00  0.00    -0.023 C  
HETATM    4  C   UNL     1      -6.479   6.286  69.470  1.00  0.00    -0.039 C  
HETATM    5  O   UNL     1      -8.392   4.790  66.725  1.00  0.00    -0.107 OA 
HETATM    6  CA  UNL     1      -7.159   6.199  68.286  1.00  0.00    -0.082 C  
HETATM    7  N   UNL     1      -7.086   7.229  67.389  1.00  0.00    -0.085 N  
HETATM    8  O   UNL     1      -8.598   7.088  65.637  1.00  0.00    -0.151 OA 
HETATM    9  C   UNL     1      -8.055   5.007  68.006  1.00  0.00    -0.093 C  
HETATM   10  CA  UNL     1      -7.044   9.059  66.380  1.00  0.00    -0.080 C  
HETATM   11  C   UNL     1      -7.752   7.659  66.290  1.00  0.00    -0.089 C  
HETATM   12  OXT UNL     1      -8.423   4.216  68.863  1.00  0.00    -0.080 OA 
ENDROOT
BRANCH   4  13
HETATM   13  C   UNL     1      -6.478   5.237  70.580  1.00  0.00    -0.027 C  
BRANCH  13  14
HETATM   14  S   UNL     1      -7.901   5.270  71.699  1.00  0.00    -0.112 SA 
BRANCH  14  15
HETATM   15  C   UNL     1      -7.892   6.851  72.362  1.00  0.00    -0.096 A  
HETATM   16  N   UNL     1      -7.150   7.317  73.337  1.00  0.00    -0.072 NA 
HETATM   17  C   UNL     1      -9.703   7.831  70.886  1.00  0.00    -0.168 C  
HETATM   18  N   UNL     1      -7.553   8.620  73.526  1.00  0.00    -0.393 NA 
HETATM   19  N   UNL     1      -8.518   8.944  72.675  1.00  0.00    -0.317 NA 
HETATM   20  N   UNL     1      -8.727   7.841  71.939  1.00  0.00    -0.112 NA 
ENDBRANCH  14  15
ENDBRANCH  13  14
ENDBRANCH   4  13
BRANCH  10  21
HETATM   21  N   UNL     1      -7.888  10.165  66.887  1.00  0.00    -0.106 N  
HETATM   22  C   UNL     1      -9.213  10.355  66.564  1.00  0.00    -0.160 C  
HETATM   23  O   UNL     1      -9.822   9.644  65.770  1.00  0.00    -0.279 OA 
HETATM   24  H   UNL     1      -7.456  10.835  67.524  1.00  0.00     0.000 HD 
BRANCH  22  25
HETATM   25  C   UNL     1      -9.845  11.539  67.327  1.00  0.00    -0.190 C  
HETATM   26  H   UNL     1     -10.957  11.781  68.936  1.00  0.00     0.000 HD 
HETATM   27  O   UNL     1     -10.569  11.053  68.467  1.00  0.00    -0.171 OA 
BRANCH  25  28
HETATM   28  C   UNL     1     -10.776  12.347  66.450  1.00  0.00    -0.277 A  
HETATM   29  C   UNL     1     -11.475  13.435  66.992  1.00  0.00    -0.372 A  
HETATM   30  C   UNL     1     -12.342  14.190  66.198  1.00  0.00    -0.463 A  
HETATM   31  C   UNL     1     -12.514  13.873  64.853  1.00  0.00    -0.420 A  
HETATM   32  C   UNL     1     -11.813  12.807  64.295  1.00  0.00    -0.460 A  
HETATM   33  C   UNL     1     -10.947  12.051  65.086  1.00  0.00    -0.359 A  
ENDBRANCH  25  28
ENDBRANCH  22  25
ENDBRANCH  10  21
TORSDOF 6
ENDMDL
MODEL      212
REMARK 921   NORMALIZED FREE ENERGY PREDICTED BY IDOCK:   -2.99 KCAL/MOL
REMARK 922        TOTAL FREE ENERGY PREDICTED BY IDOCK:   -5.09 KCAL/MOL
REMARK 923 INTER-LIGAND FREE ENERGY PREDICTED BY IDOCK:   -5.42 KCAL/MOL
REMARK 924 INTRA-LIGAND FREE ENERGY PREDICTED BY IDOCK:    0.34 KCAL/MOL
REMARK 927      BINDING AFFINITY PREDICTED BY RF-SCORE:    0.00 PKD
ROOT
HETATM    1  C   UNL     1     -10.170   8.013  69.737  1.00  0.00    -0.206 C  
HETATM    2  S   UNL     1     -10.739   8.277  68.037  1.00  0.00     0.034 SA 
HETATM    3  C   UNL     1      -9.923   6.790  67.420  1.00  0.00    -0.148 C  
HETATM    4  C   UNL     1      -8.464   6.646  67.837  1.00  0.00    -0.119 C  
HETATM    5  O   UNL     1      -5.981   7.559  70.374  1.00  0.00    -0.027 OA 
HETATM    6  CA  UNL     1      -7.915   7.284  68.916  1.00  0.00    -0.123 C  
HETATM    7  N   UNL     1      -8.718   8.017  69.747  1.00  0.00    -0.135 N  
HETATM    8  O   UNL     1      -7.575   9.337  71.271  1.00  0.00    -0.306 OA 
HETATM    9  C   UNL     1      -6.416   7.249  69.142  1.00  0.00    -0.036 C  
HETATM   10  CA  UNL     1     -10.112   9.297  70.631  1.00  0.00    -0.276 C  
HETATM   11  C   UNL     1      -8.580   8.960  70.710  1.00  0.00    -0.199 C  
HETATM   12  OXT UNL     1      -5.608   6.898  68.294  1.00  0.00    -0.018 OA 
ENDROOT
BRANCH   4  13
HETATM   13  C   UNL     1      -7.702   5.813  66.808  1.00  0.00    -0.100 C  
BRANCH  13  14
HETATM   14  S   UNL     1      -8.603   5.418  65.289  1.00  0.00    -0.143 SA 
BRANCH  14  15
HETATM   15  C   UNL     1      -7.500   5.780  64.026  1.00  0.00    -0.069 A  
HETATM   16  N   UNL     1      -6.878   4.945  63.230  1.00  0.00    -0.037 NA 
HETATM   17  C   UNL     1      -7.526   8.300  64.286  1.00  0.00    -0.107 C  
HETATM   18  N   UNL     1      -6.073   5.722  62.427  1.00  0.00    -0.022 NA 
HETATM   19  N   UNL     1      -6.211   7.008  62.724  1.00  0.00    -0.047 NA 
HETATM   20  N   UNL     1      -7.110   7.049  63.719  1.00  0.00    -0.057 NA 
ENDBRANCH  14  15
ENDBRANCH  13  14
ENDBRANCH   4  13
BRANCH  10  21
HETATM   21  N   UNL     1     -10.449  10.563  69.940  1.00  0.00    -0.418 N  
HETATM   22  C   UNL     1      -9.611  11.233  69.075  1.00  0.00    -0.030 C  
HETATM   23  O   UNL     1      -8.466  10.868  68.828  1.00  0.00    -0.142 OA 
HETATM   24  H   UNL     1     -11.368  10.968  70.116  1.00  0.00     0.000 HD 
BRANCH  22  25
HETATM   25  C   UNL     1     -10.283  12.470  68.439  1.00  0.00    -0.228 C  
HETATM   26  H   UNL     1     -11.844  13.611  68.821  1.00  0.00     0.000 HD 
HETATM   27  O   UNL     1     -11.431  12.850  69.212  1.00  0.00    -0.268 OA 
BRANCH  25  28
HETATM   28  C   UNL     1     -10.704  12.214  67.009  1.00  0.00    -0.272 A  
HETATM   29  C   UNL     1      -9.960  11.334  66.210  1.00  0.00    -0.260 A  
HETATM   30  C   UNL     1     -10.331  11.088  64.886  1.00  0.00    -0.378 A  
HETATM   31  C   UNL     1     -11.454  11.712  64.347  1.00  0.00    -0.302 A  
HETATM   32  C   UNL     1     -12.215  12.574  65.133  1.00  0.00    -0.509 A  
HETATM   33  C   UNL     1     -11.845  12.821  66.456  1.00  0.00    -0.471 A  
ENDBRANCH  25  28
ENDBRANCH  22  25
ENDBRANCH  10  21
TORSDOF 6
ENDMDL
MODEL      213
REMARK 921   NORMALIZED FREE ENERGY PREDICTED BY IDOCK:   -2.98 KCAL/MOL
REMARK 922        TOTAL FREE ENERGY PREDICTED BY IDOCK:   -5.07 KCAL/MOL
REMARK 923 INTER-LIGAND FREE ENERGY PREDICTED BY IDOCK:   -4.15 KCAL/MOL
REMARK 924 INTRA-LIGAND FREE ENERGY PREDICTED BY IDOCK:   -0.92 KCAL/MOL
REMARK 927      BINDING AFFINITY PREDICTED BY RF-SCORE:    0.00 PKD
ROOT
HETATM    1  C   UNL     1      -9.415   7.880  70.379  1.00  0.00    -0.163 C  
HETATM    2  S   UNL     1      -9.298   6.390  69.353  1.00  0.00    -0.141 SA 
HETATM    3  C   UNL     1      -8.915   5.325  70.759  1.00  0.00    -0.136 C  
HETATM    4  C   UNL     1      -7.807   5.844  71.668  1.00  0.00    -0.106 C  
HETATM    5  O   UNL     1      -6.076   8.854  72.842  1.00  0.00    -0.181 OA 
HETATM    6  CA  UNL     1      -7.430   7.158  71.732  1.00  0.00    -0.086 C  
HETATM    7  N   UNL     1      -8.135   8.097  71.030  1.00  0.00    -0.094 N  
HETATM    8  O   UNL     1      -7.129  10.183  70.936  1.00  0.00    -0.325 OA 
HETATM    9  C   UNL     1      -6.189   7.558  72.506  1.00  0.00    -0.047 C  
HETATM   10  CA  UNL     1      -9.184   9.232  69.624  1.00  0.00    -0.175 C  
HETATM   11  C   UNL     1      -7.976   9.378  70.618  1.00  0.00    -0.158 C  
HETATM   12  OXT UNL     1      -5.339   6.767  72.886  1.00  0.00    -0.036 OA 
ENDROOT
BRANCH   4  13
HETATM   13  C   UNL     1      -7.113   4.679  72.370  1.00  0.00    -0.074 C  
BRANCH  13  14
HETATM   14  S   UNL     1      -7.628   4.364  74.076  1.00  0.00    -0.085 SA 
BRANCH  14  15
HETATM   15  C   UNL     1      -9.314   4.067  73.970  1.00  0.00    -0.098 A  
HETATM   16  N   UNL     1      -9.923   2.933  73.723  1.00  0.00    -0.101 NA 
HETATM   17  C   UNL     1     -10.089   6.438  74.413  1.00  0.00    -0.348 C  
HETATM   18  N   UNL     1     -11.268   3.227  73.696  1.00  0.00    -0.222 NA 
HETATM   19  N   UNL     1     -11.473   4.516  73.930  1.00  0.00    -0.139 NA 
HETATM   20  N   UNL     1     -10.253   5.044  74.111  1.00  0.00    -0.221 NA 
ENDBRANCH  14  15
ENDBRANCH  13  14
ENDBRANCH   4  13
BRANCH  10  21
HETATM   21  N   UNL     1      -8.818   9.102  68.195  1.00  0.00    -0.129 N  
HETATM   22  C   UNL     1      -9.299   9.905  67.184  1.00  0.00    -0.146 C  
HETATM   23  O   UNL     1     -10.130  10.790  67.363  1.00  0.00    -0.182 OA 
HETATM   24  H   UNL     1      -8.162   8.364  67.941  1.00  0.00     0.000 HD 
BRANCH  22  25
HETATM   25  C   UNL     1      -8.657   9.583  65.817  1.00  0.00    -0.138 C  
HETATM   26  H   UNL     1      -9.264   9.419  63.949  1.00  0.00     0.000 HD 
HETATM   27  O   UNL     1      -9.659   9.617  64.789  1.00  0.00    -0.265 OA 
BRANCH  25  28
HETATM   28  C   UNL     1      -7.980   8.231  65.813  1.00  0.00    -0.099 A  
HETATM   29  C   UNL     1      -8.689   7.097  65.390  1.00  0.00     0.015 A  
HETATM   30  C   UNL     1      -8.082   5.840  65.383  1.00  0.00    -0.131 A  
HETATM   31  C   UNL     1      -6.757   5.700  65.789  1.00  0.00    -0.055 A  
HETATM   32  C   UNL     1      -6.032   6.819  66.193  1.00  0.00    -0.034 A  
HETATM   33  C   UNL     1      -6.638   8.077  66.202  1.00  0.00    -0.047 A  
ENDBRANCH  25  28
ENDBRANCH  22  25
ENDBRANCH  10  21
TORSDOF 6
ENDMDL
MODEL      214
REMARK 921   NORMALIZED FREE ENERGY PREDICTED BY IDOCK:   -2.94 KCAL/MOL
REMARK 922        TOTAL FREE ENERGY PREDICTED BY IDOCK:   -5.01 KCAL/MOL
REMARK 923 INTER-LIGAND FREE ENERGY PREDICTED BY IDOCK:   -4.40 KCAL/MOL
REMARK 924 INTRA-LIGAND FREE ENERGY PREDICTED BY IDOCK:   -0.61 KCAL/MOL
REMARK 927      BINDING AFFINITY PREDICTED BY RF-SCORE:    0.00 PKD
ROOT
HETATM    1  C   UNL     1     -11.059   6.616  69.416  1.00  0.00    -0.310 C  
HETATM    2  S   UNL     1     -10.607   6.700  67.663  1.00  0.00    -0.303 SA 
HETATM    3  C   UNL     1     -10.483   4.907  67.500  1.00  0.00     0.031 C  
HETATM    4  C   UNL     1      -9.652   4.225  68.581  1.00  0.00    -0.210 C  
HETATM    5  O   UNL     1      -8.449   4.493  72.032  1.00  0.00    -0.109 OA 
HETATM    6  CA  UNL     1      -9.392   4.782  69.803  1.00  0.00    -0.141 C  
HETATM    7  N   UNL     1      -9.980   5.969  70.143  1.00  0.00    -0.172 N  
HETATM    8  O   UNL     1      -9.127   6.952  72.061  1.00  0.00    -0.138 OA 
HETATM    9  C   UNL     1      -8.392   4.132  70.740  1.00  0.00    -0.071 C  
HETATM   10  CA  UNL     1     -10.756   7.907  70.249  1.00  0.00    -0.236 C  
HETATM   11  C   UNL     1      -9.821   6.946  71.068  1.00  0.00    -0.178 C  
HETATM   12  OXT UNL     1      -7.599   3.268  70.396  1.00  0.00    -0.043 OA 
ENDROOT
BRANCH   4  13
HETATM   13  C   UNL     1      -9.058   2.924  68.045  1.00  0.00    -0.179 C  
BRANCH  13  14
HETATM   14  S   UNL     1      -7.686   3.103  66.878  1.00  0.00    -0.076 SA 
BRANCH  14  15
HETATM   15  C   UNL     1      -8.442   3.352  65.359  1.00  0.00    -0.104 A  
HETATM   16  N   UNL     1      -9.506   2.757  64.876  1.00  0.00    -0.140 NA 
HETATM   17  C   UNL     1      -6.852   5.122  64.491  1.00  0.00    -0.048 C  
HETATM   18  N   UNL     1      -9.680   3.268  63.609  1.00  0.00    -0.125 NA 
HETATM   19  N   UNL     1      -8.742   4.164  63.330  1.00  0.00    -0.106 NA 
HETATM   20  N   UNL     1      -7.971   4.225  64.425  1.00  0.00    -0.085 NA 
ENDBRANCH  14  15
ENDBRANCH  13  14
ENDBRANCH   4  13
BRANCH  10  21
HETATM   21  N   UNL     1     -10.064   8.987  69.508  1.00  0.00    -0.191 N  
HETATM   22  C   UNL     1      -8.977   9.691  69.978  1.00  0.00    -0.237 C  
HETATM   23  O   UNL     1      -8.499   9.525  71.096  1.00  0.00    -0.278 OA 
HETATM   24  H   UNL     1     -10.418   9.227  68.582  1.00  0.00     0.000 HD 
BRANCH  22  25
HETATM   25  C   UNL     1      -8.421  10.686  68.936  1.00  0.00    -0.154 C  
HETATM   26  H   UNL     1      -9.014  12.367  68.097  1.00  0.00     0.000 HD 
HETATM   27  O   UNL     1      -9.356  11.756  68.737  1.00  0.00    -0.130 OA 
BRANCH  25  28
HETATM   28  C   UNL     1      -8.135  10.017  67.610  1.00  0.00    -0.110 A  
HETATM   29  C   UNL     1      -8.851  10.401  66.467  1.00  0.00    -0.150 A  
HETATM   30  C   UNL     1      -8.604   9.792  65.234  1.00  0.00    -0.168 A  
HETATM   31  C   UNL     1      -7.633   8.799  65.127  1.00  0.00    -0.096 A  
HETATM   32  C   UNL     1      -6.900   8.419  66.248  1.00  0.00    -0.073 A  
HETATM   33  C   UNL     1      -7.146   9.026  67.481  1.00  0.00    -0.076 A  
ENDBRANCH  25  28
ENDBRANCH  22  25
ENDBRANCH  10  21
TORSDOF 6
ENDMDL
MODEL      215
REMARK 921   NORMALIZED FREE ENERGY PREDICTED BY IDOCK:   -2.82 KCAL/MOL
REMARK 922        TOTAL FREE ENERGY PREDICTED BY IDOCK:   -4.84 KCAL/MOL
REMARK 923 INTER-LIGAND FREE ENERGY PREDICTED BY IDOCK:   -5.26 KCAL/MOL
REMARK 924 INTRA-LIGAND FREE ENERGY PREDICTED BY IDOCK:    0.41 KCAL/MOL
REMARK 927      BINDING AFFINITY PREDICTED BY RF-SCORE:    0.00 PKD
ROOT
HETATM    1  C   UNL     1      -6.688  11.931  68.110  1.00  0.00    -0.062 C  
HETATM    2  S   UNL     1      -8.203  12.560  67.339  1.00  0.00    -0.190 SA 
HETATM    3  C   UNL     1      -7.554  14.237  67.186  1.00  0.00     0.032 C  
HETATM    4  C   UNL     1      -6.928  14.796  68.458  1.00  0.00    -0.108 C  
HETATM    5  O   UNL     1      -5.279  13.913  71.610  1.00  0.00    -0.153 OA 
HETATM    6  CA  UNL     1      -6.469  14.017  69.485  1.00  0.00    -0.122 C  
HETATM    7  N   UNL     1      -6.462  12.656  69.348  1.00  0.00    -0.113 N  
HETATM    8  O   UNL     1      -6.031  11.494  71.307  1.00  0.00    -0.332 OA 
HETATM    9  C   UNL     1      -6.050  14.653  70.797  1.00  0.00    -0.115 C  
HETATM   10  CA  UNL     1      -6.865  10.639  68.978  1.00  0.00    -0.071 C  
HETATM   11  C   UNL     1      -6.350  11.563  70.140  1.00  0.00    -0.078 C  
HETATM   12  OXT UNL     1      -6.321  15.802  71.113  1.00  0.00     0.654 OA 
ENDROOT
BRANCH   4  13
HETATM   13  C   UNL     1      -7.023  16.321  68.465  1.00  0.00    -0.143 C  
BRANCH  13  14
HETATM   14  S   UNL     1      -5.712  17.198  67.579  1.00  0.00    -0.146 SA 
BRANCH  14  15
HETATM   15  C   UNL     1      -6.535  18.391  66.662  1.00  0.00    -0.188 A  
HETATM   16  N   UNL     1      -6.554  18.541  65.359  1.00  0.00    -0.452 NA 
HETATM   17  C   UNL     1      -7.576  19.635  68.607  1.00  0.00    -0.331 C  
HETATM   18  N   UNL     1      -7.312  19.666  65.122  1.00  0.00    -0.307 NA 
HETATM   19  N   UNL     1      -7.753  20.186  66.260  1.00  0.00    -0.284 NA 
HETATM   20  N   UNL     1      -7.275  19.386  67.225  1.00  0.00    -0.208 NA 
ENDBRANCH  14  15
ENDBRANCH  13  14
ENDBRANCH   4  13
BRANCH  10  21
HETATM   21  N   UNL     1      -8.259  10.160  69.118  1.00  0.00    -0.133 N  
HETATM   22  C   UNL     1      -8.837   9.756  70.302  1.00  0.00    -0.142 C  
HETATM   23  O   UNL     1      -8.227   9.705  71.365  1.00  0.00    -0.124 OA 
HETATM   24  H   UNL     1      -8.834  10.127  68.276  1.00  0.00     0.000 HD 
BRANCH  22  25
HETATM   25  C   UNL     1     -10.332   9.404  70.141  1.00  0.00    -0.233 C  
HETATM   26  H   UNL     1     -11.769   8.689  71.285  1.00  0.00     0.000 HD 
HETATM   27  O   UNL     1     -10.850   8.906  71.384  1.00  0.00    -0.256 OA 
BRANCH  25  28
HETATM   28  C   UNL     1     -10.558   8.375  69.056  1.00  0.00    -0.172 A  
HETATM   29  C   UNL     1     -11.005   7.090  69.395  1.00  0.00    -0.232 A  
HETATM   30  C   UNL     1     -11.216   6.126  68.407  1.00  0.00    -0.215 A  
HETATM   31  C   UNL     1     -10.991   6.436  67.067  1.00  0.00    -0.463 A  
HETATM   32  C   UNL     1     -10.566   7.714  66.711  1.00  0.00    -0.256 A  
HETATM   33  C   UNL     1     -10.354   8.679  67.698  1.00  0.00    -0.317 A  
ENDBRANCH  25  28
ENDBRANCH  22  25
ENDBRANCH  10  21
TORSDOF 6
ENDMDL
MODEL      216
REMARK 921   NORMALIZED FREE ENERGY PREDICTED BY IDOCK:   -2.78 KCAL/MOL
REMARK 922        TOTAL FREE ENERGY PREDICTED BY IDOCK:   -4.79 KCAL/MOL
REMARK 923 INTER-LIGAND FREE ENERGY PREDICTED BY IDOCK:   -4.60 KCAL/MOL
REMARK 924 INTRA-LIGAND FREE ENERGY PREDICTED BY IDOCK:   -0.19 KCAL/MOL
REMARK 927      BINDING AFFINITY PREDICTED BY RF-SCORE:    0.00 PKD
ROOT
HETATM    1  C   UNL     1      -9.152  12.768  68.969  1.00  0.00     0.516 C  
HETATM    2  S   UNL     1      -8.294  13.869  67.811  1.00  0.00    -0.191 SA 
HETATM    3  C   UNL     1      -8.562  15.329  68.837  1.00  0.00    -0.207 C  
HETATM    4  C   UNL     1      -9.997  15.517  69.315  1.00  0.00    -0.264 C  
HETATM    5  O   UNL     1     -13.136  13.789  70.085  1.00  0.00     0.035 OA 
HETATM    6  CA  UNL     1     -10.915  14.504  69.381  1.00  0.00    -0.249 C  
HETATM    7  N   UNL     1     -10.525  13.222  69.109  1.00  0.00    -0.006 N  
HETATM    8  O   UNL     1     -12.270  11.713  68.882  1.00  0.00    -0.377 OA 
HETATM    9  C   UNL     1     -12.371  14.812  69.671  1.00  0.00    -0.215 C  
HETATM   10  CA  UNL     1      -9.722  11.451  68.342  1.00  0.00    -0.203 C  
HETATM   11  C   UNL     1     -11.103  12.031  68.817  1.00  0.00    -0.249 C  
HETATM   12  OXT UNL     1     -12.856  15.933  69.610  1.00  0.00     0.003 OA 
ENDROOT
BRANCH   4  13
HETATM   13  C   UNL     1     -10.279  16.997  69.565  1.00  0.00    -0.106 C  
BRANCH  13  14
HETATM   14  S   UNL     1     -10.461  18.028  68.089  1.00  0.00    -0.323 SA 
BRANCH  14  15
HETATM   15  C   UNL     1     -10.433  16.918  66.782  1.00  0.00    -0.260 A  
HETATM   16  N   UNL     1     -11.391  16.121  66.375  1.00  0.00     0.234 NA 
HETATM   17  C   UNL     1      -8.055  17.360  66.031  1.00  0.00    -0.144 C  
HETATM   18  N   UNL     1     -10.861  15.400  65.329  1.00  0.00    -0.384 NA 
HETATM   19  N   UNL     1      -9.606  15.759  65.097  1.00  0.00    -0.198 NA 
HETATM   20  N   UNL     1      -9.336  16.714  65.999  1.00  0.00    -0.452 NA 
ENDBRANCH  14  15
ENDBRANCH  13  14
ENDBRANCH   4  13
BRANCH  10  21
HETATM   21  N   UNL     1      -9.557  11.327  66.876  1.00  0.00    -0.188 N  
HETATM   22  C   UNL     1      -8.409  10.895  66.248  1.00  0.00    -0.164 C  
HETATM   23  O   UNL     1      -7.377  10.615  66.849  1.00  0.00    -0.103 OA 
HETATM   24  H   UNL     1     -10.351  11.579  66.288  1.00  0.00     0.000 HD 
BRANCH  22  25
HETATM   25  C   UNL     1      -8.579  10.782  64.717  1.00  0.00    -0.075 C  
HETATM   26  H   UNL     1     -10.015  11.098  63.404  1.00  0.00     0.000 HD 
HETATM   27  O   UNL     1      -9.911  11.168  64.346  1.00  0.00    -0.244 OA 
BRANCH  25  28
HETATM   28  C   UNL     1      -8.305   9.381  64.219  1.00  0.00    -0.176 A  
HETATM   29  C   UNL     1      -8.380   8.298  65.107  1.00  0.00    -0.167 A  
HETATM   30  C   UNL     1      -8.127   6.997  64.666  1.00  0.00    -0.083 A  
HETATM   31  C   UNL     1      -7.806   6.761  63.331  1.00  0.00    -0.107 A  
HETATM   32  C   UNL     1      -7.746   7.823  62.432  1.00  0.00    -0.115 A  
HETATM   33  C   UNL     1      -7.998   9.124  62.871  1.00  0.00    -0.142 A  
ENDBRANCH  25  28
ENDBRANCH  22  25
ENDBRANCH  10  21
TORSDOF 6
ENDMDL
MODEL      217
REMARK 921   NORMALIZED FREE ENERGY PREDICTED BY IDOCK:   -2.58 KCAL/MOL
REMARK 922        TOTAL FREE ENERGY PREDICTED BY IDOCK:   -4.52 KCAL/MOL
REMARK 923 INTER-LIGAND FREE ENERGY PREDICTED BY IDOCK:   -5.16 KCAL/MOL
REMARK 924 INTRA-LIGAND FREE ENERGY PREDICTED BY IDOCK:    0.63 KCAL/MOL
REMARK 927      BINDING AFFINITY PREDICTED BY RF-SCORE:    0.00 PKD
ROOT
HETATM    1  C   UNL     1      -8.801   9.621  65.624  1.00  0.00    -0.159 C  
HETATM    2  S   UNL     1     -10.504   9.783  66.223  1.00  0.00    -0.014 SA 
HETATM    3  C   UNL     1     -10.572  11.551  65.869  1.00  0.00    -0.268 C  
HETATM    4  C   UNL     1      -9.385  12.351  66.394  1.00  0.00    -0.219 C  
HETATM    5  O   UNL     1      -5.849  12.171  67.340  1.00  0.00    -0.107 OA 
HETATM    6  CA  UNL     1      -8.170  11.799  66.695  1.00  0.00    -0.117 C  
HETATM    7  N   UNL     1      -7.944  10.477  66.424  1.00  0.00    -0.131 N  
HETATM    8  O   UNL     1      -5.999   9.624  67.353  1.00  0.00    -0.048 OA 
HETATM    9  C   UNL     1      -7.111  12.624  67.402  1.00  0.00    -0.138 C  
HETATM   10  CA  UNL     1      -8.003   8.401  66.196  1.00  0.00    -0.100 C  
HETATM   11  C   UNL     1      -7.053   9.515  66.766  1.00  0.00    -0.086 C  
HETATM   12  OXT UNL     1      -7.337  13.689  67.957  1.00  0.00    -0.100 OA 
ENDROOT
BRANCH   4  13
HETATM   13  C   UNL     1      -9.800  13.798  66.655  1.00  0.00    -0.284 C  
BRANCH  13  14
HETATM   14  S   UNL     1      -9.872  14.298  68.393  1.00  0.00    -0.234 SA 
BRANCH  14  15
HETATM   15  C   UNL     1     -10.830  13.093  69.150  1.00  0.00    -0.094 A  
HETATM   16  N   UNL     1     -10.674  11.792  69.111  1.00  0.00    -0.172 NA 
HETATM   17  C   UNL     1     -12.504  14.648  70.243  1.00  0.00    -0.346 C  
HETATM   18  N   UNL     1     -11.723  11.267  69.833  1.00  0.00    -0.322 NA 
HETATM   19  N   UNL     1     -12.498  12.232  70.309  1.00  0.00    -0.147 NA 
HETATM   20  N   UNL     1     -11.937  13.377  69.891  1.00  0.00    -0.334 NA 
ENDBRANCH  14  15
ENDBRANCH  13  14
ENDBRANCH   4  13
BRANCH  10  21
HETATM   21  N   UNL     1      -8.721   7.598  67.212  1.00  0.00    -0.124 N  
HETATM   22  C   UNL     1      -8.122   6.719  68.087  1.00  0.00    -0.115 C  
HETATM   23  O   UNL     1      -6.920   6.472  68.077  1.00  0.00    -0.071 OA 
HETATM   24  H   UNL     1      -9.734   7.704  67.268  1.00  0.00     0.000 HD 
BRANCH  22  25
HETATM   25  C   UNL     1      -9.124   6.106  69.089  1.00  0.00    -0.128 C  
HETATM   26  H   UNL     1      -9.330   6.026  71.048  1.00  0.00     0.000 HD 
HETATM   27  O   UNL     1      -8.713   6.404  70.432  1.00  0.00    -0.143 OA 
BRANCH  25  28
HETATM   28  C   UNL     1      -9.246   4.607  68.923  1.00  0.00    -0.181 A  
HETATM   29  C   UNL     1      -9.408   3.791  70.052  1.00  0.00    -0.250 A  
HETATM   30  C   UNL     1      -9.519   2.406  69.919  1.00  0.00    -0.127 A  
HETATM   31  C   UNL     1      -9.477   1.819  68.656  1.00  0.00    -0.218 A  
HETATM   32  C   UNL     1      -9.336   2.616  67.523  1.00  0.00    -0.188 A  
HETATM   33  C   UNL     1      -9.225   4.002  67.654  1.00  0.00    -0.193 A  
ENDBRANCH  25  28
ENDBRANCH  22  25
ENDBRANCH  10  21
TORSDOF 6
ENDMDL
MODEL      218
REMARK 921   NORMALIZED FREE ENERGY PREDICTED BY IDOCK:   -2.56 KCAL/MOL
REMARK 922        TOTAL FREE ENERGY PREDICTED BY IDOCK:   -4.50 KCAL/MOL
REMARK 923 INTER-LIGAND FREE ENERGY PREDICTED BY IDOCK:   -5.64 KCAL/MOL
REMARK 924 INTRA-LIGAND FREE ENERGY PREDICTED BY IDOCK:    1.14 KCAL/MOL
REMARK 927      BINDING AFFINITY PREDICTED BY RF-SCORE:    0.00 PKD
ROOT
HETATM    1  C   UNL     1      -7.378  11.716  66.827  1.00  0.00    -0.083 C  
HETATM    2  S   UNL     1      -9.161  12.043  66.832  1.00  0.00    -0.200 SA 
HETATM    3  C   UNL     1      -8.942  13.810  67.127  1.00  0.00    -0.235 C  
HETATM    4  C   UNL     1      -7.991  14.152  68.268  1.00  0.00    -0.140 C  
HETATM    5  O   UNL     1      -5.127  12.966  70.223  1.00  0.00    -0.086 OA 
HETATM    6  CA  UNL     1      -7.038  13.295  68.746  1.00  0.00    -0.100 C  
HETATM    7  N   UNL     1      -6.832  12.097  68.118  1.00  0.00    -0.069 N  
HETATM    8  O   UNL     1      -5.477  10.620  69.283  1.00  0.00    -0.038 OA 
HETATM    9  C   UNL     1      -6.273  13.633  70.011  1.00  0.00    -0.109 C  
HETATM   10  CA  UNL     1      -6.967  10.242  67.165  1.00  0.00    -0.088 C  
HETATM   11  C   UNL     1      -6.226  10.913  68.377  1.00  0.00    -0.046 C  
HETATM   12  OXT UNL     1      -6.609  14.508  70.796  1.00  0.00    -0.062 OA 
ENDROOT
BRANCH   4  13
HETATM   13  C   UNL     1      -8.356  15.509  68.868  1.00  0.00    -0.205 C  
BRANCH  13  14
HETATM   14  S   UNL     1      -7.693  16.957  68.009  1.00  0.00    -0.183 SA 
BRANCH  14  15
HETATM   15  C   UNL     1      -9.051  17.976  67.769  1.00  0.00    -0.262 A  
HETATM   16  N   UNL     1     -10.115  17.749  67.039  1.00  0.00    -0.323 NA 
HETATM   17  C   UNL     1      -8.269  19.904  69.214  1.00  0.00     0.196 C  
HETATM   18  N   UNL     1     -10.886  18.886  67.135  1.00  0.00    -0.420 NA 
HETATM   19  N   UNL     1     -10.305  19.785  67.917  1.00  0.00    -0.433 NA 
HETATM   20  N   UNL     1      -9.159  19.216  68.323  1.00  0.00    -0.325 NA 
ENDBRANCH  14  15
ENDBRANCH  13  14
ENDBRANCH   4  13
BRANCH  10  21
HETATM   21  N   UNL     1      -8.086   9.342  67.524  1.00  0.00    -0.109 N  
HETATM   22  C   UNL     1      -8.358   8.896  68.799  1.00  0.00    -0.123 C  
HETATM   23  O   UNL     1      -7.658   9.165  69.770  1.00  0.00    -0.068 OA 
HETATM   24  H   UNL     1      -8.701   9.029  66.773  1.00  0.00     0.000 HD 
BRANCH  22  25
HETATM   25  C   UNL     1      -9.647   8.049  68.868  1.00  0.00    -0.152 C  
HETATM   26  H   UNL     1     -11.436   8.086  68.041  1.00  0.00     0.000 HD 
HETATM   27  O   UNL     1     -10.643   8.608  67.998  1.00  0.00    -0.212 OA 
BRANCH  25  28
HETATM   28  C   UNL     1     -10.197   7.967  70.274  1.00  0.00    -0.200 A  
HETATM   29  C   UNL     1      -9.630   8.748  71.291  1.00  0.00    -0.323 A  
HETATM   30  C   UNL     1     -10.122   8.683  72.597  1.00  0.00    -0.150 A  
HETATM   31  C   UNL     1     -11.193   7.845  72.900  1.00  0.00    -0.429 A  
HETATM   32  C   UNL     1     -11.781   7.077  71.897  1.00  0.00    -0.333 A  
HETATM   33  C   UNL     1     -11.289   7.140  70.592  1.00  0.00    -0.327 A  
ENDBRANCH  25  28
ENDBRANCH  22  25
ENDBRANCH  10  21
TORSDOF 6
ENDMDL
MODEL      219
REMARK 921   NORMALIZED FREE ENERGY PREDICTED BY IDOCK:    0.06 KCAL/MOL
REMARK 922        TOTAL FREE ENERGY PREDICTED BY IDOCK:   -0.96 KCAL/MOL
REMARK 923 INTER-LIGAND FREE ENERGY PREDICTED BY IDOCK:   -0.06 KCAL/MOL
REMARK 924 INTRA-LIGAND FREE ENERGY PREDICTED BY IDOCK:   -0.90 KCAL/MOL
REMARK 927      BINDING AFFINITY PREDICTED BY RF-SCORE:    0.00 PKD
ROOT
HETATM    1  C   UNL     1     -11.623  16.238  68.784  1.00  0.00    -0.223 C  
HETATM    2  S   UNL     1     -10.536  16.427  70.222  1.00  0.00     0.264 SA 
HETATM    3  C   UNL     1     -10.729  18.221  70.264  1.00  0.00     1.953 C  
HETATM    4  C   UNL     1     -10.526  18.915  68.922  1.00  0.00     0.051 C  
HETATM    5  O   UNL     1     -10.687  18.485  65.286  1.00  0.00    -0.578 OA 
HETATM    6  CA  UNL     1     -10.638  18.281  67.715  1.00  0.00    -0.393 C  
HETATM    7  N   UNL     1     -11.055  16.979  67.672  1.00  0.00    -0.151 N  
HETATM    8  O   UNL     1     -10.807  15.957  65.606  1.00  0.00    -0.329 OA 
HETATM    9  C   UNL     1     -10.222  18.990  66.440  1.00  0.00    -0.437 C  
HETATM   10  CA  UNL     1     -11.400  14.936  67.942  1.00  0.00    -0.327 C  
HETATM   11  C   UNL     1     -11.061  15.950  66.791  1.00  0.00    -0.064 C  
HETATM   12  OXT UNL     1      -9.552  20.012  66.417  1.00  0.00    -0.394 OA 
ENDROOT
BRANCH   4  13
HETATM   13  C   UNL     1     -10.053  20.351  69.139  1.00  0.00     0.175 C  
BRANCH  13  14
HETATM   14  S   UNL     1      -8.580  20.551  70.171  1.00  0.00     2.338 SA 
BRANCH  14  15
HETATM   15  C   UNL     1      -7.299  19.916  69.223  1.00  0.00    -0.156 A  
HETATM   16  N   UNL     1      -7.277  19.704  67.930  1.00  0.00    -0.265 NA 
HETATM   17  C   UNL     1      -5.643  19.568  71.107  1.00  0.00    -0.240 C  
HETATM   18  N   UNL     1      -6.048  19.142  67.663  1.00  0.00    -0.205 NA 
HETATM   19  N   UNL     1      -5.333  19.024  68.773  1.00  0.00    -0.195 NA 
HETATM   20  N   UNL     1      -6.109  19.515  69.751  1.00  0.00    -0.276 NA 
ENDBRANCH  14  15
ENDBRANCH  13  14
ENDBRANCH   4  13
BRANCH  10  21
HETATM   21  N   UNL     1     -10.275  14.082  68.387  1.00  0.00    -0.234 N  
HETATM   22  C   UNL     1      -9.629  13.157  67.597  1.00  0.00    -0.210 C  
HETATM   23  O   UNL     1      -9.962  12.908  66.443  1.00  0.00    -0.255 OA 
HETATM   24  H   UNL     1      -9.954  14.188  69.350  1.00  0.00     0.000 HD 
BRANCH  22  25
HETATM   25  C   UNL     1      -8.435  12.493  68.318  1.00  0.00    -0.165 C  
HETATM   26  H   UNL     1      -8.174  11.301  69.866  1.00  0.00     0.000 HD 
HETATM   27  O   UNL     1      -8.908  11.709  69.423  1.00  0.00     0.391 OA 
BRANCH  25  28
HETATM   28  C   UNL     1      -7.437  13.514  68.818  1.00  0.00    -0.071 A  
HETATM   29  C   UNL     1      -7.047  14.574  67.987  1.00  0.00    -0.147 A  
HETATM   30  C   UNL     1      -6.124  15.524  68.431  1.00  0.00    -0.105 A  
HETATM   31  C   UNL     1      -5.587  15.431  69.713  1.00  0.00    -0.117 A  
HETATM   32  C   UNL     1      -5.978  14.396  70.558  1.00  0.00    -0.180 A  
HETATM   33  C   UNL     1      -6.900  13.445  70.116  1.00  0.00     0.485 A  
ENDBRANCH  25  28
ENDBRANCH  22  25
ENDBRANCH  10  21
TORSDOF 6
ENDMDL
MODEL      220
REMARK 921   NORMALIZED FREE ENERGY PREDICTED BY IDOCK:    0.86 KCAL/MOL
REMARK 922        TOTAL FREE ENERGY PREDICTED BY IDOCK:    0.12 KCAL/MOL
REMARK 923 INTER-LIGAND FREE ENERGY PREDICTED BY IDOCK:    1.38 KCAL/MOL
REMARK 924 INTRA-LIGAND FREE ENERGY PREDICTED BY IDOCK:   -1.26 KCAL/MOL
REMARK 927      BINDING AFFINITY PREDICTED BY RF-SCORE:    0.00 PKD
ROOT
HETATM    1  C   UNL     1     -11.465  17.155  68.352  1.00  0.00     0.420 C  
HETATM    2  S   UNL     1     -10.445  16.194  69.502  1.00  0.00    -0.302 SA 
HETATM    3  C   UNL     1      -9.416  17.611  69.940  1.00  0.00     1.216 C  
HETATM    4  C   UNL     1      -8.880  18.400  68.751  1.00  0.00    -0.239 C  
HETATM    5  O   UNL     1      -9.472  19.283  65.244  1.00  0.00     0.252 OA 
HETATM    6  CA  UNL     1      -9.441  18.370  67.504  1.00  0.00    -0.270 C  
HETATM    7  N   UNL     1     -10.609  17.686  67.306  1.00  0.00    -0.330 N  
HETATM    8  O   UNL     1     -11.198  17.412  65.080  1.00  0.00    -0.372 OA 
HETATM    9  C   UNL     1      -8.730  19.020  66.332  1.00  0.00    -0.317 C  
HETATM   10  CA  UNL     1     -12.190  16.321  67.243  1.00  0.00     1.658 C  
HETATM   11  C   UNL     1     -11.332  17.204  66.266  1.00  0.00     0.945 C  
HETATM   12  OXT UNL     1      -7.558  19.364  66.353  1.00  0.00    -0.243 OA 
ENDROOT
BRANCH   4  13
HETATM   13  C   UNL     1      -7.573  19.095  69.128  1.00  0.00    -0.238 C  
BRANCH  13  14
HETATM   14  S   UNL     1      -6.447  18.145  70.180  1.00  0.00     0.482 SA 
BRANCH  14  15
HETATM   15  C   UNL     1      -6.001  16.793  69.225  1.00  0.00    -0.180 A  
HETATM   16  N   UNL     1      -6.069  16.664  67.922  1.00  0.00    -0.121 NA 
HETATM   17  C   UNL     1      -5.253  15.289  71.120  1.00  0.00    -0.116 C  
HETATM   18  N   UNL     1      -5.642  15.384  67.649  1.00  0.00    -0.291 NA 
HETATM   19  N   UNL     1      -5.312  14.749  68.765  1.00  0.00    -0.086 NA 
HETATM   20  N   UNL     1      -5.527  15.630  69.753  1.00  0.00    -0.113 NA 
ENDBRANCH  14  15
ENDBRANCH  13  14
ENDBRANCH   4  13
BRANCH  10  21
HETATM   21  N   UNL     1     -11.875  14.875  67.234  1.00  0.00    -0.376 N  
HETATM   22  C   UNL     1     -12.317  13.979  66.285  1.00  0.00    -0.448 C  
HETATM   23  O   UNL     1     -13.070  14.288  65.366  1.00  0.00    -0.685 OA 
HETATM   24  H   UNL     1     -11.287  14.514  67.986  1.00  0.00     0.000 HD 
BRANCH  22  25
HETATM   25  C   UNL     1     -11.741  12.562  66.494  1.00  0.00    -0.391 C  
HETATM   26  H   UNL     1     -11.971  11.095  67.791  1.00  0.00     0.000 HD 
HETATM   27  O   UNL     1     -12.325  11.967  67.662  1.00  0.00    -0.357 OA 
BRANCH  25  28
HETATM   28  C   UNL     1     -10.235  12.578  66.639  1.00  0.00    -0.243 A  
HETATM   29  C   UNL     1      -9.458  13.348  65.762  1.00  0.00     0.032 A  
HETATM   30  C   UNL     1      -8.067  13.372  65.879  1.00  0.00     2.284 A  
HETATM   31  C   UNL     1      -7.435  12.635  66.877  1.00  0.00     0.144 A  
HETATM   32  C   UNL     1      -8.193  11.880  67.768  1.00  0.00    -0.148 A  
HETATM   33  C   UNL     1      -9.584  11.854  67.653  1.00  0.00    -0.185 A  
ENDBRANCH  25  28
ENDBRANCH  22  25
ENDBRANCH  10  21
TORSDOF 6
ENDMDL
MODEL      221
REMARK 921   NORMALIZED FREE ENERGY PREDICTED BY IDOCK:    1.77 KCAL/MOL
REMARK 922        TOTAL FREE ENERGY PREDICTED BY IDOCK:    1.35 KCAL/MOL
REMARK 923 INTER-LIGAND FREE ENERGY PREDICTED BY IDOCK:   -2.46 KCAL/MOL
REMARK 924 INTRA-LIGAND FREE ENERGY PREDICTED BY IDOCK:    3.82 KCAL/MOL
REMARK 927      BINDING AFFINITY PREDICTED BY RF-SCORE:    0.00 PKD
ROOT
HETATM    1  C   UNL     1      -6.361  10.094  65.791  1.00  0.00    -0.102 C  
HETATM    2  S   UNL     1      -5.764   8.504  66.424  1.00  0.00    -0.047 SA 
HETATM    3  C   UNL     1      -5.511   7.822  64.772  1.00  0.00    -0.033 C  
HETATM    4  C   UNL     1      -6.692   7.993  63.825  1.00  0.00    -0.070 C  
HETATM    5  O   UNL     1      -9.641  10.035  63.071  1.00  0.00    -0.267 OA 
HETATM    6  CA  UNL     1      -7.669   8.936  63.992  1.00  0.00    -0.128 C  
HETATM    7  N   UNL     1      -7.553   9.859  64.995  1.00  0.00    -0.128 N  
HETATM    8  O   UNL     1      -9.465  11.112  65.377  1.00  0.00    -0.210 OA 
HETATM    9  C   UNL     1      -8.913   8.907  63.124  1.00  0.00     0.219 C  
HETATM   10  CA  UNL     1      -7.263  10.911  66.777  1.00  0.00    -0.134 C  
HETATM   11  C   UNL     1      -8.343  10.745  65.648  1.00  0.00    -0.144 C  
HETATM   12  OXT UNL     1      -9.242   7.951  62.437  1.00  0.00     0.556 OA 
ENDROOT
BRANCH   4  13
HETATM   13  C   UNL     1      -6.688   6.886  62.773  1.00  0.00    -0.047 C  
BRANCH  13  14
HETATM   14  S   UNL     1      -8.283   6.093  62.452  1.00  0.00    -0.050 SA 
BRANCH  14  15
HETATM   15  C   UNL     1      -8.132   4.527  63.135  1.00  0.00    -0.088 A  
HETATM   16  N   UNL     1      -7.079   3.987  63.698  1.00  0.00    -0.048 NA 
HETATM   17  C   UNL     1     -10.491   3.737  62.660  1.00  0.00    -0.204 C  
HETATM   18  N   UNL     1      -7.450   2.705  64.038  1.00  0.00    -0.065 NA 
HETATM   19  N   UNL     1      -8.710   2.473  63.695  1.00  0.00    -0.086 NA 
HETATM   20  N   UNL     1      -9.143   3.614  63.136  1.00  0.00    -0.097 NA 
ENDBRANCH  14  15
ENDBRANCH  13  14
ENDBRANCH   4  13
BRANCH  10  21
HETATM   21  N   UNL     1      -7.573  10.233  68.056  1.00  0.00    -0.087 N  
HETATM   22  C   UNL     1      -6.632   9.767  68.948  1.00  0.00    -0.046 C  
HETATM   23  O   UNL     1      -5.423   9.823  68.742  1.00  0.00    -0.037 OA 
HETATM   24  H   UNL     1      -8.556  10.102  68.296  1.00  0.00     0.000 HD 
BRANCH  22  25
HETATM   25  C   UNL     1      -7.266   9.195  70.234  1.00  0.00    -0.075 C  
HETATM   26  H   UNL     1      -6.632   8.309  71.877  1.00  0.00     0.000 HD 
HETATM   27  O   UNL     1      -6.242   8.661  71.086  1.00  0.00    -0.037 OA 
BRANCH  25  28
HETATM   28  C   UNL     1      -8.281   8.115  69.933  1.00  0.00    -0.118 A  
HETATM   29  C   UNL     1      -9.429   7.995  70.730  1.00  0.00    -0.173 A  
HETATM   30  C   UNL     1     -10.376   7.002  70.470  1.00  0.00    -0.218 A  
HETATM   31  C   UNL     1     -10.192   6.122  69.405  1.00  0.00    -0.248 A  
HETATM   32  C   UNL     1      -9.067   6.239  68.593  1.00  0.00    -0.126 A  
HETATM   33  C   UNL     1      -8.120   7.231  68.852  1.00  0.00    -0.128 A  
ENDBRANCH  25  28
ENDBRANCH  22  25
ENDBRANCH  10  21
TORSDOF 6
ENDMDL
MODEL      222
REMARK 921   NORMALIZED FREE ENERGY PREDICTED BY IDOCK:   21.77 KCAL/MOL
REMARK 922        TOTAL FREE ENERGY PREDICTED BY IDOCK:   28.36 KCAL/MOL
REMARK 923 INTER-LIGAND FREE ENERGY PREDICTED BY IDOCK:   18.98 KCAL/MOL
REMARK 924 INTRA-LIGAND FREE ENERGY PREDICTED BY IDOCK:    9.38 KCAL/MOL
REMARK 927      BINDING AFFINITY PREDICTED BY RF-SCORE:    0.00 PKD
ROOT
HETATM    1  C   UNL     1     -10.083   8.759  73.213  1.00  0.00     1.266 C  
HETATM    2  S   UNL     1      -8.401   8.967  72.570  1.00  0.00     0.882 SA 
HETATM    3  C   UNL     1      -8.661  10.705  72.158  1.00  0.00     9.273 C  
HETATM    4  C   UNL     1      -9.935  10.989  71.370  1.00  0.00     5.960 C  
HETATM    5  O   UNL     1     -13.324   9.796  70.647  1.00  0.00    -0.186 OA 
HETATM    6  CA  UNL     1     -11.016  10.150  71.346  1.00  0.00     0.356 C  
HETATM    7  N   UNL     1     -11.026   9.039  72.145  1.00  0.00    -0.295 N  
HETATM    8  O   UNL     1     -12.736   7.542  71.688  1.00  0.00    -0.331 OA 
HETATM    9  C   UNL     1     -12.157  10.405  70.380  1.00  0.00    -0.315 C  
HETATM   10  CA  UNL     1     -10.623   7.288  73.211  1.00  0.00    -0.382 C  
HETATM   11  C   UNL     1     -11.715   7.877  72.248  1.00  0.00    -0.355 C  
HETATM   12  OXT UNL     1     -12.087  11.170  69.430  1.00  0.00    -0.333 OA 
ENDROOT
BRANCH   4  13
HETATM   13  C   UNL     1      -9.761  12.249  70.526  1.00  0.00     5.545 C  
BRANCH  13  14
HETATM   14  S   UNL     1     -10.720  12.311  68.992  1.00  0.00    -0.039 SA 
BRANCH  14  15
HETATM   15  C   UNL     1     -10.400  10.813  68.222  1.00  0.00    -0.173 A  
HETATM   16  N   UNL     1     -11.229  10.057  67.543  1.00  0.00    -0.174 NA 
HETATM   17  C   UNL     1      -7.955  10.636  68.859  1.00  0.00    -0.132 C  
HETATM   18  N   UNL     1     -10.506   8.945  67.173  1.00  0.00    -0.283 NA 
HETATM   19  N   UNL     1      -9.258   9.027  67.612  1.00  0.00    -0.135 NA 
HETATM   20  N   UNL     1      -9.185  10.198  68.262  1.00  0.00    -0.128 NA 
ENDBRANCH  14  15
ENDBRANCH  13  14
ENDBRANCH   4  13
BRANCH  10  21
HETATM   21  N   UNL     1      -9.718   6.285  72.607  1.00  0.00    -0.159 N  
HETATM   22  C   UNL     1      -9.979   5.587  71.448  1.00  0.00    -0.186 C  
HETATM   23  O   UNL     1     -11.027   5.693  70.819  1.00  0.00    -0.260 OA 
HETATM   24  H   UNL     1      -8.835   6.096  73.083  1.00  0.00     0.000 HD 
BRANCH  22  25
HETATM   25  C   UNL     1      -8.801   4.684  71.022  1.00  0.00    -0.116 C  
HETATM   26  H   UNL     1      -6.938   4.938  70.430  1.00  0.00     0.000 HD 
HETATM   27  O   UNL     1      -7.662   5.494  70.692  1.00  0.00    -0.086 OA 
BRANCH  25  28
HETATM   28  C   UNL     1      -9.155   3.811  69.839  1.00  0.00    -0.188 A  
HETATM   29  C   UNL     1      -9.437   2.452  70.035  1.00  0.00    -0.135 A  
HETATM   30  C   UNL     1      -9.763   1.629  68.955  1.00  0.00    -0.052 A  
HETATM   31  C   UNL     1      -9.819   2.156  67.666  1.00  0.00     0.511 A  
HETATM   32  C   UNL     1      -9.560   3.508  67.456  1.00  0.00    -0.177 A  
HETATM   33  C   UNL     1      -9.234   4.332  68.535  1.00  0.00    -0.194 A  
ENDBRANCH  25  28
ENDBRANCH  22  25
ENDBRANCH  10  21
TORSDOF 6
ENDMDL
