MODEL        1
REMARK 921   NORMALIZED FREE ENERGY PREDICTED BY IDOCK:   -6.99 KCAL/MOL
REMARK 922        TOTAL FREE ENERGY PREDICTED BY IDOCK:   -8.92 KCAL/MOL
REMARK 923 INTER-LIGAND FREE ENERGY PREDICTED BY IDOCK:   -8.22 KCAL/MOL
REMARK 924 INTRA-LIGAND FREE ENERGY PREDICTED BY IDOCK:   -0.70 KCAL/MOL
REMARK 927      BINDING AFFINITY PREDICTED BY RF-SCORE:    0.00 PKD
ROOT
HETATM    1  C   UNL     1     -12.206  14.090  66.443  1.00  0.00    -0.460 C  
HETATM    2  S   UNL     1     -11.547  12.749  67.466  1.00  0.00    -0.367 SA 
HETATM    3  C   UNL     1     -11.828  13.641  69.015  1.00  0.00    -0.352 C  
HETATM    4  C   UNL     1     -11.360  15.081  68.999  1.00  0.00    -0.290 C  
HETATM    5 CL   UNL     1     -11.089  15.618  70.640  1.00  0.00    -0.358 Cl 
HETATM    6  CA  UNL     1     -11.148  15.839  67.888  1.00  0.00    -0.326 C  
HETATM    7  N   UNL     1     -11.411  15.288  66.661  1.00  0.00    -0.236 N  
HETATM    8  C   UNL     1     -10.602  17.251  68.014  1.00  0.00    -0.394 C  
HETATM    9  C   UNL     1     -11.160  15.534  65.357  1.00  0.00    -0.298 C  
HETATM   10  O   UNL     1     -10.487  17.971  66.881  1.00  0.00    -0.360 OA 
HETATM   11  OXT UNL     1     -10.328  17.790  69.075  1.00  0.00    -0.359 OA 
HETATM   12  O   UNL     1     -10.628  16.487  64.843  1.00  0.00    -0.689 OA 
HETATM   13  CA  UNL     1     -11.711  14.119  64.961  1.00  0.00    -0.376 C  
ENDROOT
BRANCH  13  14
HETATM   14  N   UNL     1     -10.682  13.120  64.610  1.00  0.00    -0.358 N  
HETATM   15  H   UNL     1      -9.756  13.227  65.024  1.00  0.00     0.000 HD 
HETATM   16  C   UNL     1     -10.886  12.055  63.762  1.00  0.00    -0.420 C  
HETATM   17  O   UNL     1     -11.971  11.809  63.246  1.00  0.00    -0.422 OA 
BRANCH  16  18
HETATM   18  CA  UNL     1      -9.606  11.210  63.537  1.00  0.00    -0.315 C  
HETATM   19  H2  UNL     1     -10.163  10.692  61.577  1.00  0.00     0.000 HD 
HETATM   20  N   UNL     1      -9.846  10.236  62.433  1.00  0.00    -0.732 NA 
HETATM   21  H1  UNL     1      -9.004   9.680  62.285  1.00  0.00     0.000 HD 
BRANCH  18  22
HETATM   22  C   UNL     1      -9.161  10.521  64.813  1.00  0.00    -0.242 A  
HETATM   23  C   UNL     1      -7.836  10.677  65.254  1.00  0.00    -0.041 A  
HETATM   24  C   UNL     1      -7.391  10.048  66.419  1.00  0.00    -0.104 A  
HETATM   25  C   UNL     1      -8.264   9.261  67.164  1.00  0.00    -0.117 A  
HETATM   26  C   UNL     1      -9.586   9.112  66.755  1.00  0.00    -0.253 A  
HETATM   27  C   UNL     1     -10.035   9.744  65.592  1.00  0.00    -0.352 A  
ENDBRANCH  18  22
ENDBRANCH  16  18
ENDBRANCH  13  14
TORSDOF 3
ENDMDL
MODEL        2
REMARK 921   NORMALIZED FREE ENERGY PREDICTED BY IDOCK:   -6.85 KCAL/MOL
REMARK 922        TOTAL FREE ENERGY PREDICTED BY IDOCK:   -8.75 KCAL/MOL
REMARK 923 INTER-LIGAND FREE ENERGY PREDICTED BY IDOCK:   -8.14 KCAL/MOL
REMARK 924 INTRA-LIGAND FREE ENERGY PREDICTED BY IDOCK:   -0.61 KCAL/MOL
REMARK 927      BINDING AFFINITY PREDICTED BY RF-SCORE:    0.00 PKD
ROOT
HETATM    1  C   UNL     1     -10.830  10.107  69.475  1.00  0.00    -0.255 C  
HETATM    2  S   UNL     1      -9.169  10.820  69.578  1.00  0.00     0.275 SA 
HETATM    3  C   UNL     1      -8.412   9.266  70.112  1.00  0.00    -0.191 C  
HETATM    4  C   UNL     1      -9.162   8.555  71.218  1.00  0.00    -0.200 C  
HETATM    5 CL   UNL     1      -8.069   7.482  72.060  1.00  0.00    -0.103 Cl 
HETATM    6  CA  UNL     1     -10.473   8.737  71.539  1.00  0.00    -0.303 C  
HETATM    7  N   UNL     1     -11.215   9.609  70.786  1.00  0.00    -0.307 N  
HETATM    8  C   UNL     1     -11.081   8.012  72.728  1.00  0.00    -0.381 C  
HETATM    9  C   UNL     1     -12.398  10.255  70.844  1.00  0.00    -0.373 C  
HETATM   10  O   UNL     1     -12.400   8.180  72.944  1.00  0.00    -0.186 OA 
HETATM   11  OXT UNL     1     -10.467   7.242  73.450  1.00  0.00    -0.318 OA 
HETATM   12  O   UNL     1     -13.286  10.164  71.657  1.00  0.00    -0.393 OA 
HETATM   13  CA  UNL     1     -12.013  11.121  69.593  1.00  0.00    -0.359 C  
ENDROOT
BRANCH  13  14
HETATM   14  N   UNL     1     -11.633  12.517  69.889  1.00  0.00    -0.496 N  
HETATM   15  H   UNL     1     -11.275  12.724  70.821  1.00  0.00     0.000 HD 
HETATM   16  C   UNL     1     -11.727  13.558  68.992  1.00  0.00    -0.327 C  
HETATM   17  O   UNL     1     -12.102  13.410  67.834  1.00  0.00    -0.338 OA 
BRANCH  16  18
HETATM   18  CA  UNL     1     -11.311  14.920  69.604  1.00  0.00    -0.282 C  
HETATM   19  H2  UNL     1      -9.301  14.679  69.041  1.00  0.00     0.000 HD 
HETATM   20  N   UNL     1      -9.845  14.912  69.873  1.00  0.00    -0.456 NA 
HETATM   21  H1  UNL     1      -9.571  15.808  70.276  1.00  0.00     0.000 HD 
BRANCH  18  22
HETATM   22  C   UNL     1     -12.114  15.240  70.851  1.00  0.00    -0.396 A  
HETATM   23  C   UNL     1     -11.439  15.550  72.043  1.00  0.00    -0.515 A  
HETATM   24  C   UNL     1     -12.148  15.840  73.211  1.00  0.00    -0.603 A  
HETATM   25  C   UNL     1     -13.540  15.832  73.203  1.00  0.00    -0.588 A  
HETATM   26  C   UNL     1     -14.226  15.548  72.026  1.00  0.00    -0.606 A  
HETATM   27  C   UNL     1     -13.519  15.262  70.855  1.00  0.00    -0.441 A  
ENDBRANCH  18  22
ENDBRANCH  16  18
ENDBRANCH  13  14
TORSDOF 3
ENDMDL
MODEL        3
REMARK 921   NORMALIZED FREE ENERGY PREDICTED BY IDOCK:   -6.77 KCAL/MOL
REMARK 922        TOTAL FREE ENERGY PREDICTED BY IDOCK:   -8.66 KCAL/MOL
REMARK 923 INTER-LIGAND FREE ENERGY PREDICTED BY IDOCK:   -8.18 KCAL/MOL
REMARK 924 INTRA-LIGAND FREE ENERGY PREDICTED BY IDOCK:   -0.48 KCAL/MOL
REMARK 927      BINDING AFFINITY PREDICTED BY RF-SCORE:    0.00 PKD
ROOT
HETATM    1  C   UNL     1      -9.393  11.315  66.948  1.00  0.00    -0.177 C  
HETATM    2  S   UNL     1      -9.807   9.828  66.001  1.00  0.00    -0.275 SA 
HETATM    3  C   UNL     1     -10.278  10.762  64.525  1.00  0.00    -0.359 C  
HETATM    4  C   UNL     1     -11.185  11.943  64.797  1.00  0.00    -0.297 C  
HETATM    5 CL   UNL     1     -12.057  12.349  63.338  1.00  0.00    -0.616 Cl 
HETATM    6  CA  UNL     1     -11.333  12.577  65.993  1.00  0.00    -0.344 C  
HETATM    7  N   UNL     1     -10.576  12.154  67.054  1.00  0.00    -0.223 N  
HETATM    8  C   UNL     1     -12.339  13.704  66.146  1.00  0.00    -0.426 C  
HETATM    9  C   UNL     1     -10.532  12.296  68.396  1.00  0.00    -0.233 C  
HETATM   10  O   UNL     1     -12.381  14.338  67.335  1.00  0.00    -0.311 OA 
HETATM   11  OXT UNL     1     -13.057  14.111  65.245  1.00  0.00    -0.763 OA 
HETATM   12  O   UNL     1     -11.196  12.999  69.118  1.00  0.00    -0.259 OA 
HETATM   13  CA  UNL     1      -9.446  11.167  68.502  1.00  0.00    -0.193 C  
ENDROOT
BRANCH  13  14
HETATM   14  N   UNL     1      -9.938   9.869  69.006  1.00  0.00    -0.177 N  
HETATM   15  H   UNL     1     -10.663   9.395  68.467  1.00  0.00     0.000 HD 
HETATM   16  C   UNL     1      -9.485   9.254  70.151  1.00  0.00    -0.226 C  
HETATM   17  O   UNL     1      -8.586   9.715  70.847  1.00  0.00    -0.233 OA 
BRANCH  16  18
HETATM   18  CA  UNL     1     -10.228   7.929  70.459  1.00  0.00    -0.198 C  
HETATM   19  H2  UNL     1      -9.397   6.952  68.794  1.00  0.00     0.000 HD 
HETATM   20  N   UNL     1     -10.312   7.111  69.215  1.00  0.00    -0.197 NA 
HETATM   21  H1  UNL     1     -10.802   6.239  69.417  1.00  0.00     0.000 HD 
BRANCH  18  22
HETATM   22  C   UNL     1     -11.596   8.183  71.063  1.00  0.00    -0.301 A  
HETATM   23  C   UNL     1     -12.541   7.145  71.088  1.00  0.00    -0.384 A  
HETATM   24  C   UNL     1     -13.813   7.349  71.628  1.00  0.00    -0.490 A  
HETATM   25  C   UNL     1     -14.156   8.590  72.158  1.00  0.00    -0.493 A  
HETATM   26  C   UNL     1     -13.225   9.624  72.162  1.00  0.00    -0.535 A  
HETATM   27  C   UNL     1     -11.950   9.421  71.626  1.00  0.00    -0.465 A  
ENDBRANCH  18  22
ENDBRANCH  16  18
ENDBRANCH  13  14
TORSDOF 3
ENDMDL
MODEL        4
REMARK 921   NORMALIZED FREE ENERGY PREDICTED BY IDOCK:   -6.76 KCAL/MOL
REMARK 922        TOTAL FREE ENERGY PREDICTED BY IDOCK:   -8.64 KCAL/MOL
REMARK 923 INTER-LIGAND FREE ENERGY PREDICTED BY IDOCK:   -8.13 KCAL/MOL
REMARK 924 INTRA-LIGAND FREE ENERGY PREDICTED BY IDOCK:   -0.52 KCAL/MOL
REMARK 927      BINDING AFFINITY PREDICTED BY RF-SCORE:    0.00 PKD
ROOT
HETATM    1  C   UNL     1     -10.057  11.205  68.250  1.00  0.00    -0.185 C  
HETATM    2  S   UNL     1     -10.203   9.520  67.604  1.00  0.00    -0.236 SA 
HETATM    3  C   UNL     1      -9.948  10.034  65.889  1.00  0.00    -0.269 C  
HETATM    4  C   UNL     1     -10.766  11.238  65.471  1.00  0.00    -0.220 C  
HETATM    5 CL   UNL     1     -10.936  11.244  63.731  1.00  0.00    -0.442 Cl 
HETATM    6  CA  UNL     1     -11.316  12.159  66.309  1.00  0.00    -0.357 C  
HETATM    7  N   UNL     1     -11.094  12.032  67.655  1.00  0.00    -0.247 N  
HETATM    8  C   UNL     1     -12.182  13.279  65.758  1.00  0.00    -0.456 C  
HETATM    9  C   UNL     1     -11.577  12.518  68.819  1.00  0.00    -0.322 C  
HETATM   10  O   UNL     1     -12.633  14.198  66.633  1.00  0.00    -0.349 OA 
HETATM   11  OXT UNL     1     -12.435  13.432  64.573  1.00  0.00    -0.547 OA 
HETATM   12  O   UNL     1     -12.400  13.379  69.010  1.00  0.00    -0.216 OA 
HETATM   13  CA  UNL     1     -10.742  11.465  69.630  1.00  0.00     0.034 C  
ENDROOT
BRANCH  13  14
HETATM   14  N   UNL     1     -11.521  10.337  70.181  1.00  0.00    -0.287 N  
HETATM   15  H   UNL     1     -11.369   9.413  69.777  1.00  0.00     0.000 HD 
HETATM   16  C   UNL     1     -12.437  10.448  71.203  1.00  0.00    -0.404 C  
HETATM   17  O   UNL     1     -12.663  11.501  71.788  1.00  0.00    -0.332 OA 
BRANCH  16  18
HETATM   18  CA  UNL     1     -13.142   9.106  71.528  1.00  0.00    -0.349 C  
HETATM   19  H2  UNL     1     -14.702  10.054  72.568  1.00  0.00     0.000 HD 
HETATM   20  N   UNL     1     -14.038   9.292  72.705  1.00  0.00    -0.950 NA 
HETATM   21  H1  UNL     1     -14.501   8.409  72.920  1.00  0.00     0.000 HD 
BRANCH  18  22
HETATM   22  C   UNL     1     -12.139   7.989  71.751  1.00  0.00    -0.344 A  
HETATM   23  C   UNL     1     -12.029   6.962  70.799  1.00  0.00    -0.424 A  
HETATM   24  C   UNL     1     -11.124   5.914  70.979  1.00  0.00    -0.315 A  
HETATM   25  C   UNL     1     -10.310   5.881  72.108  1.00  0.00    -0.241 A  
HETATM   26  C   UNL     1     -10.389   6.901  73.051  1.00  0.00    -0.269 A  
HETATM   27  C   UNL     1     -11.291   7.953  72.871  1.00  0.00    -0.399 A  
ENDBRANCH  18  22
ENDBRANCH  16  18
ENDBRANCH  13  14
TORSDOF 3
ENDMDL
MODEL        5
REMARK 921   NORMALIZED FREE ENERGY PREDICTED BY IDOCK:   -6.71 KCAL/MOL
REMARK 922        TOTAL FREE ENERGY PREDICTED BY IDOCK:   -8.59 KCAL/MOL
REMARK 923 INTER-LIGAND FREE ENERGY PREDICTED BY IDOCK:   -8.20 KCAL/MOL
REMARK 924 INTRA-LIGAND FREE ENERGY PREDICTED BY IDOCK:   -0.38 KCAL/MOL
REMARK 927      BINDING AFFINITY PREDICTED BY RF-SCORE:    0.00 PKD
ROOT
HETATM    1  C   UNL     1      -9.689  15.739  68.546  1.00  0.00    -0.206 C  
HETATM    2  S   UNL     1      -8.329  14.663  68.023  1.00  0.00    -0.156 SA 
HETATM    3  C   UNL     1      -7.117  15.491  69.080  1.00  0.00    -0.147 C  
HETATM    4  C   UNL     1      -7.155  17.003  69.005  1.00  0.00    -0.233 C  
HETATM    5 CL   UNL     1      -5.612  17.645  69.518  1.00  0.00    -0.201 Cl 
HETATM    6  CA  UNL     1      -8.206  17.755  68.577  1.00  0.00    -0.296 C  
HETATM    7  N   UNL     1      -9.360  17.114  68.209  1.00  0.00    -0.257 N  
HETATM    8  C   UNL     1      -8.080  19.266  68.479  1.00  0.00    -0.366 C  
HETATM    9  C   UNL     1     -10.508  17.379  67.549  1.00  0.00    -0.354 C  
HETATM   10  O   UNL     1      -9.181  19.954  68.119  1.00  0.00    -0.331 OA 
HETATM   11  OXT UNL     1      -7.073  19.892  68.769  1.00  0.00    -0.325 OA 
HETATM   12  O   UNL     1     -10.919  18.426  67.109  1.00  0.00    -0.311 OA 
HETATM   13  CA  UNL     1     -10.884  15.855  67.547  1.00  0.00    -0.305 C  
ENDROOT
BRANCH  13  14
HETATM   14  N   UNL     1     -10.707  15.167  66.252  1.00  0.00    -0.314 N  
HETATM   15  H   UNL     1      -9.813  15.277  65.774  1.00  0.00     0.000 HD 
HETATM   16  C   UNL     1     -11.666  14.386  65.647  1.00  0.00    -0.356 C  
HETATM   17  O   UNL     1     -12.757  14.152  66.155  1.00  0.00    -0.442 OA 
BRANCH  16  18
HETATM   18  CA  UNL     1     -11.217  13.841  64.267  1.00  0.00    -0.305 C  
HETATM   19  H2  UNL     1     -12.784  14.808  63.255  1.00  0.00     0.000 HD 
HETATM   20  N   UNL     1     -12.370  13.878  63.323  1.00  0.00    -1.148 NA 
HETATM   21  H1  UNL     1     -12.074  13.519  62.415  1.00  0.00     0.000 HD 
BRANCH  18  22
HETATM   22  C   UNL     1     -10.624  12.449  64.383  1.00  0.00    -0.366 A  
HETATM   23  C   UNL     1     -10.205  11.781  63.221  1.00  0.00    -0.452 A  
HETATM   24  C   UNL     1      -9.665  10.494  63.292  1.00  0.00    -0.361 A  
HETATM   25  C   UNL     1      -9.527   9.862  64.524  1.00  0.00    -0.328 A  
HETATM   26  C   UNL     1      -9.916  10.518  65.688  1.00  0.00    -0.332 A  
HETATM   27  C   UNL     1     -10.453  11.806  65.620  1.00  0.00    -0.308 A  
ENDBRANCH  18  22
ENDBRANCH  16  18
ENDBRANCH  13  14
TORSDOF 3
ENDMDL
MODEL        6
REMARK 921   NORMALIZED FREE ENERGY PREDICTED BY IDOCK:   -6.70 KCAL/MOL
REMARK 922        TOTAL FREE ENERGY PREDICTED BY IDOCK:   -8.57 KCAL/MOL
REMARK 923 INTER-LIGAND FREE ENERGY PREDICTED BY IDOCK:   -8.06 KCAL/MOL
REMARK 924 INTRA-LIGAND FREE ENERGY PREDICTED BY IDOCK:   -0.52 KCAL/MOL
REMARK 927      BINDING AFFINITY PREDICTED BY RF-SCORE:    0.00 PKD
ROOT
HETATM    1  C   UNL     1     -11.727  12.402  66.771  1.00  0.00    -0.362 C  
HETATM    2  S   UNL     1     -10.116  11.935  66.090  1.00  0.00    -0.236 SA 
HETATM    3  C   UNL     1     -10.273  10.207  66.602  1.00  0.00    -0.224 C  
HETATM    4  C   UNL     1     -10.741  10.021  68.030  1.00  0.00    -0.256 C  
HETATM    5 CL   UNL     1     -10.255   8.440  68.594  1.00  0.00    -0.214 Cl 
HETATM    6  CA  UNL     1     -11.408  10.942  68.779  1.00  0.00    -0.292 C  
HETATM    7  N   UNL     1     -11.731  12.142  68.201  1.00  0.00    -0.337 N  
HETATM    8  C   UNL     1     -11.750  10.650  70.229  1.00  0.00    -0.344 C  
HETATM    9  C   UNL     1     -12.149  13.372  68.570  1.00  0.00    -0.248 C  
HETATM   10  O   UNL     1     -12.476  11.575  70.890  1.00  0.00    -0.379 OA 
HETATM   11  OXT UNL     1     -11.470   9.611  70.807  1.00  0.00    -0.279 OA 
HETATM   12  O   UNL     1     -12.474  13.779  69.659  1.00  0.00    -0.281 OA 
HETATM   13  CA  UNL     1     -11.905  13.915  67.118  1.00  0.00    -0.412 C  
ENDROOT
BRANCH  13  14
HETATM   14  N   UNL     1     -10.701  14.755  66.957  1.00  0.00    -0.294 N  
HETATM   15  H   UNL     1     -10.059  14.820  67.746  1.00  0.00     0.000 HD 
HETATM   16  C   UNL     1     -10.386  15.456  65.814  1.00  0.00    -0.361 C  
HETATM   17  O   UNL     1     -11.065  15.411  64.794  1.00  0.00    -0.416 OA 
BRANCH  16  18
HETATM   18  CA  UNL     1      -9.092  16.295  65.959  1.00  0.00    -0.297 C  
HETATM   19  H2  UNL     1      -7.885  14.591  66.199  1.00  0.00     0.000 HD 
HETATM   20  N   UNL     1      -8.055  15.485  66.660  1.00  0.00    -0.308 NA 
HETATM   21  H1  UNL     1      -7.203  16.038  66.756  1.00  0.00     0.000 HD 
BRANCH  18  22
HETATM   22  C   UNL     1      -9.356  17.611  66.667  1.00  0.00    -0.289 A  
HETATM   23  C   UNL     1      -8.718  17.876  67.890  1.00  0.00    -0.252 A  
HETATM   24  C   UNL     1      -8.948  19.073  68.572  1.00  0.00    -0.394 A  
HETATM   25  C   UNL     1      -9.811  20.026  68.038  1.00  0.00    -0.522 A  
HETATM   26  C   UNL     1     -10.435  19.791  66.816  1.00  0.00    -0.610 A  
HETATM   27  C   UNL     1     -10.203  18.595  66.130  1.00  0.00    -0.450 A  
ENDBRANCH  18  22
ENDBRANCH  16  18
ENDBRANCH  13  14
TORSDOF 3
ENDMDL
MODEL        7
REMARK 921   NORMALIZED FREE ENERGY PREDICTED BY IDOCK:   -6.66 KCAL/MOL
REMARK 922        TOTAL FREE ENERGY PREDICTED BY IDOCK:   -8.53 KCAL/MOL
REMARK 923 INTER-LIGAND FREE ENERGY PREDICTED BY IDOCK:   -8.41 KCAL/MOL
REMARK 924 INTRA-LIGAND FREE ENERGY PREDICTED BY IDOCK:   -0.12 KCAL/MOL
REMARK 927      BINDING AFFINITY PREDICTED BY RF-SCORE:    0.00 PKD
ROOT
HETATM    1  C   UNL     1     -11.822  14.095  67.685  1.00  0.00    -0.392 C  
HETATM    2  S   UNL     1     -10.462  13.754  68.830  1.00  0.00    -0.173 SA 
HETATM    3  C   UNL     1     -10.223  15.498  69.246  1.00  0.00    -0.252 C  
HETATM    4  C   UNL     1     -10.189  16.425  68.049  1.00  0.00    -0.264 C  
HETATM    5 CL   UNL     1      -9.348  17.894  68.482  1.00  0.00    -0.292 Cl 
HETATM    6  CA  UNL     1     -10.699  16.156  66.816  1.00  0.00    -0.235 C  
HETATM    7  N   UNL     1     -11.341  14.961  66.621  1.00  0.00    -0.347 N  
HETATM    8  C   UNL     1     -10.525  17.149  65.679  1.00  0.00    -0.197 C  
HETATM    9  C   UNL     1     -11.777  14.192  65.600  1.00  0.00    -0.357 C  
HETATM   10  O   UNL     1     -11.119  16.854  64.506  1.00  0.00    -1.054 OA 
HETATM   11  OXT UNL     1      -9.945  18.218  65.783  1.00  0.00    -0.540 OA 
HETATM   12  O   UNL     1     -11.792  14.422  64.416  1.00  0.00    -0.425 OA 
HETATM   13  CA  UNL     1     -12.076  13.010  66.589  1.00  0.00    -0.319 C  
ENDROOT
BRANCH  13  14
HETATM   14  N   UNL     1     -11.105  11.899  66.551  1.00  0.00    -0.293 N  
HETATM   15  H   UNL     1     -10.340  11.960  65.878  1.00  0.00     0.000 HD 
HETATM   16  C   UNL     1     -11.160  10.787  67.361  1.00  0.00    -0.296 C  
HETATM   17  O   UNL     1     -12.009  10.635  68.231  1.00  0.00    -0.462 OA 
BRANCH  16  18
HETATM   18  CA  UNL     1     -10.039   9.761  67.053  1.00  0.00    -0.218 C  
HETATM   19  H2  UNL     1      -9.798  10.454  65.083  1.00  0.00     0.000 HD 
HETATM   20  N   UNL     1      -9.936   9.572  65.578  1.00  0.00    -0.399 NA 
HETATM   21  H1  UNL     1      -9.199   8.896  65.375  1.00  0.00     0.000 HD 
BRANCH  18  22
HETATM   22  C   UNL     1     -10.271   8.448  67.777  1.00  0.00    -0.283 A  
HETATM   23  C   UNL     1     -10.722   7.332  67.053  1.00  0.00    -0.406 A  
HETATM   24  C   UNL     1     -10.955   6.112  67.692  1.00  0.00    -0.400 A  
HETATM   25  C   UNL     1     -10.732   5.986  69.060  1.00  0.00    -0.393 A  
HETATM   26  C   UNL     1     -10.263   7.074  69.790  1.00  0.00    -0.213 A  
HETATM   27  C   UNL     1     -10.026   8.295  69.152  1.00  0.00    -0.196 A  
ENDBRANCH  18  22
ENDBRANCH  16  18
ENDBRANCH  13  14
TORSDOF 3
ENDMDL
MODEL        8
REMARK 921   NORMALIZED FREE ENERGY PREDICTED BY IDOCK:   -6.63 KCAL/MOL
REMARK 922        TOTAL FREE ENERGY PREDICTED BY IDOCK:   -8.49 KCAL/MOL
REMARK 923 INTER-LIGAND FREE ENERGY PREDICTED BY IDOCK:   -7.91 KCAL/MOL
REMARK 924 INTRA-LIGAND FREE ENERGY PREDICTED BY IDOCK:   -0.58 KCAL/MOL
REMARK 927      BINDING AFFINITY PREDICTED BY RF-SCORE:    0.00 PKD
ROOT
HETATM    1  C   UNL     1     -10.081  11.250  68.028  1.00  0.00    -0.177 C  
HETATM    2  S   UNL     1     -10.203   9.551  67.413  1.00  0.00    -0.244 SA 
HETATM    3  C   UNL     1      -9.926  10.033  65.692  1.00  0.00    -0.285 C  
HETATM    4  C   UNL     1     -10.747  11.221  65.238  1.00  0.00    -0.237 C  
HETATM    5 CL   UNL     1     -10.890  11.192  63.496  1.00  0.00    -0.374 Cl 
HETATM    6  CA  UNL     1     -11.317  12.155  66.049  1.00  0.00    -0.358 C  
HETATM    7  N   UNL     1     -11.115  12.056  67.400  1.00  0.00    -0.263 N  
HETATM    8  C   UNL     1     -12.183  13.256  65.462  1.00  0.00    -0.457 C  
HETATM    9  C   UNL     1     -11.620  12.561  68.547  1.00  0.00    -0.321 C  
HETATM   10  O   UNL     1     -12.655  14.189  66.312  1.00  0.00    -0.449 OA 
HETATM   11  OXT UNL     1     -12.419  13.384  64.270  1.00  0.00    -0.587 OA 
HETATM   12  O   UNL     1     -12.453  13.419  68.708  1.00  0.00    -0.072 OA 
HETATM   13  CA  UNL     1     -10.790  11.531  69.392  1.00  0.00    -0.126 C  
ENDROOT
BRANCH  13  14
HETATM   14  N   UNL     1     -11.568  10.408  69.953  1.00  0.00    -0.273 N  
HETATM   15  H   UNL     1     -11.473   9.495  69.507  1.00  0.00     0.000 HD 
HETATM   16  C   UNL     1     -12.411  10.508  71.037  1.00  0.00    -0.400 C  
HETATM   17  O   UNL     1     -12.563  11.546  71.672  1.00  0.00    -0.291 OA 
BRANCH  16  18
HETATM   18  CA  UNL     1     -13.137   9.178  71.361  1.00  0.00    -0.304 C  
HETATM   19  H2  UNL     1     -14.622  10.140  72.495  1.00  0.00     0.000 HD 
HETATM   20  N   UNL     1     -13.973   9.357  72.582  1.00  0.00    -0.761 NA 
HETATM   21  H1  UNL     1     -14.450   8.481  72.796  1.00  0.00     0.000 HD 
BRANCH  18  22
HETATM   22  C   UNL     1     -12.157   8.029  71.509  1.00  0.00    -0.330 A  
HETATM   23  C   UNL     1     -11.225   8.051  72.560  1.00  0.00    -0.452 A  
HETATM   24  C   UNL     1     -10.302   7.014  72.719  1.00  0.00    -0.248 A  
HETATM   25  C   UNL     1     -10.302   5.938  71.836  1.00  0.00    -0.255 A  
HETATM   26  C   UNL     1     -11.232   5.889  70.802  1.00  0.00    -0.281 A  
HETATM   27  C   UNL     1     -12.159   6.923  70.643  1.00  0.00    -0.363 A  
ENDBRANCH  18  22
ENDBRANCH  16  18
ENDBRANCH  13  14
TORSDOF 3
ENDMDL
MODEL        9
REMARK 921   NORMALIZED FREE ENERGY PREDICTED BY IDOCK:   -6.59 KCAL/MOL
REMARK 922        TOTAL FREE ENERGY PREDICTED BY IDOCK:   -8.45 KCAL/MOL
REMARK 923 INTER-LIGAND FREE ENERGY PREDICTED BY IDOCK:   -8.14 KCAL/MOL
REMARK 924 INTRA-LIGAND FREE ENERGY PREDICTED BY IDOCK:   -0.31 KCAL/MOL
REMARK 927      BINDING AFFINITY PREDICTED BY RF-SCORE:    0.00 PKD
ROOT
HETATM    1  C   UNL     1     -10.639  15.497  67.668  1.00  0.00    -0.291 C  
HETATM    2  S   UNL     1      -9.365  14.320  68.190  1.00  0.00    -0.212 SA 
HETATM    3  C   UNL     1      -8.503  15.534  69.217  1.00  0.00    -0.265 C  
HETATM    4  C   UNL     1      -8.279  16.872  68.544  1.00  0.00    -0.249 C  
HETATM    5 CL   UNL     1      -6.946  17.692  69.322  1.00  0.00    -0.212 Cl 
HETATM    6  CA  UNL     1      -8.976  17.358  67.480  1.00  0.00    -0.231 C  
HETATM    7  N   UNL     1     -10.004  16.606  66.975  1.00  0.00    -0.263 N  
HETATM    8  C   UNL     1      -8.592  18.687  66.852  1.00  0.00    -0.281 C  
HETATM    9  C   UNL     1     -10.781  16.550  65.872  1.00  0.00    -0.190 C  
HETATM   10  O   UNL     1      -9.370  19.143  65.851  1.00  0.00    -0.433 OA 
HETATM   11  OXT UNL     1      -7.674  19.391  67.241  1.00  0.00    -0.242 OA 
HETATM   12  O   UNL     1     -10.840  17.306  64.933  1.00  0.00    -0.773 OA 
HETATM   13  CA  UNL     1     -11.361  15.163  66.323  1.00  0.00    -0.219 C  
ENDROOT
BRANCH  13  14
HETATM   14  N   UNL     1     -10.838  13.995  65.588  1.00  0.00    -0.288 N  
HETATM   15  H   UNL     1      -9.829  13.845  65.590  1.00  0.00     0.000 HD 
HETATM   16  C   UNL     1     -11.618  13.093  64.899  1.00  0.00    -0.323 C  
HETATM   17  O   UNL     1     -12.842  13.155  64.868  1.00  0.00    -0.703 OA 
BRANCH  16  18
HETATM   18  CA  UNL     1     -10.785  12.004  64.176  1.00  0.00    -0.357 C  
HETATM   19  H2  UNL     1     -11.863  12.216  62.384  1.00  0.00     0.000 HD 
HETATM   20  N   UNL     1     -11.563  11.476  63.019  1.00  0.00    -0.856 NA 
HETATM   21  H1  UNL     1     -11.015  10.758  62.544  1.00  0.00     0.000 HD 
BRANCH  18  22
HETATM   22  C   UNL     1     -10.366  10.899  65.128  1.00  0.00    -0.344 A  
HETATM   23  C   UNL     1     -10.868  10.894  66.440  1.00  0.00    -0.210 A  
HETATM   24  C   UNL     1     -10.493   9.897  67.344  1.00  0.00    -0.325 A  
HETATM   25  C   UNL     1      -9.620   8.888  66.949  1.00  0.00    -0.248 A  
HETATM   26  C   UNL     1      -9.130   8.864  65.646  1.00  0.00    -0.269 A  
HETATM   27  C   UNL     1      -9.507   9.858  64.739  1.00  0.00    -0.356 A  
ENDBRANCH  18  22
ENDBRANCH  16  18
ENDBRANCH  13  14
TORSDOF 3
ENDMDL
MODEL       10
REMARK 921   NORMALIZED FREE ENERGY PREDICTED BY IDOCK:   -6.59 KCAL/MOL
REMARK 922        TOTAL FREE ENERGY PREDICTED BY IDOCK:   -8.44 KCAL/MOL
REMARK 923 INTER-LIGAND FREE ENERGY PREDICTED BY IDOCK:   -7.92 KCAL/MOL
REMARK 924 INTRA-LIGAND FREE ENERGY PREDICTED BY IDOCK:   -0.53 KCAL/MOL
REMARK 927      BINDING AFFINITY PREDICTED BY RF-SCORE:    0.00 PKD
ROOT
HETATM    1  C   UNL     1     -11.770  14.432  68.316  1.00  0.00    -0.341 C  
HETATM    2  S   UNL     1     -10.103  14.757  68.943  1.00  0.00    -0.230 SA 
HETATM    3  C   UNL     1     -10.028  16.411  68.214  1.00  0.00    -0.243 C  
HETATM    4  C   UNL     1     -10.481  16.476  66.771  1.00  0.00    -0.269 C  
HETATM    5 CL   UNL     1      -9.788  17.891  66.012  1.00  0.00    -0.233 Cl 
HETATM    6  CA  UNL     1     -11.275  15.567  66.141  1.00  0.00    -0.102 C  
HETATM    7  N   UNL     1     -11.753  14.506  66.864  1.00  0.00    -0.385 N  
HETATM    8  C   UNL     1     -11.590  15.716  64.662  1.00  0.00    -0.249 C  
HETATM    9  C   UNL     1     -12.340  13.309  66.652  1.00  0.00    -0.212 C  
HETATM   10  O   UNL     1     -12.442  14.823  64.120  1.00  0.00    -0.758 OA 
HETATM   11  OXT UNL     1     -11.176  16.625  63.959  1.00  0.00    -1.052 OA 
HETATM   12  O   UNL     1     -12.729  12.814  65.622  1.00  0.00    -0.549 OA 
HETATM   13  CA  UNL     1     -12.157  12.926  68.163  1.00  0.00    -0.136 C  
ENDROOT
BRANCH  13  14
HETATM   14  N   UNL     1     -11.077  11.957  68.439  1.00  0.00    -0.225 N  
HETATM   15  H   UNL     1     -10.337  11.860  67.744  1.00  0.00     0.000 HD 
HETATM   16  C   UNL     1     -11.001  11.175  69.570  1.00  0.00    -0.220 C  
HETATM   17  O   UNL     1     -11.812  11.245  70.487  1.00  0.00    -0.338 OA 
BRANCH  16  18
HETATM   18  CA  UNL     1      -9.788  10.210  69.555  1.00  0.00    -0.232 C  
HETATM   19  H2  UNL     1      -8.415  11.769  69.236  1.00  0.00     0.000 HD 
HETATM   20  N   UNL     1      -8.651  10.858  68.841  1.00  0.00    -0.226 NA 
HETATM   21  H1  UNL     1      -7.853  10.223  68.831  1.00  0.00     0.000 HD 
BRANCH  18  22
HETATM   22  C   UNL     1     -10.149   8.869  68.945  1.00  0.00    -0.209 A  
HETATM   23  C   UNL     1     -10.487   7.798  69.788  1.00  0.00    -0.233 A  
HETATM   24  C   UNL     1     -10.815   6.547  69.259  1.00  0.00    -0.361 A  
HETATM   25  C   UNL     1     -10.818   6.351  67.881  1.00  0.00    -0.404 A  
HETATM   26  C   UNL     1     -10.507   7.407  67.029  1.00  0.00    -0.404 A  
HETATM   27  C   UNL     1     -10.183   8.660  67.556  1.00  0.00    -0.308 A  
ENDBRANCH  18  22
ENDBRANCH  16  18
ENDBRANCH  13  14
TORSDOF 3
ENDMDL
MODEL       11
REMARK 921   NORMALIZED FREE ENERGY PREDICTED BY IDOCK:   -6.59 KCAL/MOL
REMARK 922        TOTAL FREE ENERGY PREDICTED BY IDOCK:   -8.44 KCAL/MOL
REMARK 923 INTER-LIGAND FREE ENERGY PREDICTED BY IDOCK:   -8.05 KCAL/MOL
REMARK 924 INTRA-LIGAND FREE ENERGY PREDICTED BY IDOCK:   -0.39 KCAL/MOL
REMARK 927      BINDING AFFINITY PREDICTED BY RF-SCORE:    0.00 PKD
ROOT
HETATM    1  C   UNL     1     -11.880  15.216  68.830  1.00  0.00    -0.303 C  
HETATM    2  S   UNL     1     -10.697  15.413  70.187  1.00  0.00    -0.292 SA 
HETATM    3  C   UNL     1     -10.494  17.188  69.903  1.00  0.00     0.195 C  
HETATM    4  C   UNL     1     -10.278  17.566  68.453  1.00  0.00    -0.372 C  
HETATM    5 CL   UNL     1      -9.484  19.121  68.374  1.00  0.00    -0.400 Cl 
HETATM    6  CA  UNL     1     -10.615  16.810  67.372  1.00  0.00    -0.291 C  
HETATM    7  N   UNL     1     -11.241  15.609  67.584  1.00  0.00    -0.309 N  
HETATM    8  C   UNL     1     -10.269  17.278  65.969  1.00  0.00    -0.304 C  
HETATM    9  C   UNL     1     -11.542  14.482  66.905  1.00  0.00    -0.385 C  
HETATM   10  O   UNL     1     -10.697  16.517  64.941  1.00  0.00    -0.702 OA 
HETATM   11  OXT UNL     1      -9.693  18.325  65.715  1.00  0.00    -0.494 OA 
HETATM   12  O   UNL     1     -11.388  14.223  65.737  1.00  0.00    -0.315 OA 
HETATM   13  CA  UNL     1     -11.994  13.776  68.233  1.00  0.00    -0.357 C  
ENDROOT
BRANCH  13  14
HETATM   14  N   UNL     1     -11.043  12.783  68.771  1.00  0.00    -0.249 N  
HETATM   15  H   UNL     1     -10.338  13.109  69.431  1.00  0.00     0.000 HD 
HETATM   16  C   UNL     1     -11.044  11.445  68.442  1.00  0.00    -0.242 C  
HETATM   17  O   UNL     1     -11.875  10.941  67.695  1.00  0.00    -0.572 OA 
BRANCH  16  18
HETATM   18  CA  UNL     1      -9.892  10.658  69.117  1.00  0.00    -0.200 C  
HETATM   19  H2  UNL     1      -8.931  10.284  67.286  1.00  0.00     0.000 HD 
HETATM   20  N   UNL     1      -9.245   9.770  68.110  1.00  0.00    -0.129 NA 
HETATM   21  H1  UNL     1      -8.488   9.251  68.554  1.00  0.00     0.000 HD 
BRANCH  18  22
HETATM   22  C   UNL     1     -10.380   9.882  70.326  1.00  0.00    -0.339 A  
HETATM   23  C   UNL     1      -9.464   9.123  71.073  1.00  0.00    -0.344 A  
HETATM   24  C   UNL     1      -9.883   8.388  72.185  1.00  0.00    -0.372 A  
HETATM   25  C   UNL     1     -11.220   8.409  72.572  1.00  0.00    -0.406 A  
HETATM   26  C   UNL     1     -12.138   9.173  71.858  1.00  0.00    -0.448 A  
HETATM   27  C   UNL     1     -11.720   9.912  70.747  1.00  0.00    -0.424 A  
ENDBRANCH  18  22
ENDBRANCH  16  18
ENDBRANCH  13  14
TORSDOF 3
ENDMDL
MODEL       12
REMARK 921   NORMALIZED FREE ENERGY PREDICTED BY IDOCK:   -6.55 KCAL/MOL
REMARK 922        TOTAL FREE ENERGY PREDICTED BY IDOCK:   -8.40 KCAL/MOL
REMARK 923 INTER-LIGAND FREE ENERGY PREDICTED BY IDOCK:   -7.98 KCAL/MOL
REMARK 924 INTRA-LIGAND FREE ENERGY PREDICTED BY IDOCK:   -0.42 KCAL/MOL
REMARK 927      BINDING AFFINITY PREDICTED BY RF-SCORE:    0.00 PKD
ROOT
HETATM    1  C   UNL     1     -11.345  13.369  67.626  1.00  0.00    -0.290 C  
HETATM    2  S   UNL     1      -9.575  13.386  68.006  1.00  0.00    -0.222 SA 
HETATM    3  C   UNL     1      -9.442  15.183  67.845  1.00  0.00    -0.194 C  
HETATM    4  C   UNL     1     -10.109  15.749  66.608  1.00  0.00    -0.279 C  
HETATM    5 CL   UNL     1      -9.400  17.301  66.230  1.00  0.00    -0.269 Cl 
HETATM    6  CA  UNL     1     -11.084  15.141  65.878  1.00  0.00    -0.319 C  
HETATM    7  N   UNL     1     -11.551  13.923  66.298  1.00  0.00    -0.349 N  
HETATM    8  C   UNL     1     -11.611  15.790  64.610  1.00  0.00    -0.218 C  
HETATM    9  C   UNL     1     -12.286  12.894  65.825  1.00  0.00    -0.439 C  
HETATM   10  O   UNL     1     -12.627  15.171  63.976  1.00  0.00    -0.791 OA 
HETATM   11  OXT UNL     1     -11.220  16.861  64.172  1.00  0.00    -1.176 OA 
HETATM   12  O   UNL     1     -12.883  12.791  64.780  1.00  0.00    -0.707 OA 
HETATM   13  CA  UNL     1     -11.908  12.020  67.072  1.00  0.00    -0.176 C  
ENDROOT
BRANCH  13  14
HETATM   14  N   UNL     1     -10.906  10.965  66.819  1.00  0.00    -0.251 N  
HETATM   15  H   UNL     1     -10.390  11.001  65.940  1.00  0.00     0.000 HD 
HETATM   16  C   UNL     1     -10.622   9.935  67.687  1.00  0.00    -0.270 C  
HETATM   17  O   UNL     1     -11.152   9.823  68.788  1.00  0.00    -0.189 OA 
BRANCH  16  18
HETATM   18  CA  UNL     1      -9.569   8.946  67.126  1.00  0.00    -0.172 C  
HETATM   19  H2  UNL     1      -9.604   9.825  65.217  1.00  0.00     0.000 HD 
HETATM   20  N   UNL     1      -9.679   8.899  65.640  1.00  0.00    -0.470 NA 
HETATM   21  H1  UNL     1      -8.986   8.248  65.271  1.00  0.00     0.000 HD 
BRANCH  18  22
HETATM   22  C   UNL     1      -9.708   7.570  67.748  1.00  0.00    -0.176 A  
HETATM   23  C   UNL     1      -8.875   7.211  68.821  1.00  0.00    -0.130 A  
HETATM   24  C   UNL     1      -8.970   5.948  69.409  1.00  0.00    -0.122 A  
HETATM   25  C   UNL     1      -9.904   5.028  68.941  1.00  0.00    -0.245 A  
HETATM   26  C   UNL     1     -10.754   5.374  67.894  1.00  0.00    -0.095 A  
HETATM   27  C   UNL     1     -10.663   6.639  67.306  1.00  0.00    -0.427 A  
ENDBRANCH  18  22
ENDBRANCH  16  18
ENDBRANCH  13  14
TORSDOF 3
ENDMDL
MODEL       13
REMARK 921   NORMALIZED FREE ENERGY PREDICTED BY IDOCK:   -6.47 KCAL/MOL
REMARK 922        TOTAL FREE ENERGY PREDICTED BY IDOCK:   -8.31 KCAL/MOL
REMARK 923 INTER-LIGAND FREE ENERGY PREDICTED BY IDOCK:   -7.99 KCAL/MOL
REMARK 924 INTRA-LIGAND FREE ENERGY PREDICTED BY IDOCK:   -0.32 KCAL/MOL
REMARK 927      BINDING AFFINITY PREDICTED BY RF-SCORE:    0.00 PKD
ROOT
HETATM    1  C   UNL     1     -11.739  14.742  68.566  1.00  0.00    -0.317 C  
HETATM    2  S   UNL     1     -10.130  15.237  69.233  1.00  0.00    -0.262 SA 
HETATM    3  C   UNL     1     -10.168  16.857  68.428  1.00  0.00    -0.322 C  
HETATM    4  C   UNL     1     -10.570  16.818  66.969  1.00  0.00    -0.234 C  
HETATM    5 CL   UNL     1      -9.972  18.252  66.168  1.00  0.00    -0.339 Cl 
HETATM    6  CA  UNL     1     -11.260  15.817  66.357  1.00  0.00     0.034 C  
HETATM    7  N   UNL     1     -11.674  14.752  67.114  1.00  0.00    -0.365 N  
HETATM    8  C   UNL     1     -11.531  15.871  64.863  1.00  0.00    -0.162 C  
HETATM    9  C   UNL     1     -12.148  13.500  66.940  1.00  0.00    -0.368 C  
HETATM   10  O   UNL     1     -12.283  14.885  64.336  1.00  0.00    -0.481 OA 
HETATM   11  OXT UNL     1     -11.169  16.780  64.132  1.00  0.00    -1.155 OA 
HETATM   12  O   UNL     1     -12.455  12.928  65.922  1.00  0.00    -0.527 OA 
HETATM   13  CA  UNL     1     -11.990  13.203  68.473  1.00  0.00    -0.289 C  
ENDROOT
BRANCH  13  14
HETATM   14  N   UNL     1     -10.844  12.343  68.831  1.00  0.00    -0.319 N  
HETATM   15  H   UNL     1     -10.083  12.765  69.362  1.00  0.00     0.000 HD 
HETATM   16  C   UNL     1     -10.733  11.012  68.497  1.00  0.00    -0.202 C  
HETATM   17  O   UNL     1     -11.609  10.398  67.899  1.00  0.00    -0.406 OA 
BRANCH  16  18
HETATM   18  CA  UNL     1      -9.392  10.385  68.957  1.00  0.00    -0.194 C  
HETATM   19  H2  UNL     1      -8.731  10.087  66.984  1.00  0.00     0.000 HD 
HETATM   20  N   UNL     1      -8.829   9.558  67.851  1.00  0.00    -0.120 NA 
HETATM   21  H1  UNL     1      -7.947   9.145  68.154  1.00  0.00     0.000 HD 
BRANCH  18  22
HETATM   22  C   UNL     1      -9.561   9.584  70.234  1.00  0.00    -0.314 A  
HETATM   23  C   UNL     1      -8.434   8.992  70.829  1.00  0.00    -0.238 A  
HETATM   24  C   UNL     1      -8.556   8.239  72.000  1.00  0.00    -0.238 A  
HETATM   25  C   UNL     1      -9.803   8.074  72.597  1.00  0.00    -0.347 A  
HETATM   26  C   UNL     1     -10.927   8.671  72.033  1.00  0.00    -0.432 A  
HETATM   27  C   UNL     1     -10.807   9.428  70.865  1.00  0.00    -0.392 A  
ENDBRANCH  18  22
ENDBRANCH  16  18
ENDBRANCH  13  14
TORSDOF 3
ENDMDL
MODEL       14
REMARK 921   NORMALIZED FREE ENERGY PREDICTED BY IDOCK:   -6.44 KCAL/MOL
REMARK 922        TOTAL FREE ENERGY PREDICTED BY IDOCK:   -8.27 KCAL/MOL
REMARK 923 INTER-LIGAND FREE ENERGY PREDICTED BY IDOCK:   -7.75 KCAL/MOL
REMARK 924 INTRA-LIGAND FREE ENERGY PREDICTED BY IDOCK:   -0.52 KCAL/MOL
REMARK 927      BINDING AFFINITY PREDICTED BY RF-SCORE:    0.00 PKD
ROOT
HETATM    1  C   UNL     1      -9.973  10.902  67.758  1.00  0.00    -0.176 C  
HETATM    2  S   UNL     1     -10.156   9.315  66.904  1.00  0.00    -0.266 SA 
HETATM    3  C   UNL     1     -10.001  10.053  65.260  1.00  0.00    -0.298 C  
HETATM    4  C   UNL     1     -10.842  11.294  65.052  1.00  0.00    -0.216 C  
HETATM    5 CL   UNL     1     -11.113  11.528  63.342  1.00  0.00    -0.435 Cl 
HETATM    6  CA  UNL     1     -11.343  12.093  66.035  1.00  0.00    -0.358 C  
HETATM    7  N   UNL     1     -11.043  11.792  67.337  1.00  0.00    -0.263 N  
HETATM    8  C   UNL     1     -12.240  13.269  65.687  1.00  0.00    -0.462 C  
HETATM    9  C   UNL     1     -11.458  12.116  68.581  1.00  0.00    -0.296 C  
HETATM   10  O   UNL     1     -12.640  14.061  66.701  1.00  0.00    -0.358 OA 
HETATM   11  OXT UNL     1     -12.562  13.575  64.549  1.00  0.00    -0.602 OA 
HETATM   12  O   UNL     1     -12.270  12.938  68.931  1.00  0.00    -0.213 OA 
HETATM   13  CA  UNL     1     -10.578  10.972  69.197  1.00  0.00    -0.219 C  
ENDROOT
BRANCH  13  14
HETATM   14  N   UNL     1     -11.323   9.776  69.638  1.00  0.00    -0.405 N  
HETATM   15  H   UNL     1     -12.083   9.444  69.045  1.00  0.00     0.000 HD 
HETATM   16  C   UNL     1     -11.061   9.076  70.795  1.00  0.00    -0.272 C  
HETATM   17  O   UNL     1     -10.143   9.362  71.556  1.00  0.00    -0.288 OA 
BRANCH  16  18
HETATM   18  CA  UNL     1     -12.044   7.901  71.024  1.00  0.00    -0.230 C  
HETATM   19  H2  UNL     1     -13.332   9.068  72.206  1.00  0.00     0.000 HD 
HETATM   20  N   UNL     1     -12.855   8.167  72.247  1.00  0.00    -0.518 NA 
HETATM   21  H1  UNL     1     -13.501   7.393  72.399  1.00  0.00     0.000 HD 
BRANCH  18  22
HETATM   22  C   UNL     1     -11.316   6.572  71.106  1.00  0.00    -0.367 A  
HETATM   23  C   UNL     1     -10.715   6.045  69.951  1.00  0.00    -0.393 A  
HETATM   24  C   UNL     1     -10.046   4.819  69.990  1.00  0.00    -0.308 A  
HETATM   25  C   UNL     1      -9.960   4.107  71.183  1.00  0.00    -0.211 A  
HETATM   26  C   UNL     1     -10.531   4.625  72.342  1.00  0.00    -0.250 A  
HETATM   27  C   UNL     1     -11.198   5.853  72.307  1.00  0.00    -0.343 A  
ENDBRANCH  18  22
ENDBRANCH  16  18
ENDBRANCH  13  14
TORSDOF 3
ENDMDL
MODEL       15
REMARK 921   NORMALIZED FREE ENERGY PREDICTED BY IDOCK:   -6.37 KCAL/MOL
REMARK 922        TOTAL FREE ENERGY PREDICTED BY IDOCK:   -8.19 KCAL/MOL
REMARK 923 INTER-LIGAND FREE ENERGY PREDICTED BY IDOCK:   -7.67 KCAL/MOL
REMARK 924 INTRA-LIGAND FREE ENERGY PREDICTED BY IDOCK:   -0.52 KCAL/MOL
REMARK 927      BINDING AFFINITY PREDICTED BY RF-SCORE:    0.00 PKD
ROOT
HETATM    1  C   UNL     1      -9.956  10.906  67.811  1.00  0.00    -0.176 C  
HETATM    2  S   UNL     1     -10.136   9.278  67.039  1.00  0.00    -0.265 SA 
HETATM    3  C   UNL     1      -9.950   9.928  65.360  1.00  0.00    -0.279 C  
HETATM    4  C   UNL     1     -10.779  11.162  65.074  1.00  0.00    -0.231 C  
HETATM    5 CL   UNL     1     -11.021  11.307  63.349  1.00  0.00    -0.366 Cl 
HETATM    6  CA  UNL     1     -11.290  12.014  66.005  1.00  0.00    -0.343 C  
HETATM    7  N   UNL     1     -11.013  11.780  67.327  1.00  0.00    -0.251 N  
HETATM    8  C   UNL     1     -12.173  13.175  65.581  1.00  0.00    -0.466 C  
HETATM    9  C   UNL     1     -11.445  12.171  68.544  1.00  0.00    -0.300 C  
HETATM   10  O   UNL     1     -12.583  14.022  66.546  1.00  0.00    -0.393 OA 
HETATM   11  OXT UNL     1     -12.474  13.423  64.424  1.00  0.00    -0.568 OA 
HETATM   12  O   UNL     1     -12.257  13.015  68.838  1.00  0.00    -0.232 OA 
HETATM   13  CA  UNL     1     -10.583  11.056  69.234  1.00  0.00    -0.201 C  
ENDROOT
BRANCH  13  14
HETATM   14  N   UNL     1     -11.343   9.889  69.725  1.00  0.00    -0.357 N  
HETATM   15  H   UNL     1     -12.139   9.574  69.171  1.00  0.00     0.000 HD 
HETATM   16  C   UNL     1     -11.051   9.197  70.879  1.00  0.00    -0.291 C  
HETATM   17  O   UNL     1     -10.091   9.464  71.594  1.00  0.00    -0.256 OA 
BRANCH  16  18
HETATM   18  CA  UNL     1     -12.058   8.055  71.169  1.00  0.00    -0.265 C  
HETATM   19  H2  UNL     1     -13.291   9.294  72.336  1.00  0.00     0.000 HD 
HETATM   20  N   UNL     1     -12.835   8.383  72.398  1.00  0.00    -0.548 NA 
HETATM   21  H1  UNL     1     -13.497   7.632  72.590  1.00  0.00     0.000 HD 
BRANCH  18  22
HETATM   22  C   UNL     1     -11.361   6.712  71.281  1.00  0.00    -0.346 A  
HETATM   23  C   UNL     1     -11.289   6.076  72.532  1.00  0.00    -0.344 A  
HETATM   24  C   UNL     1     -10.646   4.844  72.671  1.00  0.00    -0.272 A  
HETATM   25  C   UNL     1     -10.073   4.226  71.563  1.00  0.00    -0.205 A  
HETATM   26  C   UNL     1     -10.154   4.830  70.312  1.00  0.00    -0.304 A  
HETATM   27  C   UNL     1     -10.801   6.061  70.169  1.00  0.00    -0.409 A  
ENDBRANCH  18  22
ENDBRANCH  16  18
ENDBRANCH  13  14
TORSDOF 3
ENDMDL
MODEL       16
REMARK 921   NORMALIZED FREE ENERGY PREDICTED BY IDOCK:   -6.34 KCAL/MOL
REMARK 922        TOTAL FREE ENERGY PREDICTED BY IDOCK:   -8.16 KCAL/MOL
REMARK 923 INTER-LIGAND FREE ENERGY PREDICTED BY IDOCK:   -7.54 KCAL/MOL
REMARK 924 INTRA-LIGAND FREE ENERGY PREDICTED BY IDOCK:   -0.62 KCAL/MOL
REMARK 927      BINDING AFFINITY PREDICTED BY RF-SCORE:    0.00 PKD
ROOT
HETATM    1  C   UNL     1     -11.922  13.758  66.353  1.00  0.00    -0.438 C  
HETATM    2  S   UNL     1     -11.972  14.492  64.699  1.00  0.00    -0.463 SA 
HETATM    3  C   UNL     1     -11.805  12.897  63.862  1.00  0.00    -0.473 C  
HETATM    4  C   UNL     1     -10.717  12.008  64.425  1.00  0.00    -0.323 C  
HETATM    5 CL   UNL     1     -10.230  10.851  63.209  1.00  0.00    -0.375 Cl 
HETATM    6  CA  UNL     1     -10.172  12.104  65.669  1.00  0.00    -0.256 C  
HETATM    7  N   UNL     1     -10.659  13.058  66.524  1.00  0.00    -0.279 N  
HETATM    8  C   UNL     1      -9.028  11.193  66.079  1.00  0.00    -0.200 C  
HETATM    9  C   UNL     1     -10.319  13.656  67.685  1.00  0.00    -0.239 C  
HETATM   10  O   UNL     1      -8.586  11.290  67.348  1.00  0.00    -0.132 OA 
HETATM   11  OXT UNL     1      -8.536  10.339  65.357  1.00  0.00    -0.146 OA 
HETATM   12  O   UNL     1      -9.401  13.420  68.433  1.00  0.00    -0.206 OA 
HETATM   13  CA  UNL     1     -11.469  14.710  67.505  1.00  0.00    -0.361 C  
ENDROOT
BRANCH  13  14
HETATM   14  N   UNL     1     -11.026  16.056  67.088  1.00  0.00    -0.244 N  
HETATM   15  H   UNL     1     -10.938  16.237  66.088  1.00  0.00     0.000 HD 
HETATM   16  C   UNL     1     -10.725  17.082  67.955  1.00  0.00    -0.365 C  
HETATM   17  O   UNL     1     -10.840  16.984  69.172  1.00  0.00    -0.288 OA 
BRANCH  16  18
HETATM   18  CA  UNL     1     -10.232  18.359  67.229  1.00  0.00    -0.374 C  
HETATM   19  H2  UNL     1     -11.458  18.012  65.558  1.00  0.00     0.000 HD 
HETATM   20  N   UNL     1     -10.481  18.222  65.766  1.00  0.00    -0.617 NA 
HETATM   21  H1  UNL     1     -10.156  19.063  65.288  1.00  0.00     0.000 HD 
BRANCH  18  22
HETATM   22  C   UNL     1      -8.773  18.645  67.531  1.00  0.00    -0.284 A  
HETATM   23  C   UNL     1      -7.779  18.117  66.690  1.00  0.00    -0.264 A  
HETATM   24  C   UNL     1      -6.427  18.352  66.946  1.00  0.00    -0.204 A  
HETATM   25  C   UNL     1      -6.047  19.125  68.039  1.00  0.00    -0.225 A  
HETATM   26  C   UNL     1      -7.018  19.675  68.871  1.00  0.00    -0.382 A  
HETATM   27  C   UNL     1      -8.372  19.444  68.615  1.00  0.00    -0.397 A  
ENDBRANCH  18  22
ENDBRANCH  16  18
ENDBRANCH  13  14
TORSDOF 3
ENDMDL
MODEL       17
REMARK 921   NORMALIZED FREE ENERGY PREDICTED BY IDOCK:   -6.28 KCAL/MOL
REMARK 922        TOTAL FREE ENERGY PREDICTED BY IDOCK:   -8.09 KCAL/MOL
REMARK 923 INTER-LIGAND FREE ENERGY PREDICTED BY IDOCK:   -8.75 KCAL/MOL
REMARK 924 INTRA-LIGAND FREE ENERGY PREDICTED BY IDOCK:    0.67 KCAL/MOL
REMARK 927      BINDING AFFINITY PREDICTED BY RF-SCORE:    0.00 PKD
ROOT
HETATM    1  C   UNL     1     -10.375  14.240  66.802  1.00  0.00    -0.274 C  
HETATM    2  S   UNL     1      -9.716  13.034  67.980  1.00  0.00    -0.228 SA 
HETATM    3  C   UNL     1      -8.779  12.141  66.716  1.00  0.00    -0.183 C  
HETATM    4  C   UNL     1      -9.563  11.841  65.456  1.00  0.00    -0.201 C  
HETATM    5 CL   UNL     1      -8.826  10.491  64.626  1.00  0.00    -0.203 Cl 
HETATM    6  CA  UNL     1     -10.685  12.491  65.039  1.00  0.00    -0.294 C  
HETATM    7  N   UNL     1     -11.148  13.540  65.789  1.00  0.00    -0.286 N  
HETATM    8  C   UNL     1     -11.418  12.034  63.790  1.00  0.00    -0.461 C  
HETATM    9  C   UNL     1     -12.262  14.293  65.911  1.00  0.00    -0.407 C  
HETATM   10  O   UNL     1     -12.477  12.766  63.393  1.00  0.00    -0.682 OA 
HETATM   11  OXT UNL     1     -11.069  11.093  63.093  1.00  0.00    -0.105 OA 
HETATM   12  O   UNL     1     -13.266  14.296  65.241  1.00  0.00    -0.704 OA 
HETATM   13  CA  UNL     1     -11.704  14.946  67.225  1.00  0.00    -0.291 C  
ENDROOT
BRANCH  13  14
HETATM   14  N   UNL     1     -12.318  14.459  68.477  1.00  0.00    -0.594 N  
HETATM   15  H   UNL     1     -13.035  13.738  68.405  1.00  0.00     0.000 HD 
HETATM   16  C   UNL     1     -11.987  14.911  69.735  1.00  0.00    -0.323 C  
HETATM   17  O   UNL     1     -11.109  15.742  69.937  1.00  0.00    -0.272 OA 
BRANCH  16  18
HETATM   18  CA  UNL     1     -12.839  14.259  70.853  1.00  0.00    -0.347 C  
HETATM   19  H2  UNL     1     -12.622  15.912  72.132  1.00  0.00     0.000 HD 
HETATM   20  N   UNL     1     -12.512  14.898  72.159  1.00  0.00    -0.326 NA 
HETATM   21  H1  UNL     1     -13.072  14.468  72.895  1.00  0.00     0.000 HD 
BRANCH  18  22
HETATM   22  C   UNL     1     -12.647  12.754  70.895  1.00  0.00    -0.342 A  
HETATM   23  C   UNL     1     -13.264  12.009  71.913  1.00  0.00    -0.469 A  
HETATM   24  C   UNL     1     -13.098  10.624  71.987  1.00  0.00    -0.501 A  
HETATM   25  C   UNL     1     -12.321   9.963  71.040  1.00  0.00    -0.451 A  
HETATM   26  C   UNL     1     -11.720  10.681  70.010  1.00  0.00    -0.405 A  
HETATM   27  C   UNL     1     -11.888  12.067  69.933  1.00  0.00    -0.405 A  
ENDBRANCH  18  22
ENDBRANCH  16  18
ENDBRANCH  13  14
TORSDOF 3
ENDMDL
MODEL       18
REMARK 921   NORMALIZED FREE ENERGY PREDICTED BY IDOCK:   -6.27 KCAL/MOL
REMARK 922        TOTAL FREE ENERGY PREDICTED BY IDOCK:   -8.07 KCAL/MOL
REMARK 923 INTER-LIGAND FREE ENERGY PREDICTED BY IDOCK:   -7.38 KCAL/MOL
REMARK 924 INTRA-LIGAND FREE ENERGY PREDICTED BY IDOCK:   -0.69 KCAL/MOL
REMARK 927      BINDING AFFINITY PREDICTED BY RF-SCORE:    0.00 PKD
ROOT
HETATM    1  C   UNL     1      -7.980  15.992  69.103  1.00  0.00    -0.238 C  
HETATM    2  S   UNL     1      -7.061  14.723  68.196  1.00  0.00    -0.138 SA 
HETATM    3  C   UNL     1      -5.914  15.915  67.465  1.00  0.00    -0.133 C  
HETATM    4  C   UNL     1      -6.580  17.142  66.880  1.00  0.00    -0.205 C  
HETATM    5 CL   UNL     1      -5.520  17.862  65.691  1.00  0.00    -0.213 Cl 
HETATM    6  CA  UNL     1      -7.821  17.604  67.196  1.00  0.00    -0.209 C  
HETATM    7  N   UNL     1      -8.540  16.940  68.155  1.00  0.00    -0.214 N  
HETATM    8  C   UNL     1      -8.400  18.808  66.472  1.00  0.00    -0.297 C  
HETATM    9  C   UNL     1      -9.808  16.874  68.616  1.00  0.00    -0.270 C  
HETATM   10  O   UNL     1      -9.601  19.257  66.886  1.00  0.00    -0.307 OA 
HETATM   11  OXT UNL     1      -7.819  19.428  65.594  1.00  0.00    -0.436 OA 
HETATM   12  O   UNL     1     -10.771  17.537  68.316  1.00  0.00    -0.371 OA 
HETATM   13  CA  UNL     1      -9.448  15.621  69.490  1.00  0.00    -0.275 C  
ENDROOT
BRANCH  13  14
HETATM   14  N   UNL     1      -9.941  14.330  68.968  1.00  0.00    -0.395 N  
HETATM   15  H   UNL     1      -9.312  13.784  68.380  1.00  0.00     0.000 HD 
HETATM   16  C   UNL     1     -11.192  13.813  69.222  1.00  0.00    -0.242 C  
HETATM   17  O   UNL     1     -12.008  14.365  69.952  1.00  0.00    -0.294 OA 
BRANCH  16  18
HETATM   18  CA  UNL     1     -11.448  12.470  68.493  1.00  0.00    -0.305 C  
HETATM   19  H2  UNL     1     -10.256  11.386  69.844  1.00  0.00     0.000 HD 
HETATM   20  N   UNL     1     -10.362  11.507  68.836  1.00  0.00    -0.311 NA 
HETATM   21  H1  UNL     1     -10.530  10.623  68.356  1.00  0.00     0.000 HD 
BRANCH  18  22
HETATM   22  C   UNL     1     -11.579  12.664  66.994  1.00  0.00    -0.431 A  
HETATM   23  C   UNL     1     -12.317  13.754  66.504  1.00  0.00    -0.432 A  
HETATM   24  C   UNL     1     -12.466  13.956  65.130  1.00  0.00    -0.479 A  
HETATM   25  C   UNL     1     -11.874  13.078  64.226  1.00  0.00    -0.456 A  
HETATM   26  C   UNL     1     -11.120  12.006  64.694  1.00  0.00    -0.375 A  
HETATM   27  C   UNL     1     -10.966  11.804  66.068  1.00  0.00    -0.355 A  
ENDBRANCH  18  22
ENDBRANCH  16  18
ENDBRANCH  13  14
TORSDOF 3
ENDMDL
MODEL       19
REMARK 921   NORMALIZED FREE ENERGY PREDICTED BY IDOCK:   -6.22 KCAL/MOL
REMARK 922        TOTAL FREE ENERGY PREDICTED BY IDOCK:   -8.02 KCAL/MOL
REMARK 923 INTER-LIGAND FREE ENERGY PREDICTED BY IDOCK:   -8.06 KCAL/MOL
REMARK 924 INTRA-LIGAND FREE ENERGY PREDICTED BY IDOCK:    0.04 KCAL/MOL
REMARK 927      BINDING AFFINITY PREDICTED BY RF-SCORE:    0.00 PKD
ROOT
HETATM    1  C   UNL     1     -10.070  17.940  66.266  1.00  0.00    -0.351 C  
HETATM    2  S   UNL     1     -10.610  19.269  67.371  1.00  0.00    -0.488 SA 
HETATM    3  C   UNL     1      -9.380  20.440  66.748  1.00  0.00    -0.306 C  
HETATM    4  C   UNL     1      -7.981  19.872  66.632  1.00  0.00    -0.314 C  
HETATM    5 CL   UNL     1      -6.823  21.180  66.654  1.00  0.00    -0.294 Cl 
HETATM    6  CA  UNL     1      -7.660  18.551  66.555  1.00  0.00    -0.246 C  
HETATM    7  N   UNL     1      -8.676  17.631  66.541  1.00  0.00    -0.263 N  
HETATM    8  C   UNL     1      -6.206  18.114  66.521  1.00  0.00    -0.180 C  
HETATM    9  C   UNL     1      -8.851  16.302  66.699  1.00  0.00    -0.254 C  
HETATM   10  O   UNL     1      -5.959  16.798  66.369  1.00  0.00    -0.306 OA 
HETATM   11  OXT UNL     1      -5.256  18.883  66.553  1.00  0.00    -0.136 OA 
HETATM   12  O   UNL     1      -8.029  15.428  66.834  1.00  0.00    -0.218 OA 
HETATM   13  CA  UNL     1     -10.409  16.488  66.734  1.00  0.00    -0.296 C  
ENDROOT
BRANCH  13  14
HETATM   14  N   UNL     1     -11.024  16.374  68.072  1.00  0.00    -0.346 N  
HETATM   15  H   UNL     1     -10.812  17.100  68.756  1.00  0.00     0.000 HD 
HETATM   16  C   UNL     1     -11.865  15.354  68.459  1.00  0.00    -0.272 C  
HETATM   17  O   UNL     1     -12.219  14.456  67.703  1.00  0.00    -0.328 OA 
BRANCH  16  18
HETATM   18  CA  UNL     1     -12.308  15.468  69.940  1.00  0.00    -0.277 C  
HETATM   19  H2  UNL     1     -11.125  17.173  70.275  1.00  0.00     0.000 HD 
HETATM   20  N   UNL     1     -11.298  16.260  70.698  1.00  0.00    -0.480 NA 
HETATM   21  H1  UNL     1     -11.589  16.335  71.673  1.00  0.00     0.000 HD 
BRANCH  18  22
HETATM   22  C   UNL     1     -12.538  14.103  70.560  1.00  0.00    -0.410 A  
HETATM   23  C   UNL     1     -13.416  13.981  71.650  1.00  0.00    -0.438 A  
HETATM   24  C   UNL     1     -13.642  12.740  72.251  1.00  0.00    -0.563 A  
HETATM   25  C   UNL     1     -13.002  11.603  71.766  1.00  0.00    -0.483 A  
HETATM   26  C   UNL     1     -12.147  11.700  70.673  1.00  0.00    -0.432 A  
HETATM   27  C   UNL     1     -11.922  12.940  70.068  1.00  0.00    -0.380 A  
ENDBRANCH  18  22
ENDBRANCH  16  18
ENDBRANCH  13  14
TORSDOF 3
ENDMDL
MODEL       20
REMARK 921   NORMALIZED FREE ENERGY PREDICTED BY IDOCK:   -6.21 KCAL/MOL
REMARK 922        TOTAL FREE ENERGY PREDICTED BY IDOCK:   -8.00 KCAL/MOL
REMARK 923 INTER-LIGAND FREE ENERGY PREDICTED BY IDOCK:   -7.57 KCAL/MOL
REMARK 924 INTRA-LIGAND FREE ENERGY PREDICTED BY IDOCK:   -0.43 KCAL/MOL
REMARK 927      BINDING AFFINITY PREDICTED BY RF-SCORE:    0.00 PKD
ROOT
HETATM    1  C   UNL     1     -11.837  13.623  67.284  1.00  0.00    -0.391 C  
HETATM    2  S   UNL     1     -10.584  13.337  68.559  1.00  0.00    -0.247 SA 
HETATM    3  C   UNL     1     -10.565  15.067  69.088  1.00  0.00    -0.251 C  
HETATM    4  C   UNL     1     -10.489  16.065  67.952  1.00  0.00    -0.292 C  
HETATM    5 CL   UNL     1      -9.848  17.576  68.553  1.00  0.00    -0.312 Cl 
HETATM    6  CA  UNL     1     -10.831  15.827  66.656  1.00  0.00    -0.241 C  
HETATM    7  N   UNL     1     -11.328  14.593  66.328  1.00  0.00    -0.345 N  
HETATM    8  C   UNL     1     -10.631  16.899  65.599  1.00  0.00    -0.221 C  
HETATM    9  C   UNL     1     -11.572  13.851  65.226  1.00  0.00    -0.327 C  
HETATM   10  O   UNL     1     -11.060  16.624  64.351  1.00  0.00    -0.985 OA 
HETATM   11  OXT UNL     1     -10.172  18.009  65.823  1.00  0.00    -0.574 OA 
HETATM   12  O   UNL     1     -11.479  14.151  64.061  1.00  0.00    -0.234 OA 
HETATM   13  CA  UNL     1     -11.862  12.589  66.113  1.00  0.00    -0.397 C  
ENDROOT
BRANCH  13  14
HETATM   14  N   UNL     1     -10.788  11.575  66.130  1.00  0.00    -0.282 N  
HETATM   15  H   UNL     1     -10.324  11.391  67.020  1.00  0.00     0.000 HD 
HETATM   16  C   UNL     1     -10.372  10.860  65.030  1.00  0.00    -0.288 C  
HETATM   17  O   UNL     1     -10.892  10.971  63.925  1.00  0.00    -0.356 OA 
BRANCH  16  18
HETATM   18  CA  UNL     1      -9.188   9.910  65.340  1.00  0.00    -0.211 C  
HETATM   19  H2  UNL     1      -8.840   9.505  63.308  1.00  0.00     0.000 HD 
HETATM   20  N   UNL     1      -8.972   8.996  64.183  1.00  0.00    -0.426 NA 
HETATM   21  H1  UNL     1      -8.193   8.370  64.387  1.00  0.00     0.000 HD 
BRANCH  18  22
HETATM   22  C   UNL     1      -9.410   9.145  66.632  1.00  0.00    -0.228 A  
HETATM   23  C   UNL     1     -10.386   8.136  66.675  1.00  0.00    -0.284 A  
HETATM   24  C   UNL     1     -10.623   7.420  67.851  1.00  0.00    -0.255 A  
HETATM   25  C   UNL     1      -9.883   7.696  68.997  1.00  0.00    -0.168 A  
HETATM   26  C   UNL     1      -8.896   8.677  68.967  1.00  0.00    -0.138 A  
HETATM   27  C   UNL     1      -8.655   9.392  67.790  1.00  0.00    -0.116 A  
ENDBRANCH  18  22
ENDBRANCH  16  18
ENDBRANCH  13  14
TORSDOF 3
ENDMDL
MODEL       21
REMARK 921   NORMALIZED FREE ENERGY PREDICTED BY IDOCK:   -6.20 KCAL/MOL
REMARK 922        TOTAL FREE ENERGY PREDICTED BY IDOCK:   -7.99 KCAL/MOL
REMARK 923 INTER-LIGAND FREE ENERGY PREDICTED BY IDOCK:   -7.47 KCAL/MOL
REMARK 924 INTRA-LIGAND FREE ENERGY PREDICTED BY IDOCK:   -0.52 KCAL/MOL
REMARK 927      BINDING AFFINITY PREDICTED BY RF-SCORE:    0.00 PKD
ROOT
HETATM    1  C   UNL     1      -9.597  10.114  69.692  1.00  0.00    -0.210 C  
HETATM    2  S   UNL     1     -10.968   9.958  70.864  1.00  0.00    -0.262 SA 
HETATM    3  C   UNL     1     -10.883   8.151  70.897  1.00  0.00    -0.230 C  
HETATM    4  C   UNL     1     -10.783   7.507  69.530  1.00  0.00    -0.217 C  
HETATM    5 CL   UNL     1     -11.340   5.853  69.630  1.00  0.00    -0.340 Cl 
HETATM    6  CA  UNL     1     -10.359   8.117  68.389  1.00  0.00    -0.199 C  
HETATM    7  N   UNL     1      -9.944   9.421  68.462  1.00  0.00    -0.167 N  
HETATM    8  C   UNL     1     -10.383   7.373  67.066  1.00  0.00    -0.314 C  
HETATM    9  C   UNL     1      -9.676  10.454  67.634  1.00  0.00    -0.168 C  
HETATM   10  O   UNL     1      -9.880   8.010  65.990  1.00  0.00    -0.073 OA 
HETATM   11  OXT UNL     1     -10.762   6.219  66.932  1.00  0.00    -0.286 OA 
HETATM   12  O   UNL     1      -9.650  10.486  66.428  1.00  0.00    -0.167 OA 
HETATM   13  CA  UNL     1      -9.566  11.433  68.855  1.00  0.00    -0.073 C  
ENDROOT
BRANCH  13  14
HETATM   14  N   UNL     1     -10.720  12.337  69.041  1.00  0.00    -0.384 N  
HETATM   15  H   UNL     1     -11.621  11.916  69.266  1.00  0.00     0.000 HD 
HETATM   16  C   UNL     1     -10.662  13.708  68.931  1.00  0.00    -0.212 C  
HETATM   17  O   UNL     1      -9.622  14.318  68.708  1.00  0.00    -0.210 OA 
BRANCH  16  18
HETATM   18  CA  UNL     1     -12.043  14.386  69.120  1.00  0.00    -0.281 C  
HETATM   19  H2  UNL     1     -11.856  15.504  67.350  1.00  0.00     0.000 HD 
HETATM   20  N   UNL     1     -12.082  15.652  68.334  1.00  0.00    -0.458 NA 
HETATM   21  H1  UNL     1     -12.990  16.099  68.459  1.00  0.00     0.000 HD 
BRANCH  18  22
HETATM   22  C   UNL     1     -12.353  14.621  70.587  1.00  0.00    -0.398 A  
HETATM   23  C   UNL     1     -11.857  15.773  71.220  1.00  0.00    -0.491 A  
HETATM   24  C   UNL     1     -12.115  16.013  72.571  1.00  0.00    -0.635 A  
HETATM   25  C   UNL     1     -12.879  15.112  73.308  1.00  0.00    -0.640 A  
HETATM   26  C   UNL     1     -13.397  13.976  72.692  1.00  0.00    -0.643 A  
HETATM   27  C   UNL     1     -13.143  13.735  71.339  1.00  0.00    -0.413 A  
ENDBRANCH  18  22
ENDBRANCH  16  18
ENDBRANCH  13  14
TORSDOF 3
ENDMDL
MODEL       22
REMARK 921   NORMALIZED FREE ENERGY PREDICTED BY IDOCK:   -6.20 KCAL/MOL
REMARK 922        TOTAL FREE ENERGY PREDICTED BY IDOCK:   -7.98 KCAL/MOL
REMARK 923 INTER-LIGAND FREE ENERGY PREDICTED BY IDOCK:   -7.49 KCAL/MOL
REMARK 924 INTRA-LIGAND FREE ENERGY PREDICTED BY IDOCK:   -0.50 KCAL/MOL
REMARK 927      BINDING AFFINITY PREDICTED BY RF-SCORE:    0.00 PKD
ROOT
HETATM    1  C   UNL     1      -9.790  14.090  66.416  1.00  0.00    -0.296 C  
HETATM    2  S   UNL     1     -11.056  15.241  67.008  1.00  0.00    -0.267 SA 
HETATM    3  C   UNL     1     -10.244  16.686  66.283  1.00  0.00    -0.334 C  
HETATM    4  C   UNL     1      -8.756  16.763  66.548  1.00  0.00    -0.275 C  
HETATM    5 CL   UNL     1      -8.225  18.420  66.383  1.00  0.00    -0.290 Cl 
HETATM    6  CA  UNL     1      -7.951  15.720  66.893  1.00  0.00    -0.250 C  
HETATM    7  N   UNL     1      -8.504  14.469  66.979  1.00  0.00    -0.215 N  
HETATM    8  C   UNL     1      -6.484  15.953  67.207  1.00  0.00    -0.139 C  
HETATM    9  C   UNL     1      -8.198  13.250  67.471  1.00  0.00    -0.184 C  
HETATM   10  O   UNL     1      -5.729  14.867  67.469  1.00  0.00    -0.327 OA 
HETATM   11  OXT UNL     1      -5.938  17.045  67.171  1.00  0.00    -0.133 OA 
HETATM   12  O   UNL     1      -7.172  12.857  67.971  1.00  0.00    -0.090 OA 
HETATM   13  CA  UNL     1      -9.664  12.752  67.211  1.00  0.00    -0.206 C  
ENDROOT
BRANCH  13  14
HETATM   14  N   UNL     1     -10.511  12.640  68.416  1.00  0.00    -0.234 N  
HETATM   15  H   UNL     1     -10.274  13.222  69.219  1.00  0.00     0.000 HD 
HETATM   16  C   UNL     1     -11.600  11.804  68.528  1.00  0.00    -0.321 C  
HETATM   17  O   UNL     1     -11.998  11.097  67.609  1.00  0.00    -0.613 OA 
BRANCH  16  18
HETATM   18  CA  UNL     1     -12.259  11.859  69.930  1.00  0.00    -0.199 C  
HETATM   19  H2  UNL     1     -12.031  13.943  70.074  1.00  0.00     0.000 HD 
HETATM   20  N   UNL     1     -11.836  13.108  70.626  1.00  0.00    -0.522 NA 
HETATM   21  H1  UNL     1     -12.269  13.144  71.549  1.00  0.00     0.000 HD 
BRANCH  18  22
HETATM   22  C   UNL     1     -11.940  10.620  70.746  1.00  0.00    -0.477 A  
HETATM   23  C   UNL     1     -12.956  10.014  71.503  1.00  0.00    -0.535 A  
HETATM   24  C   UNL     1     -12.693   8.879  72.273  1.00  0.00    -0.464 A  
HETATM   25  C   UNL     1     -11.414   8.327  72.291  1.00  0.00    -0.452 A  
HETATM   26  C   UNL     1     -10.401   8.901  71.529  1.00  0.00    -0.394 A  
HETATM   27  C   UNL     1     -10.663  10.035  70.754  1.00  0.00    -0.272 A  
ENDBRANCH  18  22
ENDBRANCH  16  18
ENDBRANCH  13  14
TORSDOF 3
ENDMDL
MODEL       23
REMARK 921   NORMALIZED FREE ENERGY PREDICTED BY IDOCK:   -6.16 KCAL/MOL
REMARK 922        TOTAL FREE ENERGY PREDICTED BY IDOCK:   -7.94 KCAL/MOL
REMARK 923 INTER-LIGAND FREE ENERGY PREDICTED BY IDOCK:   -7.97 KCAL/MOL
REMARK 924 INTRA-LIGAND FREE ENERGY PREDICTED BY IDOCK:    0.03 KCAL/MOL
REMARK 927      BINDING AFFINITY PREDICTED BY RF-SCORE:    0.00 PKD
ROOT
HETATM    1  C   UNL     1      -9.595  16.397  69.119  1.00  0.00    -0.249 C  
HETATM    2  S   UNL     1      -8.394  15.112  68.686  1.00  0.00    -0.171 SA 
HETATM    3  C   UNL     1      -6.990  16.044  69.344  1.00  0.00    -0.216 C  
HETATM    4  C   UNL     1      -6.953  17.497  68.922  1.00  0.00    -0.252 C  
HETATM    5 CL   UNL     1      -5.317  18.095  69.056  1.00  0.00    -0.188 Cl 
HETATM    6  CA  UNL     1      -8.013  18.226  68.475  1.00  0.00    -0.308 C  
HETATM    7  N   UNL     1      -9.244  17.626  68.428  1.00  0.00    -0.282 N  
HETATM    8  C   UNL     1      -7.818  19.658  68.008  1.00  0.00    -0.306 C  
HETATM    9  C   UNL     1     -10.462  17.839  67.885  1.00  0.00    -0.397 C  
HETATM   10  O   UNL     1      -8.920  20.345  67.649  1.00  0.00    -0.323 OA 
HETATM   11  OXT UNL     1      -6.744  20.240  68.004  1.00  0.00    -0.270 OA 
HETATM   12  O   UNL     1     -10.875  18.793  67.271  1.00  0.00    -0.443 OA 
HETATM   13  CA  UNL     1     -10.920  16.394  68.292  1.00  0.00    -0.355 C  
ENDROOT
BRANCH  13  14
HETATM   14  N   UNL     1     -10.982  15.419  67.184  1.00  0.00    -0.326 N  
HETATM   15  H   UNL     1     -10.480  15.644  66.326  1.00  0.00     0.000 HD 
HETATM   16  C   UNL     1     -11.671  14.228  67.231  1.00  0.00    -0.395 C  
HETATM   17  O   UNL     1     -12.270  13.841  68.228  1.00  0.00    -0.335 OA 
BRANCH  16  18
HETATM   18  CA  UNL     1     -11.603  13.440  65.898  1.00  0.00    -0.342 C  
HETATM   19  H2  UNL     1     -13.302  14.401  65.119  1.00  0.00     0.000 HD 
HETATM   20  N   UNL     1     -12.944  13.454  65.248  1.00  0.00    -0.677 NA 
HETATM   21  H1  UNL     1     -12.900  12.934  64.371  1.00  0.00     0.000 HD 
BRANCH  18  22
HETATM   22  C   UNL     1     -11.091  12.027  66.110  1.00  0.00    -0.367 A  
HETATM   23  C   UNL     1     -10.432  11.368  65.059  1.00  0.00    -0.361 A  
HETATM   24  C   UNL     1      -9.959  10.064  65.219  1.00  0.00    -0.368 A  
HETATM   25  C   UNL     1     -10.128   9.403  66.432  1.00  0.00    -0.332 A  
HETATM   26  C   UNL     1     -10.758  10.048  67.492  1.00  0.00    -0.339 A  
HETATM   27  C   UNL     1     -11.230  11.355  67.336  1.00  0.00    -0.370 A  
ENDBRANCH  18  22
ENDBRANCH  16  18
ENDBRANCH  13  14
TORSDOF 3
ENDMDL
MODEL       24
REMARK 921   NORMALIZED FREE ENERGY PREDICTED BY IDOCK:   -6.16 KCAL/MOL
REMARK 922        TOTAL FREE ENERGY PREDICTED BY IDOCK:   -7.94 KCAL/MOL
REMARK 923 INTER-LIGAND FREE ENERGY PREDICTED BY IDOCK:   -7.37 KCAL/MOL
REMARK 924 INTRA-LIGAND FREE ENERGY PREDICTED BY IDOCK:   -0.57 KCAL/MOL
REMARK 927      BINDING AFFINITY PREDICTED BY RF-SCORE:    0.00 PKD
ROOT
HETATM    1  C   UNL     1     -10.320  10.267  69.554  1.00  0.00    -0.242 C  
HETATM    2  S   UNL     1     -11.710  11.416  69.387  1.00  0.00    -0.367 SA 
HETATM    3  C   UNL     1     -12.419  10.969  70.990  1.00  0.00    -0.409 C  
HETATM    4  C   UNL     1     -12.502   9.478  71.240  1.00  0.00    -0.346 C  
HETATM    5 CL   UNL     1     -13.727   9.163  72.448  1.00  0.00    -0.529 Cl 
HETATM    6  CA  UNL     1     -11.769   8.520  70.609  1.00  0.00    -0.144 C  
HETATM    7  N   UNL     1     -10.837   8.915  69.686  1.00  0.00    -0.215 N  
HETATM    8  C   UNL     1     -12.010   7.050  70.903  1.00  0.00    -0.364 C  
HETATM    9  C   UNL     1     -10.085   8.377  68.702  1.00  0.00    -0.193 C  
HETATM   10  O   UNL     1     -11.199   6.159  70.300  1.00  0.00    -0.343 OA 
HETATM   11  OXT UNL     1     -12.840   6.634  71.698  1.00  0.00    -0.323 OA 
HETATM   12  O   UNL     1      -9.954   7.222  68.378  1.00  0.00    -0.152 OA 
HETATM   13  CA  UNL     1      -9.656   9.807  68.217  1.00  0.00    -0.143 C  
ENDROOT
BRANCH  13  14
HETATM   14  N   UNL     1     -10.315  10.273  66.980  1.00  0.00    -0.231 N  
HETATM   15  H   UNL     1     -11.316  10.467  67.020  1.00  0.00     0.000 HD 
HETATM   16  C   UNL     1      -9.672  10.465  65.778  1.00  0.00    -0.228 C  
HETATM   17  O   UNL     1      -8.465  10.304  65.633  1.00  0.00    -0.147 OA 
BRANCH  16  18
HETATM   18  CA  UNL     1     -10.632  10.902  64.643  1.00  0.00    -0.262 C  
HETATM   19  H2  UNL     1      -9.649   9.721  63.209  1.00  0.00     0.000 HD 
HETATM   20  N   UNL     1      -9.971  10.683  63.325  1.00  0.00    -0.479 NA 
HETATM   21  H1  UNL     1     -10.602  10.972  62.578  1.00  0.00     0.000 HD 
BRANCH  18  22
HETATM   22  C   UNL     1     -11.083  12.341  64.818  1.00  0.00    -0.356 A  
HETATM   23  C   UNL     1     -12.437  12.611  65.076  1.00  0.00    -0.556 A  
HETATM   24  C   UNL     1     -12.887  13.924  65.232  1.00  0.00    -0.437 A  
HETATM   25  C   UNL     1     -11.990  14.985  65.140  1.00  0.00    -0.135 A  
HETATM   26  C   UNL     1     -10.641  14.735  64.906  1.00  0.00    -0.431 A  
HETATM   27  C   UNL     1     -10.188  13.422  64.754  1.00  0.00    -0.339 A  
ENDBRANCH  18  22
ENDBRANCH  16  18
ENDBRANCH  13  14
TORSDOF 3
ENDMDL
MODEL       25
REMARK 921   NORMALIZED FREE ENERGY PREDICTED BY IDOCK:   -6.15 KCAL/MOL
REMARK 922        TOTAL FREE ENERGY PREDICTED BY IDOCK:   -7.93 KCAL/MOL
REMARK 923 INTER-LIGAND FREE ENERGY PREDICTED BY IDOCK:   -7.37 KCAL/MOL
REMARK 924 INTRA-LIGAND FREE ENERGY PREDICTED BY IDOCK:   -0.56 KCAL/MOL
REMARK 927      BINDING AFFINITY PREDICTED BY RF-SCORE:    0.00 PKD
ROOT
HETATM    1  C   UNL     1     -11.587  13.361  67.260  1.00  0.00    -0.360 C  
HETATM    2  S   UNL     1     -10.111  12.313  67.197  1.00  0.00    -0.209 SA 
HETATM    3  C   UNL     1     -10.861  11.002  68.193  1.00  0.00    -0.226 C  
HETATM    4  C   UNL     1     -11.569  11.494  69.437  1.00  0.00    -0.321 C  
HETATM    5 CL   UNL     1     -11.676  10.188  70.594  1.00  0.00    -0.393 Cl 
HETATM    6  CA  UNL     1     -12.027  12.758  69.649  1.00  0.00    -0.288 C  
HETATM    7  N   UNL     1     -11.881  13.682  68.647  1.00  0.00    -0.358 N  
HETATM    8  C   UNL     1     -12.653  13.136  70.980  1.00  0.00    -0.312 C  
HETATM    9  C   UNL     1     -11.955  15.019  68.474  1.00  0.00    -0.225 C  
HETATM   10  O   UNL     1     -13.152  14.383  71.096  1.00  0.00    -0.334 OA 
HETATM   11  OXT UNL     1     -12.791  12.366  71.918  1.00  0.00    -0.301 OA 
HETATM   12  O   UNL     1     -12.298  15.877  69.249  1.00  0.00    -0.197 OA 
HETATM   13  CA  UNL     1     -11.345  14.888  67.033  1.00  0.00    -0.342 C  
ENDROOT
BRANCH  13  14
HETATM   14  N   UNL     1      -9.933  15.302  66.911  1.00  0.00    -0.236 N  
HETATM   15  H   UNL     1      -9.232  14.754  67.410  1.00  0.00     0.000 HD 
HETATM   16  C   UNL     1      -9.496  16.376  66.168  1.00  0.00    -0.329 C  
HETATM   17  O   UNL     1     -10.248  17.073  65.494  1.00  0.00    -0.589 OA 
BRANCH  16  18
HETATM   18  CA  UNL     1      -7.967  16.602  66.275  1.00  0.00    -0.305 C  
HETATM   19  H2  UNL     1      -7.601  14.603  66.813  1.00  0.00     0.000 HD 
HETATM   20  N   UNL     1      -7.371  15.543  67.139  1.00  0.00    -0.211 NA 
HETATM   21  H1  UNL     1      -6.365  15.692  67.210  1.00  0.00     0.000 HD 
BRANCH  18  22
HETATM   22  C   UNL     1      -7.643  17.995  66.782  1.00  0.00    -0.247 A  
HETATM   23  C   UNL     1      -7.718  18.261  68.159  1.00  0.00    -0.288 A  
HETATM   24  C   UNL     1      -7.437  19.535  68.658  1.00  0.00    -0.380 A  
HETATM   25  C   UNL     1      -7.067  20.559  67.790  1.00  0.00    -0.337 A  
HETATM   26  C   UNL     1      -6.965  20.308  66.424  1.00  0.00    -0.296 A  
HETATM   27  C   UNL     1      -7.243  19.033  65.924  1.00  0.00    -0.287 A  
ENDBRANCH  18  22
ENDBRANCH  16  18
ENDBRANCH  13  14
TORSDOF 3
ENDMDL
MODEL       26
REMARK 921   NORMALIZED FREE ENERGY PREDICTED BY IDOCK:   -6.14 KCAL/MOL
REMARK 922        TOTAL FREE ENERGY PREDICTED BY IDOCK:   -7.92 KCAL/MOL
REMARK 923 INTER-LIGAND FREE ENERGY PREDICTED BY IDOCK:   -7.48 KCAL/MOL
REMARK 924 INTRA-LIGAND FREE ENERGY PREDICTED BY IDOCK:   -0.44 KCAL/MOL
REMARK 927      BINDING AFFINITY PREDICTED BY RF-SCORE:    0.00 PKD
ROOT
HETATM    1  C   UNL     1      -9.938  15.217  67.595  1.00  0.00    -0.229 C  
HETATM    2  S   UNL     1     -11.306  16.164  68.308  1.00  0.00    -0.251 SA 
HETATM    3  C   UNL     1     -10.521  17.761  67.981  1.00  0.00    -0.394 C  
HETATM    4  C   UNL     1      -9.063  17.833  68.384  1.00  0.00    -0.278 C  
HETATM    5 CL   UNL     1      -8.613  19.504  68.624  1.00  0.00    -0.388 Cl 
HETATM    6  CA  UNL     1      -8.232  16.770  68.566  1.00  0.00    -0.242 C  
HETATM    7  N   UNL     1      -8.721  15.511  68.334  1.00  0.00    -0.169 N  
HETATM    8  C   UNL     1      -6.807  16.983  69.048  1.00  0.00    -0.229 C  
HETATM    9  C   UNL     1      -8.387  14.226  68.579  1.00  0.00    -0.156 C  
HETATM   10  O   UNL     1      -6.016  15.895  69.135  1.00  0.00    -0.113 OA 
HETATM   11  OXT UNL     1      -6.320  18.076  69.293  1.00  0.00    -0.234 OA 
HETATM   12  O   UNL     1      -7.381  13.773  69.070  1.00  0.00    -0.105 OA 
HETATM   13  CA  UNL     1      -9.799  13.743  68.094  1.00  0.00    -0.239 C  
ENDROOT
BRANCH  13  14
HETATM   14  N   UNL     1     -10.728  13.341  69.169  1.00  0.00    -0.436 N  
HETATM   15  H   UNL     1     -10.600  13.762  70.089  1.00  0.00     0.000 HD 
HETATM   16  C   UNL     1     -11.755  12.436  69.014  1.00  0.00    -0.323 C  
HETATM   17  O   UNL     1     -12.024  11.907  67.942  1.00  0.00    -0.556 OA 
BRANCH  16  18
HETATM   18  CA  UNL     1     -12.526  12.169  70.332  1.00  0.00    -0.144 C  
HETATM   19  H2  UNL     1     -12.416  14.180  70.931  1.00  0.00     0.000 HD 
HETATM   20  N   UNL     1     -12.223  13.253  71.310  1.00  0.00    -0.342 NA 
HETATM   21  H1  UNL     1     -12.729  13.076  72.177  1.00  0.00     0.000 HD 
BRANCH  18  22
HETATM   22  C   UNL     1     -12.209  10.795  70.894  1.00  0.00    -0.487 A  
HETATM   23  C   UNL     1     -13.133  10.171  71.749  1.00  0.00    -0.568 A  
HETATM   24  C   UNL     1     -12.868   8.912  72.291  1.00  0.00    -0.475 A  
HETATM   25  C   UNL     1     -11.681   8.254  71.981  1.00  0.00    -0.407 A  
HETATM   26  C   UNL     1     -10.764   8.846  71.118  1.00  0.00    -0.333 A  
HETATM   27  C   UNL     1     -11.029  10.105  70.571  1.00  0.00    -0.380 A  
ENDBRANCH  18  22
ENDBRANCH  16  18
ENDBRANCH  13  14
TORSDOF 3
ENDMDL
MODEL       27
REMARK 921   NORMALIZED FREE ENERGY PREDICTED BY IDOCK:   -6.12 KCAL/MOL
REMARK 922        TOTAL FREE ENERGY PREDICTED BY IDOCK:   -7.89 KCAL/MOL
REMARK 923 INTER-LIGAND FREE ENERGY PREDICTED BY IDOCK:   -7.24 KCAL/MOL
REMARK 924 INTRA-LIGAND FREE ENERGY PREDICTED BY IDOCK:   -0.66 KCAL/MOL
REMARK 927      BINDING AFFINITY PREDICTED BY RF-SCORE:    0.00 PKD
ROOT
HETATM    1  C   UNL     1     -11.666  14.121  68.116  1.00  0.00    -0.355 C  
HETATM    2  S   UNL     1     -10.060  14.703  68.716  1.00  0.00    -0.232 SA 
HETATM    3  C   UNL     1     -10.286  16.369  68.047  1.00  0.00    -0.288 C  
HETATM    4  C   UNL     1     -10.786  16.405  66.618  1.00  0.00    -0.173 C  
HETATM    5 CL   UNL     1     -10.364  17.940  65.898  1.00  0.00    -0.324 Cl 
HETATM    6  CA  UNL     1     -11.434  15.395  65.974  1.00  0.00    -0.002 C  
HETATM    7  N   UNL     1     -11.705  14.245  66.668  1.00  0.00    -0.384 N  
HETATM    8  C   UNL     1     -11.812  15.537  64.509  1.00  0.00    -0.216 C  
HETATM    9  C   UNL     1     -12.087  12.973  66.424  1.00  0.00    -0.358 C  
HETATM   10  O   UNL     1     -12.517  14.531  63.954  1.00  0.00    -0.814 OA 
HETATM   11  OXT UNL     1     -11.578  16.526  63.831  1.00  0.00    -1.175 OA 
HETATM   12  O   UNL     1     -12.417  12.454  65.386  1.00  0.00    -0.637 OA 
HETATM   13  CA  UNL     1     -11.798  12.578  67.916  1.00  0.00    -0.323 C  
ENDROOT
BRANCH  13  14
HETATM   14  N   UNL     1     -10.563  11.796  68.130  1.00  0.00    -0.195 N  
HETATM   15  H   UNL     1      -9.681  12.212  67.830  1.00  0.00     0.000 HD 
HETATM   16  C   UNL     1     -10.520  10.547  68.706  1.00  0.00    -0.196 C  
HETATM   17  O   UNL     1     -11.515   9.977  69.141  1.00  0.00    -0.155 OA 
BRANCH  16  18
HETATM   18  CA  UNL     1      -9.091   9.949  68.745  1.00  0.00    -0.147 C  
HETATM   19  H2  UNL     1      -8.596  10.970  70.514  1.00  0.00     0.000 HD 
HETATM   20  N   UNL     1      -8.215  10.820  69.580  1.00  0.00    -0.383 NA 
HETATM   21  H1  UNL     1      -7.274  10.427  69.605  1.00  0.00     0.000 HD 
BRANCH  18  22
HETATM   22  C   UNL     1      -8.530   9.753  67.349  1.00  0.00    -0.121 A  
HETATM   23  C   UNL     1      -9.177   8.875  66.463  1.00  0.00    -0.231 A  
HETATM   24  C   UNL     1      -8.680   8.665  65.175  1.00  0.00    -0.179 A  
HETATM   25  C   UNL     1      -7.536   9.334  64.749  1.00  0.00    -0.109 A  
HETATM   26  C   UNL     1      -6.895  10.225  65.605  1.00  0.00    -0.133 A  
HETATM   27  C   UNL     1      -7.392  10.440  66.893  1.00  0.00    -0.106 A  
ENDBRANCH  18  22
ENDBRANCH  16  18
ENDBRANCH  13  14
TORSDOF 3
ENDMDL
MODEL       28
REMARK 921   NORMALIZED FREE ENERGY PREDICTED BY IDOCK:   -6.08 KCAL/MOL
REMARK 922        TOTAL FREE ENERGY PREDICTED BY IDOCK:   -7.85 KCAL/MOL
REMARK 923 INTER-LIGAND FREE ENERGY PREDICTED BY IDOCK:   -7.71 KCAL/MOL
REMARK 924 INTRA-LIGAND FREE ENERGY PREDICTED BY IDOCK:   -0.13 KCAL/MOL
REMARK 927      BINDING AFFINITY PREDICTED BY RF-SCORE:    0.00 PKD
ROOT
HETATM    1  C   UNL     1      -9.795  15.589  67.001  1.00  0.00    -0.232 C  
HETATM    2  S   UNL     1     -10.796  16.254  68.355  1.00  0.00    -0.347 SA 
HETATM    3  C   UNL     1     -10.055  17.900  68.245  1.00  0.00    -0.375 C  
HETATM    4  C   UNL     1      -8.544  17.899  68.153  1.00  0.00    -0.264 C  
HETATM    5 CL   UNL     1      -7.932  19.447  68.685  1.00  0.00    -0.398 Cl 
HETATM    6  CA  UNL     1      -7.770  16.853  67.751  1.00  0.00    -0.173 C  
HETATM    7  N   UNL     1      -8.389  15.697  67.353  1.00  0.00    -0.165 N  
HETATM    8  C   UNL     1      -6.255  16.963  67.780  1.00  0.00    -0.141 C  
HETATM    9  C   UNL     1      -8.079  14.406  67.109  1.00  0.00    -0.145 C  
HETATM   10  O   UNL     1      -5.551  15.919  67.299  1.00  0.00    -0.305 OA 
HETATM   11  OXT UNL     1      -5.645  17.956  68.145  1.00  0.00    -0.148 OA 
HETATM   12  O   UNL     1      -7.002  13.862  67.098  1.00  0.00    -0.125 OA 
HETATM   13  CA  UNL     1      -9.601  14.038  66.999  1.00  0.00    -0.253 C  
ENDROOT
BRANCH  13  14
HETATM   14  N   UNL     1     -10.159  13.321  68.162  1.00  0.00    -0.235 N  
HETATM   15  H   UNL     1      -9.600  13.291  69.015  1.00  0.00     0.000 HD 
HETATM   16  C   UNL     1     -11.383  12.689  68.176  1.00  0.00    -0.290 C  
HETATM   17  O   UNL     1     -12.152  12.702  67.221  1.00  0.00    -0.448 OA 
BRANCH  16  18
HETATM   18  CA  UNL     1     -11.676  11.971  69.517  1.00  0.00    -0.342 C  
HETATM   19  H2  UNL     1     -11.882  10.095  68.592  1.00  0.00     0.000 HD 
HETATM   20  N   UNL     1     -12.391  10.691  69.246  1.00  0.00    -0.717 NA 
HETATM   21  H1  UNL     1     -12.584  10.219  70.129  1.00  0.00     0.000 HD 
BRANCH  18  22
HETATM   22  C   UNL     1     -12.452  12.862  70.469  1.00  0.00    -0.294 A  
HETATM   23  C   UNL     1     -13.085  12.290  71.586  1.00  0.00    -0.408 A  
HETATM   24  C   UNL     1     -13.816  13.081  72.475  1.00  0.00    -0.420 A  
HETATM   25  C   UNL     1     -13.918  14.454  72.268  1.00  0.00    -0.610 A  
HETATM   26  C   UNL     1     -13.279  15.041  71.180  1.00  0.00    -0.498 A  
HETATM   27  C   UNL     1     -12.544  14.252  70.290  1.00  0.00    -0.378 A  
ENDBRANCH  18  22
ENDBRANCH  16  18
ENDBRANCH  13  14
TORSDOF 3
ENDMDL
MODEL       29
REMARK 921   NORMALIZED FREE ENERGY PREDICTED BY IDOCK:   -6.03 KCAL/MOL
REMARK 922        TOTAL FREE ENERGY PREDICTED BY IDOCK:   -7.79 KCAL/MOL
REMARK 923 INTER-LIGAND FREE ENERGY PREDICTED BY IDOCK:   -7.19 KCAL/MOL
REMARK 924 INTRA-LIGAND FREE ENERGY PREDICTED BY IDOCK:   -0.60 KCAL/MOL
REMARK 927      BINDING AFFINITY PREDICTED BY RF-SCORE:    0.00 PKD
ROOT
HETATM    1  C   UNL     1     -11.434  10.526  69.325  1.00  0.00    -0.256 C  
HETATM    2  S   UNL     1      -9.687  10.909  69.045  1.00  0.00    -0.120 SA 
HETATM    3  C   UNL     1      -9.160   9.190  69.248  1.00  0.00    -0.146 C  
HETATM    4  C   UNL     1      -9.752   8.495  70.455  1.00  0.00    -0.175 C  
HETATM    5 CL   UNL     1      -8.734   7.147  70.902  1.00  0.00    -0.145 Cl 
HETATM    6  CA  UNL     1     -10.881   8.869  71.118  1.00  0.00    -0.281 C  
HETATM    7  N   UNL     1     -11.586   9.947  70.650  1.00  0.00    -0.311 N  
HETATM    8  C   UNL     1     -11.321   8.125  72.366  1.00  0.00    -0.391 C  
HETATM    9  C   UNL     1     -12.563  10.784  71.061  1.00  0.00    -0.420 C  
HETATM   10  O   UNL     1     -12.487   8.500  72.930  1.00  0.00    -0.276 OA 
HETATM   11  OXT UNL     1     -10.725   7.173  72.846  1.00  0.00    -0.249 OA 
HETATM   12  O   UNL     1     -13.228  10.754  72.068  1.00  0.00    -0.484 OA 
HETATM   13  CA  UNL     1     -12.319  11.714  69.820  1.00  0.00    -0.133 C  
ENDROOT
BRANCH  13  14
HETATM   14  N   UNL     1     -11.600  12.971  70.110  1.00  0.00    -0.536 N  
HETATM   15  H   UNL     1     -10.602  13.005  69.905  1.00  0.00     0.000 HD 
HETATM   16  C   UNL     1     -12.185  14.100  70.637  1.00  0.00    -0.362 C  
HETATM   17  O   UNL     1     -13.385  14.182  70.878  1.00  0.00    -0.293 OA 
BRANCH  16  18
HETATM   18  CA  UNL     1     -11.170  15.245  70.887  1.00  0.00    -0.327 C  
HETATM   19  H2  UNL     1     -12.299  16.046  72.468  1.00  0.00     0.000 HD 
HETATM   20  N   UNL     1     -11.850  16.359  71.606  1.00  0.00    -0.674 NA 
HETATM   21  H1  UNL     1     -11.182  17.113  71.770  1.00  0.00     0.000 HD 
BRANCH  18  22
HETATM   22  C   UNL     1     -10.528  15.713  69.594  1.00  0.00    -0.283 A  
HETATM   23  C   UNL     1      -9.145  15.549  69.413  1.00  0.00    -0.280 A  
HETATM   24  C   UNL     1      -8.522  15.979  68.239  1.00  0.00    -0.177 A  
HETATM   25  C   UNL     1      -9.272  16.571  67.227  1.00  0.00    -0.224 A  
HETATM   26  C   UNL     1     -10.647  16.722  67.379  1.00  0.00    -0.291 A  
HETATM   27  C   UNL     1     -11.273  16.289  68.551  1.00  0.00    -0.359 A  
ENDBRANCH  18  22
ENDBRANCH  16  18
ENDBRANCH  13  14
TORSDOF 3
ENDMDL
MODEL       30
REMARK 921   NORMALIZED FREE ENERGY PREDICTED BY IDOCK:   -6.03 KCAL/MOL
REMARK 922        TOTAL FREE ENERGY PREDICTED BY IDOCK:   -7.79 KCAL/MOL
REMARK 923 INTER-LIGAND FREE ENERGY PREDICTED BY IDOCK:   -7.56 KCAL/MOL
REMARK 924 INTRA-LIGAND FREE ENERGY PREDICTED BY IDOCK:   -0.23 KCAL/MOL
REMARK 927      BINDING AFFINITY PREDICTED BY RF-SCORE:    0.00 PKD
ROOT
HETATM    1  C   UNL     1     -10.581  12.422  66.068  1.00  0.00    -0.256 C  
HETATM    2  S   UNL     1     -12.340  12.847  66.035  1.00  0.00    -0.113 SA 
HETATM    3  C   UNL     1     -12.103  14.226  64.889  1.00  0.00    -0.435 C  
HETATM    4  C   UNL     1     -10.957  15.146  65.250  1.00  0.00    -0.395 C  
HETATM    5 CL   UNL     1     -11.213  16.707  64.507  1.00  0.00    -0.194 Cl 
HETATM    6  CA  UNL     1      -9.903  14.832  66.053  1.00  0.00    -0.324 C  
HETATM    7  N   UNL     1      -9.827  13.563  66.564  1.00  0.00    -0.284 N  
HETATM    8  C   UNL     1      -8.859  15.880  66.397  1.00  0.00    -0.333 C  
HETATM    9  C   UNL     1      -9.156  12.886  67.521  1.00  0.00    -0.191 C  
HETATM   10  O   UNL     1      -7.804  15.482  67.134  1.00  0.00    -0.185 OA 
HETATM   11  OXT UNL     1      -8.882  17.033  65.992  1.00  0.00    -0.477 OA 
HETATM   12  O   UNL     1      -8.254  13.254  68.233  1.00  0.00    -0.148 OA 
HETATM   13  CA  UNL     1     -10.094  11.642  67.331  1.00  0.00    -0.198 C  
ENDROOT
BRANCH  13  14
HETATM   14  N   UNL     1     -11.102  11.448  68.392  1.00  0.00    -0.221 N  
HETATM   15  H   UNL     1     -12.066  11.706  68.183  1.00  0.00     0.000 HD 
HETATM   16  C   UNL     1     -10.830  10.943  69.644  1.00  0.00    -0.216 C  
HETATM   17  O   UNL     1      -9.715  10.562  69.983  1.00  0.00     0.001 OA 
BRANCH  16  18
HETATM   18  CA  UNL     1     -12.076  10.910  70.565  1.00  0.00    -0.371 C  
HETATM   19  H2  UNL     1     -12.852   9.194  69.632  1.00  0.00     0.000 HD 
HETATM   20  N   UNL     1     -13.159  10.130  69.901  1.00  0.00    -0.372 NA 
HETATM   21  H1  UNL     1     -13.979  10.108  70.507  1.00  0.00     0.000 HD 
BRANCH  18  22
HETATM   22  C   UNL     1     -12.532  12.309  70.937  1.00  0.00    -0.371 A  
HETATM   23  C   UNL     1     -13.432  12.479  72.001  1.00  0.00    -0.486 A  
HETATM   24  C   UNL     1     -13.881  13.751  72.363  1.00  0.00    -0.681 A  
HETATM   25  C   UNL     1     -13.430  14.873  71.671  1.00  0.00    -0.484 A  
HETATM   26  C   UNL     1     -12.520  14.726  70.628  1.00  0.00    -0.407 A  
HETATM   27  C   UNL     1     -12.068  13.453  70.268  1.00  0.00    -0.419 A  
ENDBRANCH  18  22
ENDBRANCH  16  18
ENDBRANCH  13  14
TORSDOF 3
ENDMDL
MODEL       31
REMARK 921   NORMALIZED FREE ENERGY PREDICTED BY IDOCK:   -5.99 KCAL/MOL
REMARK 922        TOTAL FREE ENERGY PREDICTED BY IDOCK:   -7.74 KCAL/MOL
REMARK 923 INTER-LIGAND FREE ENERGY PREDICTED BY IDOCK:   -7.16 KCAL/MOL
REMARK 924 INTRA-LIGAND FREE ENERGY PREDICTED BY IDOCK:   -0.59 KCAL/MOL
REMARK 927      BINDING AFFINITY PREDICTED BY RF-SCORE:    0.00 PKD
ROOT
HETATM    1  C   UNL     1     -11.509  10.689  69.161  1.00  0.00    -0.280 C  
HETATM    2  S   UNL     1      -9.786  11.112  68.798  1.00  0.00    -0.164 SA 
HETATM    3  C   UNL     1      -9.231   9.392  68.865  1.00  0.00    -0.140 C  
HETATM    4  C   UNL     1      -9.740   8.619  70.064  1.00  0.00    -0.171 C  
HETATM    5 CL   UNL     1      -8.682   7.261  70.366  1.00  0.00    -0.145 Cl 
HETATM    6  CA  UNL     1     -10.829   8.938  70.816  1.00  0.00    -0.241 C  
HETATM    7  N   UNL     1     -11.573  10.032  70.456  1.00  0.00    -0.301 N  
HETATM    8  C   UNL     1     -11.183   8.116  72.043  1.00  0.00    -0.310 C  
HETATM    9  C   UNL     1     -12.530  10.830  70.976  1.00  0.00    -0.420 C  
HETATM   10  O   UNL     1     -12.315   8.442  72.698  1.00  0.00    -0.365 OA 
HETATM   11  OXT UNL     1     -10.548   7.146  72.427  1.00  0.00    -0.210 OA 
HETATM   12  O   UNL     1     -13.130  10.733  72.018  1.00  0.00    -0.483 OA 
HETATM   13  CA  UNL     1     -12.373  11.834  69.780  1.00  0.00    -0.111 C  
ENDROOT
BRANCH  13  14
HETATM   14  N   UNL     1     -11.650  13.082  70.098  1.00  0.00    -0.536 N  
HETATM   15  H   UNL     1     -10.666  13.140  69.837  1.00  0.00     0.000 HD 
HETATM   16  C   UNL     1     -12.213  14.172  70.723  1.00  0.00    -0.365 C  
HETATM   17  O   UNL     1     -13.397  14.224  71.039  1.00  0.00    -0.342 OA 
BRANCH  16  18
HETATM   18  CA  UNL     1     -11.196  15.313  70.978  1.00  0.00    -0.335 C  
HETATM   19  H2  UNL     1     -12.375  16.172  72.491  1.00  0.00     0.000 HD 
HETATM   20  N   UNL     1     -11.890  16.455  71.639  1.00  0.00    -0.674 NA 
HETATM   21  H1  UNL     1     -11.221  17.206  71.806  1.00  0.00     0.000 HD 
BRANCH  18  22
HETATM   22  C   UNL     1     -10.501  15.737  69.697  1.00  0.00    -0.289 A  
HETATM   23  C   UNL     1     -11.218  16.466  68.734  1.00  0.00    -0.313 A  
HETATM   24  C   UNL     1     -10.611  16.863  67.540  1.00  0.00    -0.307 A  
HETATM   25  C   UNL     1      -9.278  16.546  67.295  1.00  0.00    -0.224 A  
HETATM   26  C   UNL     1      -8.546  15.843  68.248  1.00  0.00    -0.176 A  
HETATM   27  C   UNL     1      -9.150  15.449  69.445  1.00  0.00    -0.258 A  
ENDBRANCH  18  22
ENDBRANCH  16  18
ENDBRANCH  13  14
TORSDOF 3
ENDMDL
MODEL       32
REMARK 921   NORMALIZED FREE ENERGY PREDICTED BY IDOCK:   -5.98 KCAL/MOL
REMARK 922        TOTAL FREE ENERGY PREDICTED BY IDOCK:   -7.74 KCAL/MOL
REMARK 923 INTER-LIGAND FREE ENERGY PREDICTED BY IDOCK:   -7.09 KCAL/MOL
REMARK 924 INTRA-LIGAND FREE ENERGY PREDICTED BY IDOCK:   -0.64 KCAL/MOL
REMARK 927      BINDING AFFINITY PREDICTED BY RF-SCORE:    0.00 PKD
ROOT
HETATM    1  C   UNL     1     -10.819  13.110  67.278  1.00  0.00    -0.257 C  
HETATM    2  S   UNL     1      -9.018  13.193  67.443  1.00  0.00    -0.211 SA 
HETATM    3  C   UNL     1      -8.990  15.001  67.463  1.00  0.00    -0.183 C  
HETATM    4  C   UNL     1      -9.830  15.650  66.383  1.00  0.00    -0.274 C  
HETATM    5 CL   UNL     1      -9.246  17.271  66.093  1.00  0.00    -0.234 Cl 
HETATM    6  CA  UNL     1     -10.860  15.063  65.713  1.00  0.00    -0.350 C  
HETATM    7  N   UNL     1     -11.214  13.783  66.051  1.00  0.00    -0.302 N  
HETATM    8  C   UNL     1     -11.571  15.805  64.594  1.00  0.00    -0.218 C  
HETATM    9  C   UNL     1     -11.955  12.766  65.560  1.00  0.00    -0.449 C  
HETATM   10  O   UNL     1     -12.628  15.195  64.024  1.00  0.00    -0.791 OA 
HETATM   11  OXT UNL     1     -11.288  16.937  64.232  1.00  0.00    -1.202 OA 
HETATM   12  O   UNL     1     -12.672  12.735  64.590  1.00  0.00    -0.649 OA 
HETATM   13  CA  UNL     1     -11.384  11.794  66.652  1.00  0.00    -0.316 C  
ENDROOT
BRANCH  13  14
HETATM   14  N   UNL     1     -10.375  10.830  66.169  1.00  0.00    -0.248 N  
HETATM   15  H   UNL     1      -9.751  11.132  65.420  1.00  0.00     0.000 HD 
HETATM   16  C   UNL     1     -10.217   9.553  66.659  1.00  0.00    -0.240 C  
HETATM   17  O   UNL     1     -10.883   9.107  67.587  1.00  0.00    -0.234 OA 
BRANCH  16  18
HETATM   18  CA  UNL     1      -9.116   8.754  65.917  1.00  0.00    -0.218 C  
HETATM   19  H2  UNL     1     -10.221   6.967  65.981  1.00  0.00     0.000 HD 
HETATM   20  N   UNL     1      -9.283   7.301  66.205  1.00  0.00    -0.268 NA 
HETATM   21  H1  UNL     1      -8.558   6.775  65.717  1.00  0.00     0.000 HD 
BRANCH  18  22
HETATM   22  C   UNL     1      -7.728   9.248  66.279  1.00  0.00    -0.096 A  
HETATM   23  C   UNL     1      -6.881   9.725  65.265  1.00  0.00    -0.103 A  
HETATM   24  C   UNL     1      -5.593  10.177  65.564  1.00  0.00    -0.077 A  
HETATM   25  C   UNL     1      -5.137  10.167  66.879  1.00  0.00    -0.040 A  
HETATM   26  C   UNL     1      -5.970   9.718  67.899  1.00  0.00    -0.050 A  
HETATM   27  C   UNL     1      -7.260   9.269  67.604  1.00  0.00    -0.083 A  
ENDBRANCH  18  22
ENDBRANCH  16  18
ENDBRANCH  13  14
TORSDOF 3
ENDMDL
MODEL       33
REMARK 921   NORMALIZED FREE ENERGY PREDICTED BY IDOCK:   -5.98 KCAL/MOL
REMARK 922        TOTAL FREE ENERGY PREDICTED BY IDOCK:   -7.73 KCAL/MOL
REMARK 923 INTER-LIGAND FREE ENERGY PREDICTED BY IDOCK:   -7.95 KCAL/MOL
REMARK 924 INTRA-LIGAND FREE ENERGY PREDICTED BY IDOCK:    0.22 KCAL/MOL
REMARK 927      BINDING AFFINITY PREDICTED BY RF-SCORE:    0.00 PKD
ROOT
HETATM    1  C   UNL     1      -9.878  13.559  66.769  1.00  0.00    -0.267 C  
HETATM    2  S   UNL     1     -11.194  14.590  67.466  1.00  0.00    -0.335 SA 
HETATM    3  C   UNL     1     -10.623  16.086  66.625  1.00  0.00    -0.297 C  
HETATM    4  C   UNL     1      -9.132  16.329  66.729  1.00  0.00    -0.232 C  
HETATM    5 CL   UNL     1      -8.805  18.027  66.471  1.00  0.00    -0.280 Cl 
HETATM    6  CA  UNL     1      -8.188  15.390  67.010  1.00  0.00    -0.236 C  
HETATM    7  N   UNL     1      -8.590  14.091  67.183  1.00  0.00    -0.213 N  
HETATM    8  C   UNL     1      -6.730  15.788  67.162  1.00  0.00    -0.092 C  
HETATM    9  C   UNL     1      -8.103  12.929  67.668  1.00  0.00    -0.167 C  
HETATM   10  O   UNL     1      -5.838  14.798  67.366  1.00  0.00    -0.341 OA 
HETATM   11  OXT UNL     1      -6.313  16.929  67.042  1.00  0.00    -0.158 OA 
HETATM   12  O   UNL     1      -6.994  12.665  68.064  1.00  0.00    -0.078 OA 
HETATM   13  CA  UNL     1      -9.525  12.270  67.577  1.00  0.00    -0.182 C  
ENDROOT
BRANCH  13  14
HETATM   14  N   UNL     1     -10.226  12.110  68.867  1.00  0.00    -0.413 N  
HETATM   15  H   UNL     1      -9.736  12.401  69.713  1.00  0.00     0.000 HD 
HETATM   16  C   UNL     1     -11.496  11.596  69.006  1.00  0.00    -0.294 C  
HETATM   17  O   UNL     1     -12.188  11.258  68.052  1.00  0.00    -0.621 OA 
BRANCH  16  18
HETATM   18  CA  UNL     1     -11.947  11.495  70.485  1.00  0.00    -0.344 C  
HETATM   19  H2  UNL     1     -12.539   9.489  70.280  1.00  0.00     0.000 HD 
HETATM   20  N   UNL     1     -12.915  10.371  70.630  1.00  0.00    -0.479 NA 
HETATM   21  H1  UNL     1     -13.213  10.305  71.604  1.00  0.00     0.000 HD 
BRANCH  18  22
HETATM   22  C   UNL     1     -12.524  12.807  70.983  1.00  0.00    -0.369 A  
HETATM   23  C   UNL     1     -13.526  12.789  71.967  1.00  0.00    -0.540 A  
HETATM   24  C   UNL     1     -14.086  13.978  72.440  1.00  0.00    -0.576 A  
HETATM   25  C   UNL     1     -13.646  15.202  71.943  1.00  0.00    -0.545 A  
HETATM   26  C   UNL     1     -12.638  15.241  70.984  1.00  0.00    -0.469 A  
HETATM   27  C   UNL     1     -12.074  14.052  70.513  1.00  0.00    -0.424 A  
ENDBRANCH  18  22
ENDBRANCH  16  18
ENDBRANCH  13  14
TORSDOF 3
ENDMDL
MODEL       34
REMARK 921   NORMALIZED FREE ENERGY PREDICTED BY IDOCK:   -5.94 KCAL/MOL
REMARK 922        TOTAL FREE ENERGY PREDICTED BY IDOCK:   -7.69 KCAL/MOL
REMARK 923 INTER-LIGAND FREE ENERGY PREDICTED BY IDOCK:   -7.16 KCAL/MOL
REMARK 924 INTRA-LIGAND FREE ENERGY PREDICTED BY IDOCK:   -0.53 KCAL/MOL
REMARK 927      BINDING AFFINITY PREDICTED BY RF-SCORE:    0.00 PKD
ROOT
HETATM    1  C   UNL     1      -9.452  10.757  66.670  1.00  0.00    -0.175 C  
HETATM    2  S   UNL     1      -9.760   9.577  65.332  1.00  0.00    -0.149 SA 
HETATM    3  C   UNL     1     -10.059  10.873  64.105  1.00  0.00    -0.355 C  
HETATM    4  C   UNL     1     -10.989  11.972  64.575  1.00  0.00    -0.318 C  
HETATM    5 CL   UNL     1     -11.690  12.767  63.185  1.00  0.00    -0.431 Cl 
HETATM    6  CA  UNL     1     -11.269  12.282  65.870  1.00  0.00    -0.340 C  
HETATM    7  N   UNL     1     -10.638  11.577  66.861  1.00  0.00    -0.235 N  
HETATM    8  C   UNL     1     -12.284  13.363  66.200  1.00  0.00    -0.415 C  
HETATM    9  C   UNL     1     -10.745  11.367  68.191  1.00  0.00    -0.202 C  
HETATM   10  O   UNL     1     -12.458  13.671  67.500  1.00  0.00    -0.171 OA 
HETATM   11  OXT UNL     1     -12.894  14.010  65.363  1.00  0.00    -0.658 OA 
HETATM   12  O   UNL     1     -11.484  11.883  68.994  1.00  0.00    -0.247 OA 
HETATM   13  CA  UNL     1      -9.681  10.216  68.118  1.00  0.00    -0.139 C  
ENDROOT
BRANCH  13  14
HETATM   14  N   UNL     1     -10.229   8.848  68.212  1.00  0.00    -0.195 N  
HETATM   15  H   UNL     1     -11.218   8.717  68.000  1.00  0.00     0.000 HD 
HETATM   16  C   UNL     1      -9.497   7.737  68.565  1.00  0.00    -0.148 C  
HETATM   17  O   UNL     1      -8.293   7.775  68.797  1.00  0.00    -0.126 OA 
BRANCH  16  18
HETATM   18  CA  UNL     1     -10.354   6.447  68.636  1.00  0.00    -0.199 C  
HETATM   19  H2  UNL     1     -11.227   6.797  66.756  1.00  0.00     0.000 HD 
HETATM   20  N   UNL     1     -11.515   6.576  67.710  1.00  0.00    -0.663 NA 
HETATM   21  H1  UNL     1     -12.080   5.728  67.756  1.00  0.00     0.000 HD 
BRANCH  18  22
HETATM   22  C   UNL     1     -10.793   6.146  70.056  1.00  0.00    -0.408 A  
HETATM   23  C   UNL     1     -11.932   6.785  70.575  1.00  0.00    -0.385 A  
HETATM   24  C   UNL     1     -12.357   6.538  71.883  1.00  0.00    -0.339 A  
HETATM   25  C   UNL     1     -11.657   5.643  72.687  1.00  0.00    -0.307 A  
HETATM   26  C   UNL     1     -10.540   4.983  72.183  1.00  0.00    -0.259 A  
HETATM   27  C   UNL     1     -10.115   5.226  70.873  1.00  0.00    -0.295 A  
ENDBRANCH  18  22
ENDBRANCH  16  18
ENDBRANCH  13  14
TORSDOF 3
ENDMDL
MODEL       35
REMARK 921   NORMALIZED FREE ENERGY PREDICTED BY IDOCK:   -5.92 KCAL/MOL
REMARK 922        TOTAL FREE ENERGY PREDICTED BY IDOCK:   -7.67 KCAL/MOL
REMARK 923 INTER-LIGAND FREE ENERGY PREDICTED BY IDOCK:   -7.07 KCAL/MOL
REMARK 924 INTRA-LIGAND FREE ENERGY PREDICTED BY IDOCK:   -0.60 KCAL/MOL
REMARK 927      BINDING AFFINITY PREDICTED BY RF-SCORE:    0.00 PKD
ROOT
HETATM    1  C   UNL     1     -10.710  13.821  67.281  1.00  0.00    -0.283 C  
HETATM    2  S   UNL     1     -11.343  15.204  66.299  1.00  0.00    -0.146 SA 
HETATM    3  C   UNL     1     -12.308  14.134  65.205  1.00  0.00    -0.451 C  
HETATM    4  C   UNL     1     -11.552  12.928  64.688  1.00  0.00    -0.346 C  
HETATM    5 CL   UNL     1     -12.307  12.362  63.217  1.00  0.00    -0.586 Cl 
HETATM    6  CA  UNL     1     -10.440  12.381  65.252  1.00  0.00    -0.286 C  
HETATM    7  N   UNL     1      -9.961  12.927  66.413  1.00  0.00    -0.261 N  
HETATM    8  C   UNL     1      -9.735  11.214  64.583  1.00  0.00    -0.262 C  
HETATM    9  C   UNL     1      -8.844  12.892  67.172  1.00  0.00    -0.210 C  
HETATM   10  O   UNL     1      -8.685  10.673  65.232  1.00  0.00    -0.183 OA 
HETATM   11  OXT UNL     1     -10.100  10.698  63.537  1.00  0.00    -0.323 OA 
HETATM   12  O   UNL     1      -7.856  12.209  67.055  1.00  0.00    -0.163 OA 
HETATM   13  CA  UNL     1      -9.373  14.085  68.044  1.00  0.00    -0.205 C  
ENDROOT
BRANCH  13  14
HETATM   14  N   UNL     1      -8.731  15.388  67.779  1.00  0.00    -0.162 N  
HETATM   15  H   UNL     1      -8.968  15.866  66.910  1.00  0.00     0.000 HD 
HETATM   16  C   UNL     1      -7.835  16.003  68.625  1.00  0.00    -0.179 C  
HETATM   17  O   UNL     1      -7.516  15.538  69.714  1.00  0.00    -0.184 OA 
BRANCH  16  18
HETATM   18  CA  UNL     1      -7.284  17.334  68.055  1.00  0.00    -0.190 C  
HETATM   19  H2  UNL     1      -5.570  17.269  69.270  1.00  0.00     0.000 HD 
HETATM   20  N   UNL     1      -6.315  17.922  69.024  1.00  0.00    -0.222 NA 
HETATM   21  H1  UNL     1      -5.952  18.799  68.649  1.00  0.00     0.000 HD 
BRANCH  18  22
HETATM   22  C   UNL     1      -8.402  18.302  67.716  1.00  0.00    -0.261 A  
HETATM   23  C   UNL     1      -9.201  18.821  68.748  1.00  0.00    -0.342 A  
HETATM   24  C   UNL     1     -10.245  19.705  68.469  1.00  0.00    -0.529 A  
HETATM   25  C   UNL     1     -10.501  20.091  67.156  1.00  0.00    -0.513 A  
HETATM   26  C   UNL     1      -9.706  19.605  66.122  1.00  0.00    -0.489 A  
HETATM   27  C   UNL     1      -8.659  18.722  66.400  1.00  0.00    -0.294 A  
ENDBRANCH  18  22
ENDBRANCH  16  18
ENDBRANCH  13  14
TORSDOF 3
ENDMDL
MODEL       36
REMARK 921   NORMALIZED FREE ENERGY PREDICTED BY IDOCK:   -5.92 KCAL/MOL
REMARK 922        TOTAL FREE ENERGY PREDICTED BY IDOCK:   -7.66 KCAL/MOL
REMARK 923 INTER-LIGAND FREE ENERGY PREDICTED BY IDOCK:   -7.10 KCAL/MOL
REMARK 924 INTRA-LIGAND FREE ENERGY PREDICTED BY IDOCK:   -0.56 KCAL/MOL
REMARK 927      BINDING AFFINITY PREDICTED BY RF-SCORE:    0.00 PKD
ROOT
HETATM    1  C   UNL     1     -12.191  13.335  67.195  1.00  0.00    -0.227 C  
HETATM    2  S   UNL     1     -11.722  12.405  68.675  1.00  0.00    -0.320 SA 
HETATM    3  C   UNL     1     -12.151  13.756  69.799  1.00  0.00    -0.340 C  
HETATM    4  C   UNL     1     -11.622  15.110  69.375  1.00  0.00    -0.323 C  
HETATM    5 CL   UNL     1     -11.530  16.156  70.772  1.00  0.00    -0.430 Cl 
HETATM    6  CA  UNL     1     -11.243  15.461  68.115  1.00  0.00    -0.325 C  
HETATM    7  N   UNL     1     -11.377  14.537  67.112  1.00  0.00    -0.337 N  
HETATM    8  C   UNL     1     -10.655  16.835  67.844  1.00  0.00    -0.350 C  
HETATM    9  C   UNL     1     -10.959  14.341  65.843  1.00  0.00    -0.304 C  
HETATM   10  O   UNL     1     -10.371  17.143  66.563  1.00  0.00    -0.318 OA 
HETATM   11  OXT UNL     1     -10.489  17.693  68.698  1.00  0.00    -0.356 OA 
HETATM   12  O   UNL     1     -10.327  15.072  65.120  1.00  0.00    -0.379 OA 
HETATM   13  CA  UNL     1     -11.519  12.875  65.862  1.00  0.00    -0.346 C  
ENDROOT
BRANCH  13  14
HETATM   14  N   UNL     1     -10.499  11.815  65.992  1.00  0.00    -0.238 N  
HETATM   15  H   UNL     1      -9.993  11.748  66.875  1.00  0.00     0.000 HD 
HETATM   16  C   UNL     1     -10.184  10.910  65.003  1.00  0.00    -0.303 C  
HETATM   17  O   UNL     1     -10.761  10.874  63.922  1.00  0.00    -0.339 OA 
BRANCH  16  18
HETATM   18  CA  UNL     1      -9.033   9.953  65.406  1.00  0.00    -0.184 C  
HETATM   19  H2  UNL     1      -8.659   9.392  63.415  1.00  0.00     0.000 HD 
HETATM   20  N   UNL     1      -8.821   8.952  64.321  1.00  0.00    -0.420 NA 
HETATM   21  H1  UNL     1      -8.064   8.322  64.587  1.00  0.00     0.000 HD 
BRANCH  18  22
HETATM   22  C   UNL     1      -9.301   9.291  66.744  1.00  0.00    -0.202 A  
HETATM   23  C   UNL     1      -8.573   9.701  67.873  1.00  0.00    -0.122 A  
HETATM   24  C   UNL     1      -8.788   9.104  69.118  1.00  0.00    -0.146 A  
HETATM   25  C   UNL     1      -9.739   8.095  69.254  1.00  0.00    -0.170 A  
HETATM   26  C   UNL     1     -10.485   7.692  68.151  1.00  0.00    -0.233 A  
HETATM   27  C   UNL     1     -10.274   8.290  66.905  1.00  0.00    -0.388 A  
ENDBRANCH  18  22
ENDBRANCH  16  18
ENDBRANCH  13  14
TORSDOF 3
ENDMDL
MODEL       37
REMARK 921   NORMALIZED FREE ENERGY PREDICTED BY IDOCK:   -5.92 KCAL/MOL
REMARK 922        TOTAL FREE ENERGY PREDICTED BY IDOCK:   -7.66 KCAL/MOL
REMARK 923 INTER-LIGAND FREE ENERGY PREDICTED BY IDOCK:   -7.16 KCAL/MOL
REMARK 924 INTRA-LIGAND FREE ENERGY PREDICTED BY IDOCK:   -0.50 KCAL/MOL
REMARK 927      BINDING AFFINITY PREDICTED BY RF-SCORE:    0.00 PKD
ROOT
HETATM    1  C   UNL     1     -12.160  13.592  68.324  1.00  0.00    -0.271 C  
HETATM    2  S   UNL     1     -11.432  14.072  69.911  1.00  0.00    -0.160 SA 
HETATM    3  C   UNL     1     -11.483  15.840  69.529  1.00  0.00    -0.353 C  
HETATM    4  C   UNL     1     -10.966  16.195  68.152  1.00  0.00    -0.341 C  
HETATM    5 CL   UNL     1     -10.472  17.872  68.136  1.00  0.00    -0.388 Cl 
HETATM    6  CA  UNL     1     -10.864  15.345  67.093  1.00  0.00    -0.321 C  
HETATM    7  N   UNL     1     -11.298  14.054  67.248  1.00  0.00    -0.315 N  
HETATM    8  C   UNL     1     -10.252  15.816  65.785  1.00  0.00    -0.370 C  
HETATM    9  C   UNL     1     -11.201  12.864  66.619  1.00  0.00    -0.304 C  
HETATM   10  O   UNL     1     -10.250  14.947  64.756  1.00  0.00    -0.331 OA 
HETATM   11  OXT UNL     1      -9.828  16.945  65.592  1.00  0.00    -0.549 OA 
HETATM   12  O   UNL     1     -10.701  12.594  65.554  1.00  0.00    -0.265 OA 
HETATM   13  CA  UNL     1     -11.852  12.136  67.848  1.00  0.00    -0.269 C  
ENDROOT
BRANCH  13  14
HETATM   14  N   UNL     1     -10.913  11.371  68.694  1.00  0.00    -0.203 N  
HETATM   15  H   UNL     1     -10.571  11.816  69.545  1.00  0.00     0.000 HD 
HETATM   16  C   UNL     1     -10.469  10.099  68.411  1.00  0.00    -0.208 C  
HETATM   17  O   UNL     1     -10.851   9.458  67.439  1.00  0.00    -0.263 OA 
BRANCH  16  18
HETATM   18  CA  UNL     1      -9.445   9.574  69.449  1.00  0.00    -0.176 C  
HETATM   19  H2  UNL     1      -7.878   9.546  68.048  1.00  0.00     0.000 HD 
HETATM   20  N   UNL     1      -8.308   8.925  68.736  1.00  0.00    -0.122 NA 
HETATM   21  H1  UNL     1      -7.634   8.579  69.418  1.00  0.00     0.000 HD 
BRANCH  18  22
HETATM   22  C   UNL     1     -10.094   8.636  70.449  1.00  0.00    -0.213 A  
HETATM   23  C   UNL     1     -10.475   7.348  70.038  1.00  0.00    -0.233 A  
HETATM   24  C   UNL     1     -11.085   6.464  70.931  1.00  0.00    -0.354 A  
HETATM   25  C   UNL     1     -11.316   6.850  72.249  1.00  0.00    -0.306 A  
HETATM   26  C   UNL     1     -10.925   8.114  72.680  1.00  0.00    -0.440 A  
HETATM   27  C   UNL     1     -10.311   8.999  71.789  1.00  0.00    -0.407 A  
ENDBRANCH  18  22
ENDBRANCH  16  18
ENDBRANCH  13  14
TORSDOF 3
ENDMDL
MODEL       38
REMARK 921   NORMALIZED FREE ENERGY PREDICTED BY IDOCK:   -5.91 KCAL/MOL
REMARK 922        TOTAL FREE ENERGY PREDICTED BY IDOCK:   -7.65 KCAL/MOL
REMARK 923 INTER-LIGAND FREE ENERGY PREDICTED BY IDOCK:   -7.25 KCAL/MOL
REMARK 924 INTRA-LIGAND FREE ENERGY PREDICTED BY IDOCK:   -0.41 KCAL/MOL
REMARK 927      BINDING AFFINITY PREDICTED BY RF-SCORE:    0.00 PKD
ROOT
HETATM    1  C   UNL     1     -11.874  14.419  67.755  1.00  0.00    -0.368 C  
HETATM    2  S   UNL     1     -10.456  14.135  68.845  1.00  0.00    -0.185 SA 
HETATM    3  C   UNL     1     -10.174  15.899  69.126  1.00  0.00    -0.234 C  
HETATM    4  C   UNL     1     -10.194  16.741  67.868  1.00  0.00    -0.300 C  
HETATM    5 CL   UNL     1      -9.313  18.224  68.152  1.00  0.00    -0.294 Cl 
HETATM    6  CA  UNL     1     -10.775  16.397  66.686  1.00  0.00    -0.173 C  
HETATM    7  N   UNL     1     -11.441  15.202  66.609  1.00  0.00    -0.251 N  
HETATM    8  C   UNL     1     -10.652  17.306  65.475  1.00  0.00    -0.127 C  
HETATM    9  C   UNL     1     -11.943  14.372  65.670  1.00  0.00    -0.354 C  
HETATM   10  O   UNL     1     -11.313  16.941  64.359  1.00  0.00    -1.133 OA 
HETATM   11  OXT UNL     1     -10.054  18.371  65.474  1.00  0.00    -0.450 OA 
HETATM   12  O   UNL     1     -12.020  14.520  64.474  1.00  0.00    -0.440 OA 
HETATM   13  CA  UNL     1     -12.201  13.266  66.753  1.00  0.00    -0.280 C  
ENDROOT
BRANCH  13  14
HETATM   14  N   UNL     1     -11.247  12.139  66.739  1.00  0.00    -0.303 N  
HETATM   15  H   UNL     1     -10.504  12.154  66.040  1.00  0.00     0.000 HD 
HETATM   16  C   UNL     1     -11.290  11.069  67.605  1.00  0.00    -0.281 C  
HETATM   17  O   UNL     1     -12.112  10.974  68.510  1.00  0.00    -0.573 OA 
BRANCH  16  18
HETATM   18  CA  UNL     1     -10.195  10.012  67.313  1.00  0.00    -0.222 C  
HETATM   19  H2  UNL     1     -11.590   8.601  66.620  1.00  0.00     0.000 HD 
HETATM   20  N   UNL     1     -10.814   8.656  67.281  1.00  0.00    -0.434 NA 
HETATM   21  H1  UNL     1     -10.093   7.961  67.089  1.00  0.00     0.000 HD 
BRANCH  18  22
HETATM   22  C   UNL     1      -9.060  10.093  68.317  1.00  0.00    -0.122 A  
HETATM   23  C   UNL     1      -9.186   9.437  69.553  1.00  0.00    -0.182 A  
HETATM   24  C   UNL     1      -8.165   9.500  70.504  1.00  0.00    -0.203 A  
HETATM   25  C   UNL     1      -6.999  10.211  70.230  1.00  0.00    -0.150 A  
HETATM   26  C   UNL     1      -6.847  10.848  69.003  1.00  0.00    -0.080 A  
HETATM   27  C   UNL     1      -7.867  10.784  68.049  1.00  0.00    -0.106 A  
ENDBRANCH  18  22
ENDBRANCH  16  18
ENDBRANCH  13  14
TORSDOF 3
ENDMDL
MODEL       39
REMARK 921   NORMALIZED FREE ENERGY PREDICTED BY IDOCK:   -5.90 KCAL/MOL
REMARK 922        TOTAL FREE ENERGY PREDICTED BY IDOCK:   -7.64 KCAL/MOL
REMARK 923 INTER-LIGAND FREE ENERGY PREDICTED BY IDOCK:   -7.22 KCAL/MOL
REMARK 924 INTRA-LIGAND FREE ENERGY PREDICTED BY IDOCK:   -0.42 KCAL/MOL
REMARK 927      BINDING AFFINITY PREDICTED BY RF-SCORE:    0.00 PKD
ROOT
HETATM    1  C   UNL     1      -9.171  15.426  66.005  1.00  0.00    -0.298 C  
HETATM    2  S   UNL     1     -10.930  15.586  65.606  1.00  0.00    -0.267 SA 
HETATM    3  C   UNL     1     -10.828  17.374  65.354  1.00  0.00     0.020 C  
HETATM    4  C   UNL     1     -10.075  18.114  66.440  1.00  0.00    -0.389 C  
HETATM    5 CL   UNL     1     -10.572  19.789  66.447  1.00  0.00    -0.586 Cl 
HETATM    6  CA  UNL     1      -9.175  17.567  67.302  1.00  0.00    -0.240 C  
HETATM    7  N   UNL     1      -8.875  16.236  67.176  1.00  0.00    -0.187 N  
HETATM    8  C   UNL     1      -8.549  18.412  68.398  1.00  0.00    -0.325 C  
HETATM    9  C   UNL     1      -8.271  15.255  67.880  1.00  0.00    -0.145 C  
HETATM   10  O   UNL     1      -7.611  17.827  69.169  1.00  0.00    -0.189 OA 
HETATM   11  OXT UNL     1      -8.792  19.596  68.576  1.00  0.00    -0.345 OA 
HETATM   12  O   UNL     1      -7.676  15.315  68.929  1.00  0.00    -0.140 OA 
HETATM   13  CA  UNL     1      -8.778  14.177  66.857  1.00  0.00    -0.166 C  
ENDROOT
BRANCH  13  14
HETATM   14  N   UNL     1      -9.903  13.345  67.329  1.00  0.00    -0.229 N  
HETATM   15  H   UNL     1     -10.834  13.560  66.974  1.00  0.00     0.000 HD 
HETATM   16  C   UNL     1      -9.780  12.298  68.215  1.00  0.00    -0.219 C  
HETATM   17  O   UNL     1      -8.702  11.928  68.667  1.00  0.00    -0.131 OA 
BRANCH  16  18
HETATM   18  CA  UNL     1     -11.141  11.646  68.571  1.00  0.00    -0.235 C  
HETATM   19  H2  UNL     1     -11.541  11.137  66.571  1.00  0.00     0.000 HD 
HETATM   20  N   UNL     1     -12.000  11.604  67.354  1.00  0.00    -0.612 NA 
HETATM   21  H1  UNL     1     -12.896  11.176  67.588  1.00  0.00     0.000 HD 
BRANCH  18  22
HETATM   22  C   UNL     1     -11.821  12.367  69.720  1.00  0.00    -0.387 A  
HETATM   23  C   UNL     1     -11.936  13.766  69.684  1.00  0.00    -0.399 A  
HETATM   24  C   UNL     1     -12.547  14.461  70.730  1.00  0.00    -0.426 A  
HETATM   25  C   UNL     1     -13.059  13.767  71.823  1.00  0.00    -0.463 A  
HETATM   26  C   UNL     1     -12.975  12.379  71.866  1.00  0.00    -0.407 A  
HETATM   27  C   UNL     1     -12.367  11.681  70.818  1.00  0.00    -0.454 A  
ENDBRANCH  18  22
ENDBRANCH  16  18
ENDBRANCH  13  14
TORSDOF 3
ENDMDL
MODEL       40
REMARK 921   NORMALIZED FREE ENERGY PREDICTED BY IDOCK:   -5.89 KCAL/MOL
REMARK 922        TOTAL FREE ENERGY PREDICTED BY IDOCK:   -7.62 KCAL/MOL
REMARK 923 INTER-LIGAND FREE ENERGY PREDICTED BY IDOCK:   -7.29 KCAL/MOL
REMARK 924 INTRA-LIGAND FREE ENERGY PREDICTED BY IDOCK:   -0.33 KCAL/MOL
REMARK 927      BINDING AFFINITY PREDICTED BY RF-SCORE:    0.00 PKD
ROOT
HETATM    1  C   UNL     1     -10.933   9.967  68.934  1.00  0.00    -0.207 C  
HETATM    2  S   UNL     1      -9.127  10.099  68.927  1.00  0.00    -0.174 SA 
HETATM    3  C   UNL     1      -8.889   8.432  69.587  1.00  0.00    -0.141 C  
HETATM    4  C   UNL     1      -9.768   8.101  70.775  1.00  0.00    -0.170 C  
HETATM    5 CL   UNL     1      -9.039   6.800  71.687  1.00  0.00    -0.144 Cl 
HETATM    6  CA  UNL     1     -10.928   8.730  71.110  1.00  0.00    -0.268 C  
HETATM    7  N   UNL     1     -11.385   9.732  70.295  1.00  0.00    -0.261 N  
HETATM    8  C   UNL     1     -11.672   8.345  72.377  1.00  0.00    -0.382 C  
HETATM    9  C   UNL     1     -12.289  10.735  70.322  1.00  0.00    -0.341 C  
HETATM   10  O   UNL     1     -12.851   8.956  72.609  1.00  0.00    -0.393 OA 
HETATM   11  OXT UNL     1     -11.304   7.478  73.154  1.00  0.00    -0.331 OA 
HETATM   12  O   UNL     1     -13.111  11.008  71.162  1.00  0.00    -0.352 OA 
HETATM   13  CA  UNL     1     -11.712  11.320  68.984  1.00  0.00    -0.342 C  
ENDROOT
BRANCH  13  14
HETATM   14  N   UNL     1     -10.882  12.532  69.136  1.00  0.00    -0.424 N  
HETATM   15  H   UNL     1      -9.982  12.436  69.606  1.00  0.00     0.000 HD 
HETATM   16  C   UNL     1     -11.239  13.784  68.686  1.00  0.00    -0.278 C  
HETATM   17  O   UNL     1     -12.276  14.001  68.069  1.00  0.00    -0.321 OA 
BRANCH  16  18
HETATM   18  CA  UNL     1     -10.194  14.872  69.039  1.00  0.00    -0.243 C  
HETATM   19  H2  UNL     1     -10.363  14.516  71.104  1.00  0.00     0.000 HD 
HETATM   20  N   UNL     1     -10.389  15.302  70.454  1.00  0.00    -0.494 NA 
HETATM   21  H1  UNL     1      -9.702  16.019  70.686  1.00  0.00     0.000 HD 
BRANCH  18  22
HETATM   22  C   UNL     1     -10.261  16.044  68.077  1.00  0.00    -0.245 A  
HETATM   23  C   UNL     1     -10.502  17.334  68.579  1.00  0.00    -0.375 A  
HETATM   24  C   UNL     1     -10.580  18.432  67.719  1.00  0.00    -0.419 A  
HETATM   25  C   UNL     1     -10.411  18.259  66.348  1.00  0.00    -0.418 A  
HETATM   26  C   UNL     1     -10.150  16.991  65.835  1.00  0.00    -0.281 A  
HETATM   27  C   UNL     1     -10.067  15.892  66.694  1.00  0.00    -0.287 A  
ENDBRANCH  18  22
ENDBRANCH  16  18
ENDBRANCH  13  14
TORSDOF 3
ENDMDL
MODEL       41
REMARK 921   NORMALIZED FREE ENERGY PREDICTED BY IDOCK:   -5.89 KCAL/MOL
REMARK 922        TOTAL FREE ENERGY PREDICTED BY IDOCK:   -7.62 KCAL/MOL
REMARK 923 INTER-LIGAND FREE ENERGY PREDICTED BY IDOCK:   -7.24 KCAL/MOL
REMARK 924 INTRA-LIGAND FREE ENERGY PREDICTED BY IDOCK:   -0.39 KCAL/MOL
REMARK 927      BINDING AFFINITY PREDICTED BY RF-SCORE:    0.00 PKD
ROOT
HETATM    1  C   UNL     1      -9.552  10.837  67.666  1.00  0.00    -0.158 C  
HETATM    2  S   UNL     1      -9.821   9.450  66.533  1.00  0.00    -0.278 SA 
HETATM    3  C   UNL     1      -9.813  10.503  65.062  1.00  0.00    -0.306 C  
HETATM    4  C   UNL     1     -10.663  11.750  65.183  1.00  0.00    -0.291 C  
HETATM    5 CL   UNL     1     -11.087  12.317  63.586  1.00  0.00    -0.493 Cl 
HETATM    6  CA  UNL     1     -11.066  12.331  66.347  1.00  0.00    -0.303 C  
HETATM    7  N   UNL     1     -10.650  11.780  67.530  1.00  0.00    -0.208 N  
HETATM    8  C   UNL     1     -11.985  13.541  66.323  1.00  0.00    -0.413 C  
HETATM    9  C   UNL     1     -10.948  11.844  68.846  1.00  0.00    -0.238 C  
HETATM   10  O   UNL     1     -12.285  14.110  67.507  1.00  0.00    -0.370 OA 
HETATM   11  OXT UNL     1     -12.407  14.063  65.303  1.00  0.00    -0.419 OA 
HETATM   12  O   UNL     1     -11.719  12.570  69.426  1.00  0.00    -0.293 OA 
HETATM   13  CA  UNL     1     -10.022  10.612  69.139  1.00  0.00    -0.211 C  
ENDROOT
BRANCH  13  14
HETATM   14  N   UNL     1     -10.730   9.342  69.398  1.00  0.00    -0.227 N  
HETATM   15  H   UNL     1     -10.976   8.763  68.595  1.00  0.00     0.000 HD 
HETATM   16  C   UNL     1     -11.081   8.886  70.649  1.00  0.00    -0.262 C  
HETATM   17  O   UNL     1     -10.795   9.481  71.682  1.00  0.00    -0.343 OA 
BRANCH  16  18
HETATM   18  CA  UNL     1     -11.867   7.551  70.605  1.00  0.00    -0.179 C  
HETATM   19  H2  UNL     1     -12.750   7.886  72.483  1.00  0.00     0.000 HD 
HETATM   20  N   UNL     1     -12.238   7.152  71.993  1.00  0.00    -0.402 NA 
HETATM   21  H1  UNL     1     -12.755   6.273  71.965  1.00  0.00     0.000 HD 
BRANCH  18  22
HETATM   22  C   UNL     1     -11.083   6.465  69.893  1.00  0.00    -0.444 A  
HETATM   23  C   UNL     1     -10.324   5.556  70.649  1.00  0.00    -0.332 A  
HETATM   24  C   UNL     1      -9.582   4.551  70.024  1.00  0.00    -0.267 A  
HETATM   25  C   UNL     1      -9.596   4.433  68.637  1.00  0.00    -0.216 A  
HETATM   26  C   UNL     1     -10.360   5.311  67.873  1.00  0.00    -0.189 A  
HETATM   27  C   UNL     1     -11.106   6.315  68.497  1.00  0.00    -0.397 A  
ENDBRANCH  18  22
ENDBRANCH  16  18
ENDBRANCH  13  14
TORSDOF 3
ENDMDL
MODEL       42
REMARK 921   NORMALIZED FREE ENERGY PREDICTED BY IDOCK:   -5.88 KCAL/MOL
REMARK 922        TOTAL FREE ENERGY PREDICTED BY IDOCK:   -7.62 KCAL/MOL
REMARK 923 INTER-LIGAND FREE ENERGY PREDICTED BY IDOCK:   -7.18 KCAL/MOL
REMARK 924 INTRA-LIGAND FREE ENERGY PREDICTED BY IDOCK:   -0.44 KCAL/MOL
REMARK 927      BINDING AFFINITY PREDICTED BY RF-SCORE:    0.00 PKD
ROOT
HETATM    1  C   UNL     1     -10.874  13.340  67.641  1.00  0.00    -0.258 C  
HETATM    2  S   UNL     1      -9.066  13.341  67.748  1.00  0.00    -0.213 SA 
HETATM    3  C   UNL     1      -8.939  15.130  67.513  1.00  0.00    -0.180 C  
HETATM    4  C   UNL     1      -9.779  15.669  66.374  1.00  0.00    -0.279 C  
HETATM    5 CL   UNL     1      -9.118  17.198  65.845  1.00  0.00    -0.119 Cl 
HETATM    6  CA  UNL     1     -10.860  15.056  65.819  1.00  0.00    -0.350 C  
HETATM    7  N   UNL     1     -11.271  13.858  66.342  1.00  0.00    -0.310 N  
HETATM    8  C   UNL     1     -11.566  15.675  64.625  1.00  0.00    -0.249 C  
HETATM    9  C   UNL     1     -12.081  12.827  66.018  1.00  0.00    -0.395 C  
HETATM   10  O   UNL     1     -12.673  15.054  64.172  1.00  0.00    -0.729 OA 
HETATM   11  OXT UNL     1     -11.234  16.727  64.100  1.00  0.00    -1.155 OA 
HETATM   12  O   UNL     1     -12.831  12.704  65.080  1.00  0.00    -0.765 OA 
HETATM   13  CA  UNL     1     -11.528  11.985  67.221  1.00  0.00    -0.335 C  
ENDROOT
BRANCH  13  14
HETATM   14  N   UNL     1     -10.589  10.907  66.853  1.00  0.00    -0.250 N  
HETATM   15  H   UNL     1     -10.068  11.008  65.981  1.00  0.00     0.000 HD 
HETATM   16  C   UNL     1     -10.367   9.774  67.604  1.00  0.00    -0.230 C  
HETATM   17  O   UNL     1     -10.906   9.575  68.687  1.00  0.00    -0.209 OA 
BRANCH  16  18
HETATM   18  CA  UNL     1      -9.371   8.793  66.937  1.00  0.00    -0.167 C  
HETATM   19  H2  UNL     1     -10.817   8.068  65.595  1.00  0.00     0.000 HD 
HETATM   20  N   UNL     1     -10.130   7.705  66.257  1.00  0.00    -0.464 NA 
HETATM   21  H1  UNL     1      -9.475   7.059  65.818  1.00  0.00     0.000 HD 
BRANCH  18  22
HETATM   22  C   UNL     1      -8.371   8.245  67.938  1.00  0.00    -0.128 A  
HETATM   23  C   UNL     1      -8.681   7.075  68.651  1.00  0.00    -0.123 A  
HETATM   24  C   UNL     1      -7.788   6.550  69.588  1.00  0.00    -0.111 A  
HETATM   25  C   UNL     1      -6.569   7.182  69.820  1.00  0.00    -0.044 A  
HETATM   26  C   UNL     1      -6.235   8.330  69.108  1.00  0.00    -0.039 A  
HETATM   27  C   UNL     1      -7.126   8.854  68.167  1.00  0.00    -0.078 A  
ENDBRANCH  18  22
ENDBRANCH  16  18
ENDBRANCH  13  14
TORSDOF 3
ENDMDL
MODEL       43
REMARK 921   NORMALIZED FREE ENERGY PREDICTED BY IDOCK:   -5.84 KCAL/MOL
REMARK 922        TOTAL FREE ENERGY PREDICTED BY IDOCK:   -7.57 KCAL/MOL
REMARK 923 INTER-LIGAND FREE ENERGY PREDICTED BY IDOCK:   -6.97 KCAL/MOL
REMARK 924 INTRA-LIGAND FREE ENERGY PREDICTED BY IDOCK:   -0.59 KCAL/MOL
REMARK 927      BINDING AFFINITY PREDICTED BY RF-SCORE:    0.00 PKD
ROOT
HETATM    1  C   UNL     1      -8.787   8.691  67.639  1.00  0.00    -0.136 C  
HETATM    2  S   UNL     1      -8.926  10.399  68.224  1.00  0.00    -0.140 SA 
HETATM    3  C   UNL     1      -8.637   9.950  69.953  1.00  0.00    -0.194 C  
HETATM    4  C   UNL     1      -9.443   8.761  70.431  1.00  0.00    -0.179 C  
HETATM    5 CL   UNL     1      -9.580   8.820  72.172  1.00  0.00    -0.373 Cl 
HETATM    6  CA  UNL     1     -10.006   7.807  69.639  1.00  0.00    -0.190 C  
HETATM    7  N   UNL     1      -9.810   7.884  68.285  1.00  0.00    -0.164 N  
HETATM    8  C   UNL     1     -10.858   6.708  70.249  1.00  0.00    -0.271 C  
HETATM    9  C   UNL     1     -10.314   7.354  67.150  1.00  0.00    -0.307 C  
HETATM   10  O   UNL     1     -11.323   5.754  69.417  1.00  0.00    -0.247 OA 
HETATM   11  OXT UNL     1     -11.088   6.598  71.443  1.00  0.00    -0.244 OA 
HETATM   12  O   UNL     1     -11.138   6.484  67.007  1.00  0.00    -0.399 OA 
HETATM   13  CA  UNL     1      -9.498   8.377  66.283  1.00  0.00    -0.224 C  
ENDROOT
BRANCH  13  14
HETATM   14  N   UNL     1     -10.290   9.482  65.705  1.00  0.00    -0.188 N  
HETATM   15  H   UNL     1     -11.238   9.620  66.056  1.00  0.00     0.000 HD 
HETATM   16  C   UNL     1      -9.837  10.338  64.727  1.00  0.00    -0.334 C  
HETATM   17  O   UNL     1      -8.701  10.288  64.269  1.00  0.00    -0.181 OA 
BRANCH  16  18
HETATM   18  CA  UNL     1     -10.911  11.360  64.276  1.00  0.00    -0.349 C  
HETATM   19  H2  UNL     1     -10.602  10.948  62.238  1.00  0.00     0.000 HD 
HETATM   20  N   UNL     1     -10.653  11.755  62.861  1.00  0.00    -0.639 NA 
HETATM   21  H1  UNL     1     -11.359  12.428  62.565  1.00  0.00     0.000 HD 
BRANCH  18  22
HETATM   22  C   UNL     1     -10.959  12.563  65.199  1.00  0.00    -0.332 A  
HETATM   23  C   UNL     1     -10.050  13.617  65.005  1.00  0.00    -0.293 A  
HETATM   24  C   UNL     1     -10.061  14.733  65.844  1.00  0.00    -0.343 A  
HETATM   25  C   UNL     1     -10.984  14.818  66.883  1.00  0.00    -0.328 A  
HETATM   26  C   UNL     1     -11.907  13.794  67.077  1.00  0.00    -0.445 A  
HETATM   27  C   UNL     1     -11.900  12.677  66.236  1.00  0.00    -0.471 A  
ENDBRANCH  18  22
ENDBRANCH  16  18
ENDBRANCH  13  14
TORSDOF 3
ENDMDL
MODEL       44
REMARK 921   NORMALIZED FREE ENERGY PREDICTED BY IDOCK:   -5.84 KCAL/MOL
REMARK 922        TOTAL FREE ENERGY PREDICTED BY IDOCK:   -7.56 KCAL/MOL
REMARK 923 INTER-LIGAND FREE ENERGY PREDICTED BY IDOCK:   -7.12 KCAL/MOL
REMARK 924 INTRA-LIGAND FREE ENERGY PREDICTED BY IDOCK:   -0.44 KCAL/MOL
REMARK 927      BINDING AFFINITY PREDICTED BY RF-SCORE:    0.00 PKD
ROOT
HETATM    1  C   UNL     1      -9.807  11.913  67.589  1.00  0.00    -0.187 C  
HETATM    2  S   UNL     1      -9.086  10.388  68.246  1.00  0.00    -0.150 SA 
HETATM    3  C   UNL     1      -7.929  10.206  66.867  1.00  0.00    -0.114 C  
HETATM    4  C   UNL     1      -8.553  10.397  65.501  1.00  0.00    -0.169 C  
HETATM    5 CL   UNL     1      -7.566   9.600  64.299  1.00  0.00    -0.122 Cl 
HETATM    6  CA  UNL     1      -9.716  11.055  65.239  1.00  0.00    -0.239 C  
HETATM    7  N   UNL     1     -10.385  11.640  66.282  1.00  0.00    -0.227 N  
HETATM    8  C   UNL     1     -10.270  11.105  63.825  1.00  0.00    -0.377 C  
HETATM    9  C   UNL     1     -11.600  12.164  66.550  1.00  0.00    -0.359 C  
HETATM   10  O   UNL     1     -11.384  11.835  63.624  1.00  0.00    -0.408 OA 
HETATM   11  OXT UNL     1      -9.734  10.585  62.858  1.00  0.00    -0.317 OA 
HETATM   12  O   UNL     1     -12.534  12.357  65.810  1.00  0.00    -0.615 OA 
HETATM   13  CA  UNL     1     -11.253  12.247  68.078  1.00  0.00    -0.269 C  
ENDROOT
BRANCH  13  14
HETATM   14  N   UNL     1     -11.895  11.221  68.924  1.00  0.00    -0.340 N  
HETATM   15  H   UNL     1     -12.126  10.326  68.492  1.00  0.00     0.000 HD 
HETATM   16  C   UNL     1     -12.203  11.388  70.256  1.00  0.00    -0.349 C  
HETATM   17  O   UNL     1     -11.929  12.406  70.882  1.00  0.00    -0.183 OA 
BRANCH  16  18
HETATM   18  CA  UNL     1     -12.925  10.161  70.867  1.00  0.00    -0.351 C  
HETATM   19  H2  UNL     1     -14.238  11.357  71.990  1.00  0.00     0.000 HD 
HETATM   20  N   UNL     1     -13.607  10.567  72.129  1.00  0.00    -0.468 NA 
HETATM   21  H1  UNL     1     -14.082   9.759  72.532  1.00  0.00     0.000 HD 
BRANCH  18  22
HETATM   22  C   UNL     1     -11.969   9.004  71.088  1.00  0.00    -0.356 A  
HETATM   23  C   UNL     1     -10.607   9.268  71.307  1.00  0.00    -0.417 A  
HETATM   24  C   UNL     1      -9.699   8.226  71.503  1.00  0.00    -0.251 A  
HETATM   25  C   UNL     1     -10.138   6.905  71.492  1.00  0.00    -0.195 A  
HETATM   26  C   UNL     1     -11.488   6.624  71.298  1.00  0.00    -0.360 A  
HETATM   27  C   UNL     1     -12.399   7.666  71.106  1.00  0.00    -0.293 A  
ENDBRANCH  18  22
ENDBRANCH  16  18
ENDBRANCH  13  14
TORSDOF 3
ENDMDL
MODEL       45
REMARK 921   NORMALIZED FREE ENERGY PREDICTED BY IDOCK:   -5.82 KCAL/MOL
REMARK 922        TOTAL FREE ENERGY PREDICTED BY IDOCK:   -7.54 KCAL/MOL
REMARK 923 INTER-LIGAND FREE ENERGY PREDICTED BY IDOCK:   -7.41 KCAL/MOL
REMARK 924 INTRA-LIGAND FREE ENERGY PREDICTED BY IDOCK:   -0.14 KCAL/MOL
REMARK 927      BINDING AFFINITY PREDICTED BY RF-SCORE:    0.00 PKD
ROOT
HETATM    1  C   UNL     1      -9.685  12.686  66.481  1.00  0.00    -0.256 C  
HETATM    2  S   UNL     1     -11.436  12.339  66.175  1.00  0.00    -0.376 SA 
HETATM    3  C   UNL     1     -11.557  13.545  64.833  1.00  0.00    -0.335 C  
HETATM    4  C   UNL     1     -10.943  14.893  65.148  1.00  0.00    -0.399 C  
HETATM    5 CL   UNL     1     -11.653  16.107  64.111  1.00  0.00    -0.210 Cl 
HETATM    6  CA  UNL     1     -10.009  15.140  66.108  1.00  0.00    -0.295 C  
HETATM    7  N   UNL     1      -9.535  14.086  66.844  1.00  0.00    -0.255 N  
HETATM    8  C   UNL     1      -9.534  16.558  66.371  1.00  0.00    -0.288 C  
HETATM    9  C   UNL     1      -8.833  13.866  67.976  1.00  0.00    -0.184 C  
HETATM   10  O   UNL     1      -8.555  16.722  67.282  1.00  0.00    -0.186 OA 
HETATM   11  OXT UNL     1      -9.934  17.541  65.765  1.00  0.00    -0.546 OA 
HETATM   12  O   UNL     1      -8.286  14.656  68.707  1.00  0.00    -0.150 OA 
HETATM   13  CA  UNL     1      -9.162  12.333  67.910  1.00  0.00    -0.190 C  
ENDROOT
BRANCH  13  14
HETATM   14  N   UNL     1     -10.184  11.869  68.870  1.00  0.00    -0.391 N  
HETATM   15  H   UNL     1     -10.615  12.565  69.478  1.00  0.00     0.000 HD 
HETATM   16  C   UNL     1     -10.596  10.561  68.999  1.00  0.00    -0.222 C  
HETATM   17  O   UNL     1     -10.176   9.655  68.288  1.00  0.00    -0.170 OA 
BRANCH  16  18
HETATM   18  CA  UNL     1     -11.639  10.367  70.129  1.00  0.00    -0.312 C  
HETATM   19  H2  UNL     1     -12.261  12.373  70.047  1.00  0.00     0.000 HD 
HETATM   20  N   UNL     1     -11.956  11.689  70.741  1.00  0.00    -0.433 NA 
HETATM   21  H1  UNL     1     -12.642  11.561  71.485  1.00  0.00     0.000 HD 
BRANCH  18  22
HETATM   22  C   UNL     1     -11.160   9.365  71.163  1.00  0.00    -0.432 A  
HETATM   23  C   UNL     1      -9.782   9.143  71.321  1.00  0.00    -0.351 A  
HETATM   24  C   UNL     1      -9.309   8.220  72.257  1.00  0.00    -0.323 A  
HETATM   25  C   UNL     1     -10.205   7.512  73.054  1.00  0.00    -0.360 A  
HETATM   26  C   UNL     1     -11.573   7.734  72.926  1.00  0.00    -0.301 A  
HETATM   27  C   UNL     1     -12.048   8.660  71.994  1.00  0.00    -0.442 A  
ENDBRANCH  18  22
ENDBRANCH  16  18
ENDBRANCH  13  14
TORSDOF 3
ENDMDL
MODEL       46
REMARK 921   NORMALIZED FREE ENERGY PREDICTED BY IDOCK:   -5.79 KCAL/MOL
REMARK 922        TOTAL FREE ENERGY PREDICTED BY IDOCK:   -7.50 KCAL/MOL
REMARK 923 INTER-LIGAND FREE ENERGY PREDICTED BY IDOCK:   -6.96 KCAL/MOL
REMARK 924 INTRA-LIGAND FREE ENERGY PREDICTED BY IDOCK:   -0.55 KCAL/MOL
REMARK 927      BINDING AFFINITY PREDICTED BY RF-SCORE:    0.00 PKD
ROOT
HETATM    1  C   UNL     1     -11.183  16.249  66.821  1.00  0.00     0.217 C  
HETATM    2  S   UNL     1      -9.817  15.919  65.680  1.00  0.00    -0.242 SA 
HETATM    3  C   UNL     1     -10.550  14.382  65.068  1.00  0.00    -0.432 C  
HETATM    4  C   UNL     1     -11.066  13.462  66.153  1.00  0.00    -0.288 C  
HETATM    5 CL   UNL     1     -11.144  11.829  65.536  1.00  0.00    -0.354 Cl 
HETATM    6  CA  UNL     1     -11.390  13.829  67.424  1.00  0.00    -0.324 C  
HETATM    7  N   UNL     1     -11.286  15.151  67.768  1.00  0.00    -0.324 N  
HETATM    8  C   UNL     1     -11.823  12.784  68.438  1.00  0.00    -0.310 C  
HETATM    9  C   UNL     1     -11.270  15.917  68.880  1.00  0.00    -0.343 C  
HETATM   10  O   UNL     1     -12.201  13.225  69.655  1.00  0.00    -0.279 OA 
HETATM   11  OXT UNL     1     -11.913  11.590  68.200  1.00  0.00    -0.571 OA 
HETATM   12  O   UNL     1     -11.448  15.605  70.032  1.00  0.00    -0.288 OA 
HETATM   13  CA  UNL     1     -10.845  17.171  68.037  1.00  0.00    -0.317 C  
ENDROOT
BRANCH  13  14
HETATM   14  N   UNL     1      -9.427  17.564  68.167  1.00  0.00    -0.281 N  
HETATM   15  H   UNL     1      -8.741  16.824  68.311  1.00  0.00     0.000 HD 
HETATM   16  C   UNL     1      -8.969  18.861  68.108  1.00  0.00    -0.311 C  
HETATM   17  O   UNL     1      -9.703  19.820  67.895  1.00  0.00    -0.352 OA 
BRANCH  16  18
HETATM   18  CA  UNL     1      -7.440  18.971  68.337  1.00  0.00    -0.300 C  
HETATM   19  H2  UNL     1      -7.672  19.515  70.354  1.00  0.00     0.000 HD 
HETATM   20  N   UNL     1      -7.180  19.839  69.521  1.00  0.00    -0.261 NA 
HETATM   21  H1  UNL     1      -6.173  19.912  69.671  1.00  0.00     0.000 HD 
BRANCH  18  22
HETATM   22  C   UNL     1      -6.726  19.476  67.097  1.00  0.00    -0.212 A  
HETATM   23  C   UNL     1      -6.126  20.746  67.117  1.00  0.00    -0.302 A  
HETATM   24  C   UNL     1      -5.470  21.244  65.989  1.00  0.00    -0.267 A  
HETATM   25  C   UNL     1      -5.395  20.479  64.829  1.00  0.00    -0.211 A  
HETATM   26  C   UNL     1      -5.964  19.209  64.798  1.00  0.00    -0.317 A  
HETATM   27  C   UNL     1      -6.618  18.706  65.926  1.00  0.00    -0.291 A  
ENDBRANCH  18  22
ENDBRANCH  16  18
ENDBRANCH  13  14
TORSDOF 3
ENDMDL
MODEL       47
REMARK 921   NORMALIZED FREE ENERGY PREDICTED BY IDOCK:   -5.77 KCAL/MOL
REMARK 922        TOTAL FREE ENERGY PREDICTED BY IDOCK:   -7.48 KCAL/MOL
REMARK 923 INTER-LIGAND FREE ENERGY PREDICTED BY IDOCK:   -6.99 KCAL/MOL
REMARK 924 INTRA-LIGAND FREE ENERGY PREDICTED BY IDOCK:   -0.49 KCAL/MOL
REMARK 927      BINDING AFFINITY PREDICTED BY RF-SCORE:    0.00 PKD
ROOT
HETATM    1  C   UNL     1     -10.675   6.757  71.883  1.00  0.00    -0.223 C  
HETATM    2  S   UNL     1     -11.343   6.450  70.229  1.00  0.00    -0.400 SA 
HETATM    3  C   UNL     1     -10.225   5.064  69.911  1.00  0.00    -0.270 C  
HETATM    4  C   UNL     1      -8.779   5.334  70.268  1.00  0.00    -0.122 C  
HETATM    5 CL   UNL     1      -7.750   4.247  69.366  1.00  0.00    -0.054 Cl 
HETATM    6  CA  UNL     1      -8.334   6.292  71.128  1.00  0.00    -0.124 C  
HETATM    7  N   UNL     1      -9.259   7.070  71.773  1.00  0.00    -0.142 N  
HETATM    8  C   UNL     1      -6.845   6.506  71.335  1.00  0.00    -0.063 C  
HETATM    9  C   UNL     1      -9.309   8.216  72.486  1.00  0.00    -0.260 C  
HETATM   10  O   UNL     1      -6.475   7.419  72.255  1.00  0.00    -0.050 OA 
HETATM   11  OXT UNL     1      -5.973   5.861  70.774  1.00  0.00    -0.027 OA 
HETATM   12  O   UNL     1      -8.408   8.922  72.871  1.00  0.00    -0.372 OA 
HETATM   13  CA  UNL     1     -10.877   8.203  72.440  1.00  0.00    -0.339 C  
ENDROOT
BRANCH  13  14
HETATM   14  N   UNL     1     -11.485   9.171  71.504  1.00  0.00    -0.339 N  
HETATM   15  H   UNL     1     -10.915   9.499  70.725  1.00  0.00     0.000 HD 
HETATM   16  C   UNL     1     -12.768   9.659  71.611  1.00  0.00    -0.407 C  
HETATM   17  O   UNL     1     -13.551   9.296  72.482  1.00  0.00    -0.467 OA 
BRANCH  16  18
HETATM   18  CA  UNL     1     -13.109  10.704  70.518  1.00  0.00    -0.110 C  
HETATM   19  H2  UNL     1     -12.411   9.468  68.968  1.00  0.00     0.000 HD 
HETATM   20  N   UNL     1     -12.296  10.426  69.300  1.00  0.00    -0.682 NA 
HETATM   21  H1  UNL     1     -12.519  11.114  68.581  1.00  0.00     0.000 HD 
BRANCH  18  22
HETATM   22  C   UNL     1     -12.909  12.121  71.021  1.00  0.00    -0.258 A  
HETATM   23  C   UNL     1     -12.042  12.982  70.328  1.00  0.00    -0.388 A  
HETATM   24  C   UNL     1     -11.828  14.290  70.770  1.00  0.00    -0.336 A  
HETATM   25  C   UNL     1     -12.484  14.759  71.904  1.00  0.00    -0.410 A  
HETATM   26  C   UNL     1     -13.365  13.928  72.591  1.00  0.00    -0.640 A  
HETATM   27  C   UNL     1     -13.583  12.620  72.148  1.00  0.00    -0.510 A  
ENDBRANCH  18  22
ENDBRANCH  16  18
ENDBRANCH  13  14
TORSDOF 3
ENDMDL
MODEL       48
REMARK 921   NORMALIZED FREE ENERGY PREDICTED BY IDOCK:   -5.76 KCAL/MOL
REMARK 922        TOTAL FREE ENERGY PREDICTED BY IDOCK:   -7.48 KCAL/MOL
REMARK 923 INTER-LIGAND FREE ENERGY PREDICTED BY IDOCK:   -7.06 KCAL/MOL
REMARK 924 INTRA-LIGAND FREE ENERGY PREDICTED BY IDOCK:   -0.42 KCAL/MOL
REMARK 927      BINDING AFFINITY PREDICTED BY RF-SCORE:    0.00 PKD
ROOT
HETATM    1  C   UNL     1     -11.692  14.395  67.676  1.00  0.00    -0.391 C  
HETATM    2  S   UNL     1     -10.402  14.327  68.945  1.00  0.00    -0.178 SA 
HETATM    3  C   UNL     1     -10.524  16.092  69.324  1.00  0.00    -0.257 C  
HETATM    4  C   UNL     1     -10.549  16.990  68.106  1.00  0.00    -0.369 C  
HETATM    5 CL   UNL     1     -10.032  18.596  68.563  1.00  0.00    -0.409 Cl 
HETATM    6  CA  UNL     1     -10.888  16.613  66.842  1.00  0.00    -0.060 C  
HETATM    7  N   UNL     1     -11.282  15.318  66.631  1.00  0.00    -0.282 N  
HETATM    8  C   UNL     1     -10.795  17.603  65.694  1.00  0.00     0.035 C  
HETATM    9  C   UNL     1     -11.476  14.466  65.602  1.00  0.00    -0.336 C  
HETATM   10  O   UNL     1     -11.216  17.186  64.484  1.00  0.00    -1.104 OA 
HETATM   11  OXT UNL     1     -10.430  18.763  65.814  1.00  0.00    -0.571 OA 
HETATM   12  O   UNL     1     -11.425  14.671  64.413  1.00  0.00    -0.342 OA 
HETATM   13  CA  UNL     1     -11.644  13.265  66.598  1.00  0.00    -0.365 C  
ENDROOT
BRANCH  13  14
HETATM   14  N   UNL     1     -10.488  12.351  66.679  1.00  0.00    -0.228 N  
HETATM   15  H   UNL     1      -9.587  12.693  66.345  1.00  0.00     0.000 HD 
HETATM   16  C   UNL     1     -10.541  11.068  67.176  1.00  0.00    -0.250 C  
HETATM   17  O   UNL     1     -11.561  10.574  67.644  1.00  0.00    -0.447 OA 
BRANCH  16  18
HETATM   18  CA  UNL     1      -9.183  10.327  67.081  1.00  0.00    -0.145 C  
HETATM   19  H2  UNL     1      -8.516  11.089  68.922  1.00  0.00     0.000 HD 
HETATM   20  N   UNL     1      -8.188  11.006  67.959  1.00  0.00    -0.119 NA 
HETATM   21  H1  UNL     1      -7.294  10.519  67.896  1.00  0.00     0.000 HD 
BRANCH  18  22
HETATM   22  C   UNL     1      -8.699  10.232  65.646  1.00  0.00    -0.176 A  
HETATM   23  C   UNL     1      -7.319  10.249  65.382  1.00  0.00    -0.144 A  
HETATM   24  C   UNL     1      -6.841  10.174  64.071  1.00  0.00    -0.102 A  
HETATM   25  C   UNL     1      -7.733  10.072  63.007  1.00  0.00    -0.143 A  
HETATM   26  C   UNL     1      -9.103  10.031  63.251  1.00  0.00    -0.300 A  
HETATM   27  C   UNL     1      -9.583  10.102  64.562  1.00  0.00    -0.376 A  
ENDBRANCH  18  22
ENDBRANCH  16  18
ENDBRANCH  13  14
TORSDOF 3
ENDMDL
MODEL       49
REMARK 921   NORMALIZED FREE ENERGY PREDICTED BY IDOCK:   -5.72 KCAL/MOL
REMARK 922        TOTAL FREE ENERGY PREDICTED BY IDOCK:   -7.42 KCAL/MOL
REMARK 923 INTER-LIGAND FREE ENERGY PREDICTED BY IDOCK:   -6.91 KCAL/MOL
REMARK 924 INTRA-LIGAND FREE ENERGY PREDICTED BY IDOCK:   -0.51 KCAL/MOL
REMARK 927      BINDING AFFINITY PREDICTED BY RF-SCORE:    0.00 PKD
ROOT
HETATM    1  C   UNL     1     -11.577  13.628  67.892  1.00  0.00    -0.341 C  
HETATM    2  S   UNL     1      -9.920  14.093  68.455  1.00  0.00    -0.225 SA 
HETATM    3  C   UNL     1     -10.123  15.827  67.982  1.00  0.00    -0.228 C  
HETATM    4  C   UNL     1     -10.699  16.032  66.597  1.00  0.00    -0.247 C  
HETATM    5 CL   UNL     1     -10.263  17.623  66.020  1.00  0.00    -0.334 Cl 
HETATM    6  CA  UNL     1     -11.417  15.118  65.888  1.00  0.00    -0.159 C  
HETATM    7  N   UNL     1     -11.691  13.908  66.470  1.00  0.00    -0.372 N  
HETATM    8  C   UNL     1     -11.871  15.428  64.472  1.00  0.00    -0.256 C  
HETATM    9  C   UNL     1     -12.131  12.682  66.116  1.00  0.00    -0.333 C  
HETATM   10  O   UNL     1     -12.640  14.510  63.855  1.00  0.00    -0.827 OA 
HETATM   11  OXT UNL     1     -11.639  16.477  63.890  1.00  0.00    -1.175 OA 
HETATM   12  O   UNL     1     -12.536  12.288  65.049  1.00  0.00    -0.535 OA 
HETATM   13  CA  UNL     1     -11.774  12.119  67.537  1.00  0.00    -0.315 C  
ENDROOT
BRANCH  13  14
HETATM   14  N   UNL     1     -10.558  11.283  67.594  1.00  0.00    -0.202 N  
HETATM   15  H   UNL     1      -9.969  11.246  66.763  1.00  0.00     0.000 HD 
HETATM   16  C   UNL     1     -10.166  10.551  68.692  1.00  0.00    -0.183 C  
HETATM   17  O   UNL     1     -10.777  10.560  69.755  1.00  0.00    -0.258 OA 
BRANCH  16  18
HETATM   18  CA  UNL     1      -8.879   9.725  68.438  1.00  0.00    -0.120 C  
HETATM   19  H2  UNL     1      -9.952   7.939  68.163  1.00  0.00     0.000 HD 
HETATM   20  N   UNL     1      -9.157   8.285  68.702  1.00  0.00    -0.140 NA 
HETATM   21  H1  UNL     1      -8.310   7.741  68.535  1.00  0.00     0.000 HD 
BRANCH  18  22
HETATM   22  C   UNL     1      -7.714  10.238  69.264  1.00  0.00    -0.130 A  
HETATM   23  C   UNL     1      -7.227  11.536  69.036  1.00  0.00    -0.106 A  
HETATM   24  C   UNL     1      -6.150  12.034  69.772  1.00  0.00    -0.145 A  
HETATM   25  C   UNL     1      -5.549  11.248  70.751  1.00  0.00    -0.112 A  
HETATM   26  C   UNL     1      -6.033   9.968  71.006  1.00  0.00    -0.055 A  
HETATM   27  C   UNL     1      -7.113   9.468  70.274  1.00  0.00    -0.110 A  
ENDBRANCH  18  22
ENDBRANCH  16  18
ENDBRANCH  13  14
TORSDOF 3
ENDMDL
MODEL       50
REMARK 921   NORMALIZED FREE ENERGY PREDICTED BY IDOCK:   -5.71 KCAL/MOL
REMARK 922        TOTAL FREE ENERGY PREDICTED BY IDOCK:   -7.41 KCAL/MOL
REMARK 923 INTER-LIGAND FREE ENERGY PREDICTED BY IDOCK:   -6.75 KCAL/MOL
REMARK 924 INTRA-LIGAND FREE ENERGY PREDICTED BY IDOCK:   -0.66 KCAL/MOL
REMARK 927      BINDING AFFINITY PREDICTED BY RF-SCORE:    0.00 PKD
ROOT
HETATM    1  C   UNL     1      -8.526  11.955  66.757  1.00  0.00    -0.167 C  
HETATM    2  S   UNL     1      -7.377  12.339  68.102  1.00  0.00    -0.116 SA 
HETATM    3  C   UNL     1      -6.545  10.736  68.001  1.00  0.00    -0.063 C  
HETATM    4  C   UNL     1      -7.483   9.550  67.923  1.00  0.00    -0.083 C  
HETATM    5 CL   UNL     1      -6.645   8.115  68.463  1.00  0.00    -0.057 Cl 
HETATM    6  CA  UNL     1      -8.786   9.587  67.528  1.00  0.00    -0.126 C  
HETATM    7  N   UNL     1      -9.311  10.787  67.122  1.00  0.00    -0.155 N  
HETATM    8  C   UNL     1      -9.638   8.331  67.571  1.00  0.00    -0.154 C  
HETATM    9  C   UNL     1     -10.518  11.342  66.880  1.00  0.00    -0.245 C  
HETATM   10  O   UNL     1     -10.896   8.422  67.096  1.00  0.00    -0.226 OA 
HETATM   11  OXT UNL     1      -9.235   7.239  67.942  1.00  0.00    -0.132 OA 
HETATM   12  O   UNL     1     -11.612  10.833  66.879  1.00  0.00    -0.255 OA 
HETATM   13  CA  UNL     1      -9.863  12.763  66.755  1.00  0.00    -0.242 C  
ENDROOT
BRANCH  13  14
HETATM   14  N   UNL     1     -10.074  13.655  67.912  1.00  0.00    -0.238 N  
HETATM   15  H   UNL     1      -9.341  13.697  68.619  1.00  0.00     0.000 HD 
HETATM   16  C   UNL     1     -11.193  14.435  68.103  1.00  0.00    -0.281 C  
HETATM   17  O   UNL     1     -12.113  14.493  67.293  1.00  0.00    -0.392 OA 
BRANCH  16  18
HETATM   18  CA  UNL     1     -11.160  15.222  69.437  1.00  0.00    -0.280 C  
HETATM   19  H2  UNL     1      -9.085  15.535  69.324  1.00  0.00     0.000 HD 
HETATM   20  N   UNL     1      -9.777  15.194  69.992  1.00  0.00    -0.476 NA 
HETATM   21  H1  UNL     1      -9.754  15.711  70.871  1.00  0.00     0.000 HD 
BRANCH  18  22
HETATM   22  C   UNL     1     -12.178  14.687  70.426  1.00  0.00    -0.391 A  
HETATM   23  C   UNL     1     -13.142  15.558  70.961  1.00  0.00    -0.551 A  
HETATM   24  C   UNL     1     -14.087  15.099  71.882  1.00  0.00    -0.649 A  
HETATM   25  C   UNL     1     -14.088  13.764  72.275  1.00  0.00    -0.627 A  
HETATM   26  C   UNL     1     -13.155  12.882  71.739  1.00  0.00    -0.458 A  
HETATM   27  C   UNL     1     -12.211  13.337  70.815  1.00  0.00    -0.390 A  
ENDBRANCH  18  22
ENDBRANCH  16  18
ENDBRANCH  13  14
TORSDOF 3
ENDMDL
MODEL       51
REMARK 921   NORMALIZED FREE ENERGY PREDICTED BY IDOCK:   -5.68 KCAL/MOL
REMARK 922        TOTAL FREE ENERGY PREDICTED BY IDOCK:   -7.38 KCAL/MOL
REMARK 923 INTER-LIGAND FREE ENERGY PREDICTED BY IDOCK:   -6.82 KCAL/MOL
REMARK 924 INTRA-LIGAND FREE ENERGY PREDICTED BY IDOCK:   -0.56 KCAL/MOL
REMARK 927      BINDING AFFINITY PREDICTED BY RF-SCORE:    0.00 PKD
ROOT
HETATM    1  C   UNL     1      -9.677  11.052  66.640  1.00  0.00    -0.195 C  
HETATM    2  S   UNL     1      -8.321  12.250  66.714  1.00  0.00    -0.022 SA 
HETATM    3  C   UNL     1      -7.273  11.172  67.720  1.00  0.00    -0.091 C  
HETATM    4  C   UNL     1      -7.982  10.534  68.896  1.00  0.00    -0.128 C  
HETATM    5 CL   UNL     1      -6.802  10.075  70.101  1.00  0.00    -0.121 Cl 
HETATM    6  CA  UNL     1      -9.327  10.368  69.023  1.00  0.00    -0.194 C  
HETATM    7  N   UNL     1     -10.135  10.770  67.992  1.00  0.00    -0.171 N  
HETATM    8  C   UNL     1      -9.912   9.780  70.295  1.00  0.00    -0.253 C  
HETATM    9  C   UNL     1     -11.442  11.013  67.754  1.00  0.00    -0.261 C  
HETATM   10  O   UNL     1     -11.244   9.574  70.325  1.00  0.00    -0.246 OA 
HETATM   11  OXT UNL     1      -9.248   9.424  71.257  1.00  0.00    -0.262 OA 
HETATM   12  O   UNL     1     -12.399  10.837  68.469  1.00  0.00    -0.417 OA 
HETATM   13  CA  UNL     1     -11.095  11.647  66.361  1.00  0.00    -0.291 C  
ENDROOT
BRANCH  13  14
HETATM   14  N   UNL     1     -11.171  13.121  66.306  1.00  0.00    -0.295 N  
HETATM   15  H   UNL     1     -11.386  13.617  67.171  1.00  0.00     0.000 HD 
HETATM   16  C   UNL     1     -10.972  13.870  65.168  1.00  0.00    -0.350 C  
HETATM   17  O   UNL     1     -10.665  13.377  64.088  1.00  0.00    -0.392 OA 
BRANCH  16  18
HETATM   18  CA  UNL     1     -11.174  15.388  65.404  1.00  0.00    -0.272 C  
HETATM   19  H2  UNL     1     -11.873  15.707  63.447  1.00  0.00     0.000 HD 
HETATM   20  N   UNL     1     -11.182  16.094  64.090  1.00  0.00    -1.197 NA 
HETATM   21  H1  UNL     1     -11.314  17.094  64.245  1.00  0.00     0.000 HD 
BRANCH  18  22
HETATM   22  C   UNL     1     -10.125  15.952  66.344  1.00  0.00    -0.306 A  
HETATM   23  C   UNL     1     -10.533  16.610  67.516  1.00  0.00    -0.317 A  
HETATM   24  C   UNL     1      -9.593  17.150  68.397  1.00  0.00    -0.281 A  
HETATM   25  C   UNL     1      -8.233  17.033  68.125  1.00  0.00    -0.217 A  
HETATM   26  C   UNL     1      -7.809  16.364  66.980  1.00  0.00    -0.247 A  
HETATM   27  C   UNL     1      -8.748  15.820  66.098  1.00  0.00    -0.293 A  
ENDBRANCH  18  22
ENDBRANCH  16  18
ENDBRANCH  13  14
TORSDOF 3
ENDMDL
MODEL       52
REMARK 921   NORMALIZED FREE ENERGY PREDICTED BY IDOCK:   -5.68 KCAL/MOL
REMARK 922        TOTAL FREE ENERGY PREDICTED BY IDOCK:   -7.38 KCAL/MOL
REMARK 923 INTER-LIGAND FREE ENERGY PREDICTED BY IDOCK:   -6.96 KCAL/MOL
REMARK 924 INTRA-LIGAND FREE ENERGY PREDICTED BY IDOCK:   -0.42 KCAL/MOL
REMARK 927      BINDING AFFINITY PREDICTED BY RF-SCORE:    0.00 PKD
ROOT
HETATM    1  C   UNL     1     -11.705  14.251  68.280  1.00  0.00    -0.342 C  
HETATM    2  S   UNL     1     -10.004  13.637  68.194  1.00  0.00    -0.250 SA 
HETATM    3  C   UNL     1     -10.478  11.936  68.583  1.00  0.00    -0.212 C  
HETATM    4  C   UNL     1     -11.429  11.806  69.754  1.00  0.00    -0.245 C  
HETATM    5 CL   UNL     1     -11.307  10.194  70.420  1.00  0.00    -0.371 Cl 
HETATM    6  CA  UNL     1     -12.233  12.790  70.243  1.00  0.00    -0.277 C  
HETATM    7  N   UNL     1     -12.230  14.008  69.614  1.00  0.00    -0.346 N  
HETATM    8  C   UNL     1     -13.083  12.545  71.477  1.00  0.00    -0.277 C  
HETATM    9  C   UNL     1     -12.643  15.273  69.840  1.00  0.00    -0.177 C  
HETATM   10  O   UNL     1     -13.911  13.536  71.863  1.00  0.00    -0.388 OA 
HETATM   11  OXT UNL     1     -13.113  11.491  72.094  1.00  0.00    -0.466 OA 
HETATM   12  O   UNL     1     -13.291  15.719  70.755  1.00  0.00    -0.539 OA 
HETATM   13  CA  UNL     1     -11.862  15.778  68.575  1.00  0.00    -0.221 C  
ENDROOT
BRANCH  13  14
HETATM   14  N   UNL     1     -10.610  16.507  68.861  1.00  0.00    -0.304 N  
HETATM   15  H   UNL     1      -9.985  16.119  69.567  1.00  0.00     0.000 HD 
HETATM   16  C   UNL     1     -10.229  17.675  68.239  1.00  0.00    -0.374 C  
HETATM   17  O   UNL     1     -10.883  18.201  67.346  1.00  0.00    -0.374 OA 
BRANCH  16  18
HETATM   18  CA  UNL     1      -8.894  18.241  68.787  1.00  0.00    -0.215 C  
HETATM   19  H2  UNL     1      -9.836  19.898  69.672  1.00  0.00     0.000 HD 
HETATM   20  N   UNL     1      -9.049  19.699  69.053  1.00  0.00    -0.259 NA 
HETATM   21  H1  UNL     1      -8.170  20.072  69.413  1.00  0.00     0.000 HD 
BRANCH  18  22
HETATM   22  C   UNL     1      -7.739  17.957  67.844  1.00  0.00    -0.224 A  
HETATM   23  C   UNL     1      -7.674  18.629  66.612  1.00  0.00    -0.265 A  
HETATM   24  C   UNL     1      -6.631  18.382  65.717  1.00  0.00    -0.313 A  
HETATM   25  C   UNL     1      -5.632  17.469  66.044  1.00  0.00    -0.176 A  
HETATM   26  C   UNL     1      -5.667  16.810  67.269  1.00  0.00    -0.193 A  
HETATM   27  C   UNL     1      -6.709  17.058  68.168  1.00  0.00    -0.153 A  
ENDBRANCH  18  22
ENDBRANCH  16  18
ENDBRANCH  13  14
TORSDOF 3
ENDMDL
MODEL       53
REMARK 921   NORMALIZED FREE ENERGY PREDICTED BY IDOCK:   -5.67 KCAL/MOL
REMARK 922        TOTAL FREE ENERGY PREDICTED BY IDOCK:   -7.37 KCAL/MOL
REMARK 923 INTER-LIGAND FREE ENERGY PREDICTED BY IDOCK:   -6.95 KCAL/MOL
REMARK 924 INTRA-LIGAND FREE ENERGY PREDICTED BY IDOCK:   -0.42 KCAL/MOL
REMARK 927      BINDING AFFINITY PREDICTED BY RF-SCORE:    0.00 PKD
ROOT
HETATM    1  C   UNL     1      -9.576  11.090  66.834  1.00  0.00    -0.182 C  
HETATM    2  S   UNL     1     -10.019   9.738  65.713  1.00  0.00    -0.235 SA 
HETATM    3  C   UNL     1     -10.352  10.848  64.324  1.00  0.00    -0.368 C  
HETATM    4  C   UNL     1     -11.204  12.048  64.675  1.00  0.00    -0.326 C  
HETATM    5 CL   UNL     1     -11.968  12.658  63.226  1.00  0.00    -0.580 Cl 
HETATM    6  CA  UNL     1     -11.384  12.563  65.923  1.00  0.00    -0.340 C  
HETATM    7  N   UNL     1     -10.714  11.985  66.970  1.00  0.00    -0.233 N  
HETATM    8  C   UNL     1     -12.332  13.728  66.144  1.00  0.00    -0.452 C  
HETATM    9  C   UNL     1     -10.739  11.983  68.320  1.00  0.00    -0.224 C  
HETATM   10  O   UNL     1     -12.405  14.236  67.391  1.00  0.00    -0.311 OA 
HETATM   11  OXT UNL     1     -12.973  14.271  65.258  1.00  0.00    -0.679 OA 
HETATM   12  O   UNL     1     -11.402  12.648  69.078  1.00  0.00    -0.261 OA 
HETATM   13  CA  UNL     1      -9.726  10.784  68.359  1.00  0.00    -0.174 C  
ENDROOT
BRANCH  13  14
HETATM   14  N   UNL     1     -10.319   9.474  68.695  1.00  0.00    -0.199 N  
HETATM   15  H   UNL     1     -10.805   8.969  67.954  1.00  0.00     0.000 HD 
HETATM   16  C   UNL     1     -10.260   8.887  69.939  1.00  0.00    -0.200 C  
HETATM   17  O   UNL     1      -9.663   9.387  70.886  1.00  0.00    -0.272 OA 
BRANCH  16  18
HETATM   18  CA  UNL     1     -11.021   7.539  70.006  1.00  0.00    -0.240 C  
HETATM   19  H2  UNL     1     -11.317   7.686  72.081  1.00  0.00     0.000 HD 
HETATM   20  N   UNL     1     -10.969   7.012  71.399  1.00  0.00    -0.237 NA 
HETATM   21  H1  UNL     1     -11.470   6.124  71.444  1.00  0.00     0.000 HD 
BRANCH  18  22
HETATM   22  C   UNL     1     -10.477   6.540  69.002  1.00  0.00    -0.252 A  
HETATM   23  C   UNL     1     -11.040   6.480  67.716  1.00  0.00    -0.366 A  
HETATM   24  C   UNL     1     -10.569   5.564  66.772  1.00  0.00    -0.360 A  
HETATM   25  C   UNL     1      -9.524   4.702  67.095  1.00  0.00    -0.171 A  
HETATM   26  C   UNL     1      -8.940   4.763  68.357  1.00  0.00    -0.134 A  
HETATM   27  C   UNL     1      -9.407   5.681  69.302  1.00  0.00    -0.150 A  
ENDBRANCH  18  22
ENDBRANCH  16  18
ENDBRANCH  13  14
TORSDOF 3
ENDMDL
MODEL       54
REMARK 921   NORMALIZED FREE ENERGY PREDICTED BY IDOCK:   -5.67 KCAL/MOL
REMARK 922        TOTAL FREE ENERGY PREDICTED BY IDOCK:   -7.37 KCAL/MOL
REMARK 923 INTER-LIGAND FREE ENERGY PREDICTED BY IDOCK:   -6.78 KCAL/MOL
REMARK 924 INTRA-LIGAND FREE ENERGY PREDICTED BY IDOCK:   -0.59 KCAL/MOL
REMARK 927      BINDING AFFINITY PREDICTED BY RF-SCORE:    0.00 PKD
ROOT
HETATM    1  C   UNL     1      -8.069  16.520  69.009  1.00  0.00    -0.214 C  
HETATM    2  S   UNL     1      -6.736  16.165  67.836  1.00  0.00    -0.149 SA 
HETATM    3  C   UNL     1      -6.217  17.895  67.727  1.00  0.00    -0.165 C  
HETATM    4  C   UNL     1      -7.354  18.876  67.536  1.00  0.00    -0.226 C  
HETATM    5 CL   UNL     1      -6.733  20.347  66.826  1.00  0.00    -0.271 Cl 
HETATM    6  CA  UNL     1      -8.663  18.650  67.835  1.00  0.00    -0.288 C  
HETATM    7  N   UNL     1      -9.006  17.447  68.396  1.00  0.00    -0.271 N  
HETATM    8  C   UNL     1      -9.716  19.698  67.518  1.00  0.00    -0.353 C  
HETATM    9  C   UNL     1     -10.113  16.714  68.638  1.00  0.00    -0.270 C  
HETATM   10  O   UNL     1     -10.980  19.440  67.908  1.00  0.00    -0.322 OA 
HETATM   11  OXT UNL     1      -9.477  20.777  66.999  1.00  0.00    -0.368 OA 
HETATM   12  O   UNL     1     -11.275  16.997  68.474  1.00  0.00    -0.250 OA 
HETATM   13  CA  UNL     1      -9.234  15.480  69.049  1.00  0.00    -0.238 C  
ENDROOT
BRANCH  13  14
HETATM   14  N   UNL     1      -9.162  14.399  68.045  1.00  0.00    -0.187 N  
HETATM   15  H   UNL     1      -8.395  14.425  67.374  1.00  0.00     0.000 HD 
HETATM   16  C   UNL     1     -10.059  13.359  67.954  1.00  0.00    -0.238 C  
HETATM   17  O   UNL     1     -10.990  13.208  68.738  1.00  0.00    -0.251 OA 
BRANCH  16  18
HETATM   18  CA  UNL     1      -9.762  12.409  66.766  1.00  0.00    -0.223 C  
HETATM   19  H2  UNL     1      -7.695  12.406  67.145  1.00  0.00     0.000 HD 
HETATM   20  N   UNL     1      -8.334  12.554  66.363  1.00  0.00    -0.390 NA 
HETATM   21  H1  UNL     1      -8.139  11.930  65.580  1.00  0.00     0.000 HD 
BRANCH  18  22
HETATM   22  C   UNL     1     -10.706  12.658  65.604  1.00  0.00    -0.297 A  
HETATM   23  C   UNL     1     -10.921  13.974  65.161  1.00  0.00    -0.357 A  
HETATM   24  C   UNL     1     -11.791  14.238  64.101  1.00  0.00    -0.338 A  
HETATM   25  C   UNL     1     -12.452  13.193  63.463  1.00  0.00    -0.361 A  
HETATM   26  C   UNL     1     -12.235  11.880  63.873  1.00  0.00    -0.497 A  
HETATM   27  C   UNL     1     -11.362  11.613  64.931  1.00  0.00    -0.252 A  
ENDBRANCH  18  22
ENDBRANCH  16  18
ENDBRANCH  13  14
TORSDOF 3
ENDMDL
MODEL       55
REMARK 921   NORMALIZED FREE ENERGY PREDICTED BY IDOCK:   -5.66 KCAL/MOL
REMARK 922        TOTAL FREE ENERGY PREDICTED BY IDOCK:   -7.35 KCAL/MOL
REMARK 923 INTER-LIGAND FREE ENERGY PREDICTED BY IDOCK:   -7.07 KCAL/MOL
REMARK 924 INTRA-LIGAND FREE ENERGY PREDICTED BY IDOCK:   -0.28 KCAL/MOL
REMARK 927      BINDING AFFINITY PREDICTED BY RF-SCORE:    0.00 PKD
ROOT
HETATM    1  C   UNL     1     -10.488  11.408  67.878  1.00  0.00    -0.184 C  
HETATM    2  S   UNL     1      -8.938  12.333  68.013  1.00  0.00    -0.194 SA 
HETATM    3  C   UNL     1      -7.912  10.845  67.953  1.00  0.00    -0.111 C  
HETATM    4  C   UNL     1      -8.381   9.727  68.861  1.00  0.00    -0.120 C  
HETATM    5 CL   UNL     1      -7.040   8.661  69.203  1.00  0.00    -0.062 Cl 
HETATM    6  CA  UNL     1      -9.638   9.582  69.365  1.00  0.00    -0.180 C  
HETATM    7  N   UNL     1     -10.595  10.494  69.004  1.00  0.00    -0.207 N  
HETATM    8  C   UNL     1      -9.953   8.453  70.330  1.00  0.00    -0.186 C  
HETATM    9  C   UNL     1     -11.829  10.885  69.390  1.00  0.00    -0.328 C  
HETATM   10  O   UNL     1     -11.233   8.323  70.731  1.00  0.00    -0.260 OA 
HETATM   11  OXT UNL     1      -9.140   7.623  70.706  1.00  0.00    -0.151 OA 
HETATM   12  O   UNL     1     -12.558  10.413  70.227  1.00  0.00    -0.280 OA 
HETATM   13  CA  UNL     1     -11.759  12.127  68.433  1.00  0.00    -0.332 C  
ENDROOT
BRANCH  13  14
HETATM   14  N   UNL     1     -11.521  13.422  69.102  1.00  0.00    -0.283 N  
HETATM   15  H   UNL     1     -11.255  13.405  70.087  1.00  0.00     0.000 HD 
HETATM   16  C   UNL     1     -11.634  14.649  68.489  1.00  0.00    -0.317 C  
HETATM   17  O   UNL     1     -11.905  14.780  67.300  1.00  0.00    -0.378 OA 
BRANCH  16  18
HETATM   18  CA  UNL     1     -11.382  15.833  69.457  1.00  0.00    -0.328 C  
HETATM   19  H2  UNL     1      -9.345  15.950  68.955  1.00  0.00     0.000 HD 
HETATM   20  N   UNL     1      -9.930  15.898  69.789  1.00  0.00    -0.254 NA 
HETATM   21  H1  UNL     1      -9.764  16.676  70.427  1.00  0.00     0.000 HD 
BRANCH  18  22
HETATM   22  C   UNL     1     -12.243  15.728  70.702  1.00  0.00    -0.422 A  
HETATM   23  C   UNL     1     -13.544  15.209  70.598  1.00  0.00    -0.176 A  
HETATM   24  C   UNL     1     -14.366  15.109  71.723  1.00  0.00    -0.696 A  
HETATM   25  C   UNL     1     -13.898  15.518  72.969  1.00  0.00    -0.425 A  
HETATM   26  C   UNL     1     -12.604  16.014  73.095  1.00  0.00    -0.625 A  
HETATM   27  C   UNL     1     -11.778  16.111  71.972  1.00  0.00    -0.574 A  
ENDBRANCH  18  22
ENDBRANCH  16  18
ENDBRANCH  13  14
TORSDOF 3
ENDMDL
MODEL       56
REMARK 921   NORMALIZED FREE ENERGY PREDICTED BY IDOCK:   -5.61 KCAL/MOL
REMARK 922        TOTAL FREE ENERGY PREDICTED BY IDOCK:   -7.29 KCAL/MOL
REMARK 923 INTER-LIGAND FREE ENERGY PREDICTED BY IDOCK:   -6.81 KCAL/MOL
REMARK 924 INTRA-LIGAND FREE ENERGY PREDICTED BY IDOCK:   -0.48 KCAL/MOL
REMARK 927      BINDING AFFINITY PREDICTED BY RF-SCORE:    0.00 PKD
ROOT
HETATM    1  C   UNL     1     -10.690  13.558  67.812  1.00  0.00    -0.252 C  
HETATM    2  S   UNL     1     -11.744  14.000  69.216  1.00  0.00    -0.346 SA 
HETATM    3  C   UNL     1     -11.708  15.768  68.834  1.00  0.00    -0.394 C  
HETATM    4  C   UNL     1     -10.328  16.312  68.531  1.00  0.00    -0.261 C  
HETATM    5 CL   UNL     1     -10.315  18.037  68.810  1.00  0.00    -0.349 Cl 
HETATM    6  CA  UNL     1      -9.250  15.580  68.136  1.00  0.00    -0.189 C  
HETATM    7  N   UNL     1      -9.409  14.232  67.951  1.00  0.00    -0.192 N  
HETATM    8  C   UNL     1      -7.899  16.246  67.942  1.00  0.00    -0.145 C  
HETATM    9  C   UNL     1      -8.648  13.126  67.802  1.00  0.00    -0.188 C  
HETATM   10  O   UNL     1      -6.893  15.478  67.478  1.00  0.00    -0.166 OA 
HETATM   11  OXT UNL     1      -7.688  17.437  68.113  1.00  0.00    -0.205 OA 
HETATM   12  O   UNL     1      -7.450  13.025  67.697  1.00  0.00    -0.128 OA 
HETATM   13  CA  UNL     1      -9.914  12.209  67.943  1.00  0.00    -0.200 C  
ENDROOT
BRANCH  13  14
HETATM   14  N   UNL     1     -10.046  11.518  69.242  1.00  0.00    -0.423 N  
HETATM   15  H   UNL     1      -9.725  12.009  70.076  1.00  0.00     0.000 HD 
HETATM   16  C   UNL     1     -10.572  10.256  69.404  1.00  0.00    -0.237 C  
HETATM   17  O   UNL     1     -11.027   9.597  68.475  1.00  0.00    -0.193 OA 
BRANCH  16  18
HETATM   18  CA  UNL     1     -10.528   9.768  70.874  1.00  0.00    -0.228 C  
HETATM   19  H2  UNL     1      -8.482   9.300  70.770  1.00  0.00     0.000 HD 
HETATM   20  N   UNL     1      -9.358   8.863  71.059  1.00  0.00    -0.226 NA 
HETATM   21  H1  UNL     1      -9.329   8.542  72.026  1.00  0.00     0.000 HD 
BRANCH  18  22
HETATM   22  C   UNL     1     -11.829   9.101  71.280  1.00  0.00    -0.396 A  
HETATM   23  C   UNL     1     -11.930   7.701  71.231  1.00  0.00    -0.330 A  
HETATM   24  C   UNL     1     -13.117   7.057  71.588  1.00  0.00    -0.384 A  
HETATM   25  C   UNL     1     -14.217   7.801  72.007  1.00  0.00    -0.424 A  
HETATM   26  C   UNL     1     -14.128   9.188  72.084  1.00  0.00    -0.416 A  
HETATM   27  C   UNL     1     -12.940   9.834  71.731  1.00  0.00    -0.536 A  
ENDBRANCH  18  22
ENDBRANCH  16  18
ENDBRANCH  13  14
TORSDOF 3
ENDMDL
MODEL       57
REMARK 921   NORMALIZED FREE ENERGY PREDICTED BY IDOCK:   -5.54 KCAL/MOL
REMARK 922        TOTAL FREE ENERGY PREDICTED BY IDOCK:   -7.22 KCAL/MOL
REMARK 923 INTER-LIGAND FREE ENERGY PREDICTED BY IDOCK:   -6.92 KCAL/MOL
REMARK 924 INTRA-LIGAND FREE ENERGY PREDICTED BY IDOCK:   -0.30 KCAL/MOL
REMARK 927      BINDING AFFINITY PREDICTED BY RF-SCORE:    0.00 PKD
ROOT
HETATM    1  C   UNL     1      -8.994  17.126  66.502  1.00  0.00    -0.272 C  
HETATM    2  S   UNL     1     -10.304  17.883  67.496  1.00  0.00    -0.386 SA 
HETATM    3  C   UNL     1      -9.237  19.216  68.093  1.00  0.00    -0.327 C  
HETATM    4  C   UNL     1      -7.880  18.756  68.583  1.00  0.00    -0.328 C  
HETATM    5 CL   UNL     1      -7.227  19.950  69.679  1.00  0.00    -0.203 Cl 
HETATM    6  CA  UNL     1      -7.268  17.584  68.256  1.00  0.00    -0.217 C  
HETATM    7  N   UNL     1      -7.897  16.743  67.376  1.00  0.00    -0.165 N  
HETATM    8  C   UNL     1      -5.936  17.212  68.884  1.00  0.00    -0.163 C  
HETATM    9  C   UNL     1      -7.814  15.464  66.951  1.00  0.00    -0.161 C  
HETATM   10  O   UNL     1      -5.351  16.075  68.460  1.00  0.00    -0.093 OA 
HETATM   11  OXT UNL     1      -5.338  17.907  69.690  1.00  0.00    -0.180 OA 
HETATM   12  O   UNL     1      -6.994  14.618  67.213  1.00  0.00    -0.221 OA 
HETATM   13  CA  UNL     1      -9.175  15.607  66.183  1.00  0.00    -0.343 C  
ENDROOT
BRANCH  13  14
HETATM   14  N   UNL     1     -10.331  14.951  66.827  1.00  0.00    -0.265 N  
HETATM   15  H   UNL     1     -10.840  15.476  67.537  1.00  0.00     0.000 HD 
HETATM   16  C   UNL     1     -10.769  13.679  66.533  1.00  0.00    -0.284 C  
HETATM   17  O   UNL     1     -10.257  12.980  65.666  1.00  0.00    -0.282 OA 
BRANCH  16  18
HETATM   18  CA  UNL     1     -11.967  13.237  67.410  1.00  0.00    -0.335 C  
HETATM   19  H2  UNL     1     -12.612  15.214  67.715  1.00  0.00     0.000 HD 
HETATM   20  N   UNL     1     -12.402  14.379  68.264  1.00  0.00    -0.597 NA 
HETATM   21  H1  UNL     1     -13.191  14.088  68.841  1.00  0.00     0.000 HD 
BRANCH  18  22
HETATM   22  C   UNL     1     -11.631  12.009  68.236  1.00  0.00    -0.394 A  
HETATM   23  C   UNL     1     -11.928  12.001  69.610  1.00  0.00    -0.360 A  
HETATM   24  C   UNL     1     -11.622  10.891  70.400  1.00  0.00    -0.418 A  
HETATM   25  C   UNL     1     -11.024   9.771  69.830  1.00  0.00    -0.299 A  
HETATM   26  C   UNL     1     -10.743   9.752  68.467  1.00  0.00    -0.252 A  
HETATM   27  C   UNL     1     -11.052  10.860  67.673  1.00  0.00    -0.376 A  
ENDBRANCH  18  22
ENDBRANCH  16  18
ENDBRANCH  13  14
TORSDOF 3
ENDMDL
MODEL       58
REMARK 921   NORMALIZED FREE ENERGY PREDICTED BY IDOCK:   -5.51 KCAL/MOL
REMARK 922        TOTAL FREE ENERGY PREDICTED BY IDOCK:   -7.18 KCAL/MOL
REMARK 923 INTER-LIGAND FREE ENERGY PREDICTED BY IDOCK:   -6.62 KCAL/MOL
REMARK 924 INTRA-LIGAND FREE ENERGY PREDICTED BY IDOCK:   -0.57 KCAL/MOL
REMARK 927      BINDING AFFINITY PREDICTED BY RF-SCORE:    0.00 PKD
ROOT
HETATM    1  C   UNL     1     -12.642  11.751  69.773  1.00  0.00     0.157 C  
HETATM    2  S   UNL     1     -12.675  10.979  71.410  1.00  0.00    -0.413 SA 
HETATM    3  C   UNL     1     -13.488  12.397  72.187  1.00  0.00    -0.378 C  
HETATM    4  C   UNL     1     -12.880  13.736  71.830  1.00  0.00    -0.326 C  
HETATM    5 CL   UNL     1     -13.286  14.902  73.067  1.00  0.00    -0.557 Cl 
HETATM    6  CA  UNL     1     -12.108  13.998  70.739  1.00  0.00    -0.345 C  
HETATM    7  N   UNL     1     -11.876  12.985  69.845  1.00  0.00    -0.325 N  
HETATM    8  C   UNL     1     -11.496  15.374  70.543  1.00  0.00    -0.327 C  
HETATM    9  C   UNL     1     -11.052  12.704  68.814  1.00  0.00    -0.263 C  
HETATM   10  O   UNL     1     -10.806  15.586  69.405  1.00  0.00    -0.228 OA 
HETATM   11  OXT UNL     1     -11.647  16.310  71.313  1.00  0.00    -0.437 OA 
HETATM   12  O   UNL     1     -10.231  13.404  68.272  1.00  0.00    -0.238 OA 
HETATM   13  CA  UNL     1     -11.551  11.216  68.791  1.00  0.00    -0.322 C  
ENDROOT
BRANCH  13  14
HETATM   14  N   UNL     1     -10.609  10.229  69.358  1.00  0.00    -0.221 N  
HETATM   15  H   UNL     1     -10.386  10.301  70.350  1.00  0.00     0.000 HD 
HETATM   16  C   UNL     1     -10.011   9.219  68.638  1.00  0.00    -0.178 C  
HETATM   17  O   UNL     1     -10.243   9.016  67.451  1.00  0.00    -0.209 OA 
BRANCH  16  18
HETATM   18  CA  UNL     1      -9.025   8.377  69.486  1.00  0.00    -0.149 C  
HETATM   19  H2  UNL     1      -8.123   7.527  67.789  1.00  0.00     0.000 HD 
HETATM   20  N   UNL     1      -8.533   7.227  68.674  1.00  0.00    -0.129 NA 
HETATM   21  H1  UNL     1      -7.884   6.672  69.232  1.00  0.00     0.000 HD 
BRANCH  18  22
HETATM   22  C   UNL     1      -9.657   7.921  70.788  1.00  0.00    -0.171 A  
HETATM   23  C   UNL     1     -10.828   7.144  70.749  1.00  0.00    -0.267 A  
HETATM   24  C   UNL     1     -11.441   6.717  71.929  1.00  0.00    -0.318 A  
HETATM   25  C   UNL     1     -10.890   7.051  73.163  1.00  0.00    -0.350 A  
HETATM   26  C   UNL     1      -9.718   7.801  73.220  1.00  0.00    -0.357 A  
HETATM   27  C   UNL     1      -9.101   8.226  72.041  1.00  0.00    -0.267 A  
ENDBRANCH  18  22
ENDBRANCH  16  18
ENDBRANCH  13  14
TORSDOF 3
ENDMDL
MODEL       59
REMARK 921   NORMALIZED FREE ENERGY PREDICTED BY IDOCK:   -5.43 KCAL/MOL
REMARK 922        TOTAL FREE ENERGY PREDICTED BY IDOCK:   -7.08 KCAL/MOL
REMARK 923 INTER-LIGAND FREE ENERGY PREDICTED BY IDOCK:   -6.71 KCAL/MOL
REMARK 924 INTRA-LIGAND FREE ENERGY PREDICTED BY IDOCK:   -0.38 KCAL/MOL
REMARK 927      BINDING AFFINITY PREDICTED BY RF-SCORE:    0.00 PKD
ROOT
HETATM    1  C   UNL     1     -11.183  10.482  69.175  1.00  0.00    -0.256 C  
HETATM    2  S   UNL     1      -9.395  10.715  69.012  1.00  0.00    -0.151 SA 
HETATM    3  C   UNL     1      -9.024   8.974  69.338  1.00  0.00    -0.145 C  
HETATM    4  C   UNL     1      -9.756   8.393  70.529  1.00  0.00    -0.173 C  
HETATM    5 CL   UNL     1      -8.884   6.998  71.117  1.00  0.00    -0.141 Cl 
HETATM    6  CA  UNL     1     -10.896   8.888  71.084  1.00  0.00    -0.281 C  
HETATM    7  N   UNL     1     -11.477   9.989  70.511  1.00  0.00    -0.306 N  
HETATM    8  C   UNL     1     -11.484   8.249  72.330  1.00  0.00    -0.394 C  
HETATM    9  C   UNL     1     -12.410  10.920  70.806  1.00  0.00    -0.390 C  
HETATM   10  O   UNL     1     -12.653   8.742  72.784  1.00  0.00    -0.316 OA 
HETATM   11  OXT UNL     1     -11.002   7.282  72.900  1.00  0.00    -0.290 OA 
HETATM   12  O   UNL     1     -13.147  10.996  71.759  1.00  0.00    -0.469 OA 
HETATM   13  CA  UNL     1     -12.004  11.759  69.543  1.00  0.00    -0.300 C  
ENDROOT
BRANCH  13  14
HETATM   14  N   UNL     1     -11.209  12.972  69.825  1.00  0.00    -0.492 N  
HETATM   15  H   UNL     1     -10.509  12.919  70.565  1.00  0.00     0.000 HD 
HETATM   16  C   UNL     1     -11.348  14.168  69.158  1.00  0.00    -0.279 C  
HETATM   17  O   UNL     1     -12.127  14.326  68.224  1.00  0.00    -0.322 OA 
BRANCH  16  18
HETATM   18  CA  UNL     1     -10.419  15.278  69.711  1.00  0.00    -0.275 C  
HETATM   19  H2  UNL     1     -12.024  16.363  70.526  1.00  0.00     0.000 HD 
HETATM   20  N   UNL     1     -11.212  16.522  69.928  1.00  0.00    -0.403 NA 
HETATM   21  H1  UNL     1     -10.601  17.253  70.292  1.00  0.00     0.000 HD 
BRANCH  18  22
HETATM   22  C   UNL     1      -9.230  15.518  68.799  1.00  0.00    -0.210 A  
HETATM   23  C   UNL     1      -9.449  15.979  67.490  1.00  0.00    -0.223 A  
HETATM   24  C   UNL     1      -8.377  16.199  66.622  1.00  0.00    -0.321 A  
HETATM   25  C   UNL     1      -7.072  15.970  67.050  1.00  0.00    -0.233 A  
HETATM   26  C   UNL     1      -6.835  15.534  68.351  1.00  0.00    -0.115 A  
HETATM   27  C   UNL     1      -7.906  15.317  69.223  1.00  0.00    -0.221 A  
ENDBRANCH  18  22
ENDBRANCH  16  18
ENDBRANCH  13  14
TORSDOF 3
ENDMDL
MODEL       60
REMARK 921   NORMALIZED FREE ENERGY PREDICTED BY IDOCK:   -5.41 KCAL/MOL
REMARK 922        TOTAL FREE ENERGY PREDICTED BY IDOCK:   -7.06 KCAL/MOL
REMARK 923 INTER-LIGAND FREE ENERGY PREDICTED BY IDOCK:   -6.95 KCAL/MOL
REMARK 924 INTRA-LIGAND FREE ENERGY PREDICTED BY IDOCK:   -0.11 KCAL/MOL
REMARK 927      BINDING AFFINITY PREDICTED BY RF-SCORE:    0.00 PKD
ROOT
HETATM    1  C   UNL     1      -7.742  16.536  66.780  1.00  0.00    -0.259 C  
HETATM    2  S   UNL     1      -9.108  17.578  66.210  1.00  0.00    -0.142 SA 
HETATM    3  C   UNL     1      -8.082  19.065  66.108  1.00  0.00    -0.244 C  
HETATM    4  C   UNL     1      -7.208  19.302  67.321  1.00  0.00    -0.208 C  
HETATM    5 CL   UNL     1      -6.783  20.996  67.403  1.00  0.00    -0.426 Cl 
HETATM    6  CA  UNL     1      -6.830  18.361  68.230  1.00  0.00    -0.238 C  
HETATM    7  N   UNL     1      -7.233  17.066  68.034  1.00  0.00    -0.164 N  
HETATM    8  C   UNL     1      -6.012  18.754  69.447  1.00  0.00    -0.251 C  
HETATM    9  C   UNL     1      -7.307  15.906  68.722  1.00  0.00    -0.159 C  
HETATM   10  O   UNL     1      -5.610  17.763  70.267  1.00  0.00    -0.242 OA 
HETATM   11  OXT UNL     1      -5.642  19.893  69.689  1.00  0.00    -0.223 OA 
HETATM   12  O   UNL     1      -6.907  15.641  69.829  1.00  0.00    -0.183 OA 
HETATM   13  CA  UNL     1      -8.152  15.253  67.571  1.00  0.00    -0.172 C  
ENDROOT
BRANCH  13  14
HETATM   14  N   UNL     1      -9.594  15.108  67.856  1.00  0.00    -0.202 N  
HETATM   15  H   UNL     1     -10.166  15.952  67.845  1.00  0.00     0.000 HD 
HETATM   16  C   UNL     1     -10.218  13.913  68.134  1.00  0.00    -0.249 C  
HETATM   17  O   UNL     1      -9.632  12.836  68.128  1.00  0.00    -0.214 OA 
BRANCH  16  18
HETATM   18  CA  UNL     1     -11.726  14.080  68.449  1.00  0.00    -0.354 C  
HETATM   19  H2  UNL     1     -11.737  16.096  67.857  1.00  0.00     0.000 HD 
HETATM   20  N   UNL     1     -12.031  15.525  68.650  1.00  0.00    -0.556 NA 
HETATM   21  H1  UNL     1     -13.024  15.635  68.858  1.00  0.00     0.000 HD 
BRANCH  18  22
HETATM   22  C   UNL     1     -12.142  13.242  69.644  1.00  0.00    -0.331 A  
HETATM   23  C   UNL     1     -12.829  13.852  70.707  1.00  0.00    -0.329 A  
HETATM   24  C   UNL     1     -13.217  13.112  71.826  1.00  0.00    -0.494 A  
HETATM   25  C   UNL     1     -12.933  11.750  71.895  1.00  0.00    -0.435 A  
HETATM   26  C   UNL     1     -12.274  11.124  70.841  1.00  0.00    -0.468 A  
HETATM   27  C   UNL     1     -11.888  11.862  69.719  1.00  0.00    -0.411 A  
ENDBRANCH  18  22
ENDBRANCH  16  18
ENDBRANCH  13  14
TORSDOF 3
ENDMDL
MODEL       61
REMARK 921   NORMALIZED FREE ENERGY PREDICTED BY IDOCK:   -5.39 KCAL/MOL
REMARK 922        TOTAL FREE ENERGY PREDICTED BY IDOCK:   -7.04 KCAL/MOL
REMARK 923 INTER-LIGAND FREE ENERGY PREDICTED BY IDOCK:   -6.69 KCAL/MOL
REMARK 924 INTRA-LIGAND FREE ENERGY PREDICTED BY IDOCK:   -0.35 KCAL/MOL
REMARK 927      BINDING AFFINITY PREDICTED BY RF-SCORE:    0.00 PKD
ROOT
HETATM    1  C   UNL     1     -10.202  10.831  68.420  1.00  0.00    -0.175 C  
HETATM    2  S   UNL     1      -8.408  10.647  68.584  1.00  0.00    -0.144 SA 
HETATM    3  C   UNL     1      -8.520   8.931  69.143  1.00  0.00    -0.132 C  
HETATM    4  C   UNL     1      -9.557   8.693  70.221  1.00  0.00    -0.170 C  
HETATM    5 CL   UNL     1      -9.151   7.239  71.101  1.00  0.00    -0.151 Cl 
HETATM    6  CA  UNL     1     -10.622   9.495  70.495  1.00  0.00    -0.297 C  
HETATM    7  N   UNL     1     -10.821  10.605  69.716  1.00  0.00    -0.269 N  
HETATM    8  C   UNL     1     -11.543   9.178  71.660  1.00  0.00    -0.379 C  
HETATM    9  C   UNL     1     -11.542  11.747  69.732  1.00  0.00    -0.299 C  
HETATM   10  O   UNL     1     -12.620   9.971  71.829  1.00  0.00    -0.384 OA 
HETATM   11  OXT UNL     1     -11.406   8.219  72.404  1.00  0.00    -0.347 OA 
HETATM   12  O   UNL     1     -12.387  12.112  70.513  1.00  0.00    -0.332 OA 
HETATM   13  CA  UNL     1     -10.744  12.294  68.496  1.00  0.00    -0.237 C  
ENDROOT
BRANCH  13  14
HETATM   14  N   UNL     1      -9.742  13.333  68.806  1.00  0.00    -0.417 N  
HETATM   15  H   UNL     1      -9.543  13.523  69.788  1.00  0.00     0.000 HD 
HETATM   16  C   UNL     1      -9.057  14.064  67.861  1.00  0.00    -0.188 C  
HETATM   17  O   UNL     1      -9.188  13.885  66.655  1.00  0.00    -0.264 OA 
BRANCH  16  18
HETATM   18  CA  UNL     1      -8.114  15.123  68.484  1.00  0.00    -0.145 C  
HETATM   19  H2  UNL     1      -7.430  13.798  69.966  1.00  0.00     0.000 HD 
HETATM   20  N   UNL     1      -7.808  14.743  69.893  1.00  0.00    -0.393 NA 
HETATM   21  H1  UNL     1      -7.188  15.441  70.304  1.00  0.00     0.000 HD 
BRANCH  18  22
HETATM   22  C   UNL     1      -8.701  16.519  68.389  1.00  0.00    -0.218 A  
HETATM   23  C   UNL     1      -7.857  17.632  68.538  1.00  0.00    -0.282 A  
HETATM   24  C   UNL     1      -8.368  18.930  68.466  1.00  0.00    -0.384 A  
HETATM   25  C   UNL     1      -9.725  19.135  68.236  1.00  0.00    -0.439 A  
HETATM   26  C   UNL     1     -10.572  18.044  68.063  1.00  0.00    -0.361 A  
HETATM   27  C   UNL     1     -10.063  16.745  68.131  1.00  0.00    -0.282 A  
ENDBRANCH  18  22
ENDBRANCH  16  18
ENDBRANCH  13  14
TORSDOF 3
ENDMDL
MODEL       62
REMARK 921   NORMALIZED FREE ENERGY PREDICTED BY IDOCK:   -5.38 KCAL/MOL
REMARK 922        TOTAL FREE ENERGY PREDICTED BY IDOCK:   -7.03 KCAL/MOL
REMARK 923 INTER-LIGAND FREE ENERGY PREDICTED BY IDOCK:   -6.57 KCAL/MOL
REMARK 924 INTRA-LIGAND FREE ENERGY PREDICTED BY IDOCK:   -0.46 KCAL/MOL
REMARK 927      BINDING AFFINITY PREDICTED BY RF-SCORE:    0.00 PKD
ROOT
HETATM    1  C   UNL     1      -9.192   8.725  70.966  1.00  0.00    -0.222 C  
HETATM    2  S   UNL     1     -10.792   9.129  71.712  1.00  0.00    -0.267 SA 
HETATM    3  C   UNL     1     -10.848   7.608  72.689  1.00  0.00    -0.340 C  
HETATM    4  C   UNL     1     -10.503   6.355  71.913  1.00  0.00    -0.209 C  
HETATM    5 CL   UNL     1     -11.187   4.966  72.724  1.00  0.00    -0.284 Cl 
HETATM    6  CA  UNL     1      -9.799   6.306  70.748  1.00  0.00    -0.185 C  
HETATM    7  N   UNL     1      -9.315   7.478  70.228  1.00  0.00    -0.161 N  
HETATM    8  C   UNL     1      -9.590   4.983  70.032  1.00  0.00    -0.189 C  
HETATM    9  C   UNL     1      -8.800   7.944  69.070  1.00  0.00    -0.145 C  
HETATM   10  O   UNL     1      -8.822   4.995  68.925  1.00  0.00    -0.092 OA 
HETATM   11  OXT UNL     1     -10.015   3.910  70.432  1.00  0.00    -0.162 OA 
HETATM   12  O   UNL     1      -8.512   7.348  68.061  1.00  0.00    -0.122 OA 
HETATM   13  CA  UNL     1      -8.885   9.419  69.600  1.00  0.00    -0.172 C  
ENDROOT
BRANCH  13  14
HETATM   14  N   UNL     1      -9.983  10.227  69.031  1.00  0.00    -0.202 N  
HETATM   15  H   UNL     1     -10.937   9.895  69.167  1.00  0.00     0.000 HD 
HETATM   16  C   UNL     1      -9.806  11.399  68.330  1.00  0.00    -0.205 C  
HETATM   17  O   UNL     1      -8.706  11.910  68.149  1.00  0.00    -0.161 OA 
BRANCH  16  18
HETATM   18  CA  UNL     1     -11.137  11.994  67.805  1.00  0.00    -0.249 C  
HETATM   19  H2  UNL     1     -12.261  11.123  69.353  1.00  0.00     0.000 HD 
HETATM   20  N   UNL     1     -12.278  11.194  68.335  1.00  0.00    -0.726 NA 
HETATM   21  H1  UNL     1     -13.154  11.585  67.988  1.00  0.00     0.000 HD 
BRANCH  18  22
HETATM   22  C   UNL     1     -11.154  12.071  66.290  1.00  0.00    -0.363 A  
HETATM   23  C   UNL     1     -10.544  11.050  65.542  1.00  0.00    -0.267 A  
HETATM   24  C   UNL     1     -10.534  11.096  64.146  1.00  0.00    -0.442 A  
HETATM   25  C   UNL     1     -11.139  12.157  63.477  1.00  0.00    -0.525 A  
HETATM   26  C   UNL     1     -11.767  13.166  64.201  1.00  0.00    -0.472 A  
HETATM   27  C   UNL     1     -11.783  13.120  65.598  1.00  0.00    -0.402 A  
ENDBRANCH  18  22
ENDBRANCH  16  18
ENDBRANCH  13  14
TORSDOF 3
ENDMDL
MODEL       63
REMARK 921   NORMALIZED FREE ENERGY PREDICTED BY IDOCK:   -5.38 KCAL/MOL
REMARK 922        TOTAL FREE ENERGY PREDICTED BY IDOCK:   -7.03 KCAL/MOL
REMARK 923 INTER-LIGAND FREE ENERGY PREDICTED BY IDOCK:   -7.13 KCAL/MOL
REMARK 924 INTRA-LIGAND FREE ENERGY PREDICTED BY IDOCK:    0.11 KCAL/MOL
REMARK 927      BINDING AFFINITY PREDICTED BY RF-SCORE:    0.00 PKD
ROOT
HETATM    1  C   UNL     1     -10.512  11.989  66.568  1.00  0.00    -0.221 C  
HETATM    2  S   UNL     1     -11.998  13.013  66.714  1.00  0.00    -0.316 SA 
HETATM    3  C   UNL     1     -11.281  14.387  65.781  1.00  0.00    -0.326 C  
HETATM    4  C   UNL     1      -9.877  14.763  66.206  1.00  0.00    -0.296 C  
HETATM    5 CL   UNL     1      -9.553  16.414  65.730  1.00  0.00    -0.295 Cl 
HETATM    6  CA  UNL     1      -9.006  13.964  66.882  1.00  0.00    -0.222 C  
HETATM    7  N   UNL     1      -9.394  12.685  67.185  1.00  0.00    -0.203 N  
HETATM    8  C   UNL     1      -7.652  14.498  67.315  1.00  0.00    -0.121 C  
HETATM    9  C   UNL     1      -9.010  11.665  67.981  1.00  0.00    -0.176 C  
HETATM   10  O   UNL     1      -6.810  13.632  67.914  1.00  0.00    -0.117 OA 
HETATM   11  OXT UNL     1      -7.258  15.633  67.096  1.00  0.00    -0.210 OA 
HETATM   12  O   UNL     1      -8.034  11.562  68.683  1.00  0.00    -0.140 OA 
HETATM   13  CA  UNL     1     -10.336  10.888  67.662  1.00  0.00    -0.197 C  
ENDROOT
BRANCH  13  14
HETATM   14  N   UNL     1     -11.342  10.892  68.743  1.00  0.00    -0.269 N  
HETATM   15  H   UNL     1     -12.236  11.347  68.558  1.00  0.00     0.000 HD 
HETATM   16  C   UNL     1     -11.157  10.324  69.984  1.00  0.00    -0.311 C  
HETATM   17  O   UNL     1     -10.139   9.715  70.294  1.00  0.00    -0.243 OA 
BRANCH  16  18
HETATM   18  CA  UNL     1     -12.364  10.537  70.931  1.00  0.00    -0.390 C  
HETATM   19  H2  UNL     1     -13.367   8.837  70.210  1.00  0.00     0.000 HD 
HETATM   20  N   UNL     1     -13.554   9.825  70.382  1.00  0.00    -0.343 NA 
HETATM   21  H1  UNL     1     -14.349   9.966  71.005  1.00  0.00     0.000 HD 
BRANCH  18  22
HETATM   22  C   UNL     1     -12.642  12.012  71.158  1.00  0.00    -0.372 A  
HETATM   23  C   UNL     1     -13.475  12.400  72.221  1.00  0.00    -0.428 A  
HETATM   24  C   UNL     1     -13.759  13.748  72.451  1.00  0.00    -0.692 A  
HETATM   25  C   UNL     1     -13.209  14.728  71.629  1.00  0.00    -0.431 A  
HETATM   26  C   UNL     1     -12.364  14.363  70.585  1.00  0.00    -0.422 A  
HETATM   27  C   UNL     1     -12.075  13.015  70.355  1.00  0.00    -0.391 A  
ENDBRANCH  18  22
ENDBRANCH  16  18
ENDBRANCH  13  14
TORSDOF 3
ENDMDL
MODEL       64
REMARK 921   NORMALIZED FREE ENERGY PREDICTED BY IDOCK:   -5.37 KCAL/MOL
REMARK 922        TOTAL FREE ENERGY PREDICTED BY IDOCK:   -7.02 KCAL/MOL
REMARK 923 INTER-LIGAND FREE ENERGY PREDICTED BY IDOCK:   -6.63 KCAL/MOL
REMARK 924 INTRA-LIGAND FREE ENERGY PREDICTED BY IDOCK:   -0.39 KCAL/MOL
REMARK 927      BINDING AFFINITY PREDICTED BY RF-SCORE:    0.00 PKD
ROOT
HETATM    1  C   UNL     1      -8.386  16.941  66.625  1.00  0.00    -0.253 C  
HETATM    2  S   UNL     1      -9.784  17.933  67.208  1.00  0.00    -0.300 SA 
HETATM    3  C   UNL     1      -8.725  19.237  67.880  1.00  0.00    -0.313 C  
HETATM    4  C   UNL     1      -7.565  18.731  68.711  1.00  0.00    -0.311 C  
HETATM    5 CL   UNL     1      -7.029  20.000  69.787  1.00  0.00    -0.240 Cl 
HETATM    6  CA  UNL     1      -7.034  17.478  68.662  1.00  0.00    -0.232 C  
HETATM    7  N   UNL     1      -7.551  16.585  67.761  1.00  0.00    -0.145 N  
HETATM    8  C   UNL     1      -5.917  17.080  69.611  1.00  0.00    -0.227 C  
HETATM    9  C   UNL     1      -7.525  15.258  67.510  1.00  0.00    -0.190 C  
HETATM   10  O   UNL     1      -5.387  15.850  69.458  1.00  0.00    -0.107 OA 
HETATM   11  OXT UNL     1      -5.429  17.822  70.449  1.00  0.00    -0.243 OA 
HETATM   12  O   UNL     1      -6.881  14.387  68.043  1.00  0.00    -0.110 OA 
HETATM   13  CA  UNL     1      -8.666  15.414  66.444  1.00  0.00    -0.272 C  
ENDROOT
BRANCH  13  14
HETATM   14  N   UNL     1      -9.999  14.951  66.879  1.00  0.00    -0.239 N  
HETATM   15  H   UNL     1     -10.731  15.652  66.992  1.00  0.00     0.000 HD 
HETATM   16  C   UNL     1     -10.321  13.639  67.142  1.00  0.00    -0.250 C  
HETATM   17  O   UNL     1      -9.530  12.714  66.995  1.00  0.00    -0.206 OA 
BRANCH  16  18
HETATM   18  CA  UNL     1     -11.780  13.464  67.637  1.00  0.00    -0.359 C  
HETATM   19  H2  UNL     1     -12.578  13.718  65.710  1.00  0.00     0.000 HD 
HETATM   20  N   UNL     1     -12.712  14.084  66.653  1.00  0.00    -0.435 NA 
HETATM   21  H1  UNL     1     -13.672  13.969  66.979  1.00  0.00     0.000 HD 
BRANCH  18  22
HETATM   22  C   UNL     1     -11.968  14.032  69.031  1.00  0.00    -0.392 A  
HETATM   23  C   UNL     1     -12.123  13.155  70.117  1.00  0.00    -0.392 A  
HETATM   24  C   UNL     1     -12.309  13.645  71.412  1.00  0.00    -0.301 A  
HETATM   25  C   UNL     1     -12.333  15.018  71.641  1.00  0.00    -0.408 A  
HETATM   26  C   UNL     1     -12.158  15.903  70.581  1.00  0.00    -0.367 A  
HETATM   27  C   UNL     1     -11.968  15.414  69.285  1.00  0.00    -0.335 A  
ENDBRANCH  18  22
ENDBRANCH  16  18
ENDBRANCH  13  14
TORSDOF 3
ENDMDL
MODEL       65
REMARK 921   NORMALIZED FREE ENERGY PREDICTED BY IDOCK:   -5.37 KCAL/MOL
REMARK 922        TOTAL FREE ENERGY PREDICTED BY IDOCK:   -7.01 KCAL/MOL
REMARK 923 INTER-LIGAND FREE ENERGY PREDICTED BY IDOCK:   -6.62 KCAL/MOL
REMARK 924 INTRA-LIGAND FREE ENERGY PREDICTED BY IDOCK:   -0.39 KCAL/MOL
REMARK 927      BINDING AFFINITY PREDICTED BY RF-SCORE:    0.00 PKD
ROOT
HETATM    1  C   UNL     1     -11.630   6.792  69.966  1.00  0.00    -0.310 C  
HETATM    2  S   UNL     1     -10.384   6.326  68.738  1.00  0.00    -0.231 SA 
HETATM    3  C   UNL     1     -10.013   4.750  69.545  1.00  0.00    -0.216 C  
HETATM    4  C   UNL     1      -9.815   4.849  71.043  1.00  0.00    -0.195 C  
HETATM    5 CL   UNL     1      -8.872   3.484  71.591  1.00  0.00    -0.129 Cl 
HETATM    6  CA  UNL     1     -10.266   5.854  71.844  1.00  0.00    -0.203 C  
HETATM    7  N   UNL     1     -11.002   6.861  71.275  1.00  0.00    -0.238 N  
HETATM    8  C   UNL     1      -9.928   5.867  73.324  1.00  0.00    -0.181 C  
HETATM    9  C   UNL     1     -11.440   8.101  71.581  1.00  0.00    -0.274 C  
HETATM   10  O   UNL     1     -10.468   6.850  74.072  1.00  0.00    -0.374 OA 
HETATM   11  OXT UNL     1      -9.259   5.012  73.884  1.00  0.00    -0.118 OA 
HETATM   12  O   UNL     1     -11.356   8.713  72.618  1.00  0.00    -0.286 OA 
HETATM   13  CA  UNL     1     -11.911   8.323  70.100  1.00  0.00     0.322 C  
ENDROOT
BRANCH  13  14
HETATM   14  N   UNL     1     -11.046   9.207  69.292  1.00  0.00    -0.440 N  
HETATM   15  H   UNL     1     -10.125   8.857  69.029  1.00  0.00     0.000 HD 
HETATM   16  C   UNL     1     -11.397  10.469  68.871  1.00  0.00    -0.251 C  
HETATM   17  O   UNL     1     -12.495  10.967  69.094  1.00  0.00    -0.432 OA 
BRANCH  16  18
HETATM   18  CA  UNL     1     -10.264  11.181  68.090  1.00  0.00    -0.181 C  
HETATM   19  H2  UNL     1      -9.640  12.271  69.776  1.00  0.00     0.000 HD 
HETATM   20  N   UNL     1      -9.889  12.438  68.800  1.00  0.00    -0.419 NA 
HETATM   21  H1  UNL     1      -9.144  12.907  68.286  1.00  0.00     0.000 HD 
BRANCH  18  22
HETATM   22  C   UNL     1     -10.658  11.442  66.648  1.00  0.00    -0.302 A  
HETATM   23  C   UNL     1     -10.104  10.651  65.628  1.00  0.00    -0.335 A  
HETATM   24  C   UNL     1     -10.438  10.872  64.290  1.00  0.00    -0.405 A  
HETATM   25  C   UNL     1     -11.337  11.880  63.952  1.00  0.00    -0.509 A  
HETATM   26  C   UNL     1     -11.913  12.660  64.951  1.00  0.00    -0.459 A  
HETATM   27  C   UNL     1     -11.583  12.438  66.291  1.00  0.00    -0.449 A  
ENDBRANCH  18  22
ENDBRANCH  16  18
ENDBRANCH  13  14
TORSDOF 3
ENDMDL
MODEL       66
REMARK 921   NORMALIZED FREE ENERGY PREDICTED BY IDOCK:   -5.35 KCAL/MOL
REMARK 922        TOTAL FREE ENERGY PREDICTED BY IDOCK:   -6.99 KCAL/MOL
REMARK 923 INTER-LIGAND FREE ENERGY PREDICTED BY IDOCK:   -6.45 KCAL/MOL
REMARK 924 INTRA-LIGAND FREE ENERGY PREDICTED BY IDOCK:   -0.54 KCAL/MOL
REMARK 927      BINDING AFFINITY PREDICTED BY RF-SCORE:    0.00 PKD
ROOT
HETATM    1  C   UNL     1     -11.413  12.290  65.661  1.00  0.00    -0.368 C  
HETATM    2  S   UNL     1     -10.295  13.402  64.770  1.00  0.00    -0.347 SA 
HETATM    3  C   UNL     1      -9.918  12.181  63.490  1.00  0.00    -0.314 C  
HETATM    4  C   UNL     1      -9.589  10.802  64.021  1.00  0.00    -0.291 C  
HETATM    5 CL   UNL     1      -8.656   9.931  62.827  1.00  0.00    -0.168 Cl 
HETATM    6  CA  UNL     1      -9.931  10.315  65.246  1.00  0.00    -0.317 C  
HETATM    7  N   UNL     1     -10.673  11.110  66.080  1.00  0.00    -0.252 N  
HETATM    8  C   UNL     1      -9.468   8.936  65.682  1.00  0.00    -0.159 C  
HETATM    9  C   UNL     1     -11.036  11.167  67.380  1.00  0.00    -0.290 C  
HETATM   10  O   UNL     1      -9.904   8.487  66.875  1.00  0.00    -0.195 OA 
HETATM   11  OXT UNL     1      -8.787   8.191  64.995  1.00  0.00    -0.043 OA 
HETATM   12  O   UNL     1     -10.840  10.374  68.268  1.00  0.00    -0.218 OA 
HETATM   13  CA  UNL     1     -11.622  12.609  67.176  1.00  0.00    -0.368 C  
ENDROOT
BRANCH  13  14
HETATM   14  N   UNL     1     -10.796  13.705  67.720  1.00  0.00    -0.250 N  
HETATM   15  H   UNL     1      -9.784  13.576  67.731  1.00  0.00     0.000 HD 
HETATM   16  C   UNL     1     -11.297  14.889  68.214  1.00  0.00    -0.310 C  
HETATM   17  O   UNL     1     -12.492  15.163  68.206  1.00  0.00     0.136 OA 
BRANCH  16  18
HETATM   18  CA  UNL     1     -10.195  15.825  68.771  1.00  0.00    -0.217 C  
HETATM   19  H2  UNL     1     -10.464  15.146  70.741  1.00  0.00     0.000 HD 
HETATM   20  N   UNL     1     -10.412  16.028  70.231  1.00  0.00    -0.198 NA 
HETATM   21  H1  UNL     1      -9.687  16.645  70.598  1.00  0.00     0.000 HD 
BRANCH  18  22
HETATM   22  C   UNL     1     -10.146  17.140  68.017  1.00  0.00    -0.311 A  
HETATM   23  C   UNL     1     -10.212  18.347  68.733  1.00  0.00    -0.333 A  
HETATM   24  C   UNL     1     -10.181  19.575  68.068  1.00  0.00    -0.552 A  
HETATM   25  C   UNL     1     -10.074  19.616  66.681  1.00  0.00    -0.555 A  
HETATM   26  C   UNL     1      -9.985  18.431  65.956  1.00  0.00    -0.228 A  
HETATM   27  C   UNL     1     -10.012  17.201  66.619  1.00  0.00    -0.298 A  
ENDBRANCH  18  22
ENDBRANCH  16  18
ENDBRANCH  13  14
TORSDOF 3
ENDMDL
MODEL       67
REMARK 921   NORMALIZED FREE ENERGY PREDICTED BY IDOCK:   -5.34 KCAL/MOL
REMARK 922        TOTAL FREE ENERGY PREDICTED BY IDOCK:   -6.97 KCAL/MOL
REMARK 923 INTER-LIGAND FREE ENERGY PREDICTED BY IDOCK:   -6.63 KCAL/MOL
REMARK 924 INTRA-LIGAND FREE ENERGY PREDICTED BY IDOCK:   -0.34 KCAL/MOL
REMARK 927      BINDING AFFINITY PREDICTED BY RF-SCORE:    0.00 PKD
ROOT
HETATM    1  C   UNL     1     -10.869  13.490  67.221  1.00  0.00    -0.276 C  
HETATM    2  S   UNL     1     -11.750  14.757  66.273  1.00  0.00    -0.191 SA 
HETATM    3  C   UNL     1     -12.638  13.547  65.264  1.00  0.00    -0.468 C  
HETATM    4  C   UNL     1     -11.767  12.442  64.706  1.00  0.00    -0.368 C  
HETATM    5 CL   UNL     1     -12.542  11.750  63.300  1.00  0.00    -0.578 Cl 
HETATM    6  CA  UNL     1     -10.554  12.058  65.192  1.00  0.00    -0.288 C  
HETATM    7  N   UNL     1     -10.070  12.687  66.309  1.00  0.00    -0.248 N  
HETATM    8  C   UNL     1      -9.748  10.982  64.485  1.00  0.00    -0.273 C  
HETATM    9  C   UNL     1      -8.908  12.816  66.984  1.00  0.00    -0.213 C  
HETATM   10  O   UNL     1      -8.591  10.599  65.061  1.00  0.00    -0.184 OA 
HETATM   11  OXT UNL     1     -10.114  10.402  63.474  1.00  0.00    -0.221 OA 
HETATM   12  O   UNL     1      -7.847  12.269  66.802  1.00  0.00    -0.084 OA 
HETATM   13  CA  UNL     1      -9.528  13.946  67.881  1.00  0.00    -0.212 C  
ENDROOT
BRANCH  13  14
HETATM   14  N   UNL     1      -9.087  15.317  67.555  1.00  0.00    -0.182 N  
HETATM   15  H   UNL     1      -8.477  15.441  66.748  1.00  0.00     0.000 HD 
HETATM   16  C   UNL     1      -9.445  16.441  68.267  1.00  0.00    -0.217 C  
HETATM   17  O   UNL     1     -10.209  16.410  69.225  1.00  0.00    -0.250 OA 
BRANCH  16  18
HETATM   18  CA  UNL     1      -8.783  17.733  67.726  1.00  0.00    -0.241 C  
HETATM   19  H2  UNL     1      -9.117  17.193  65.722  1.00  0.00     0.000 HD 
HETATM   20  N   UNL     1      -8.351  17.513  66.316  1.00  0.00    -0.424 NA 
HETATM   21  H1  UNL     1      -7.914  18.363  65.960  1.00  0.00     0.000 HD 
BRANCH  18  22
HETATM   22  C   UNL     1      -7.632  18.182  68.607  1.00  0.00    -0.306 A  
HETATM   23  C   UNL     1      -7.349  19.553  68.725  1.00  0.00    -0.393 A  
HETATM   24  C   UNL     1      -6.290  19.998  69.520  1.00  0.00    -0.379 A  
HETATM   25  C   UNL     1      -5.505  19.082  70.215  1.00  0.00    -0.246 A  
HETATM   26  C   UNL     1      -5.785  17.721  70.128  1.00  0.00    -0.230 A  
HETATM   27  C   UNL     1      -6.846  17.274  69.336  1.00  0.00    -0.159 A  
ENDBRANCH  18  22
ENDBRANCH  16  18
ENDBRANCH  13  14
TORSDOF 3
ENDMDL
MODEL       68
REMARK 921   NORMALIZED FREE ENERGY PREDICTED BY IDOCK:   -5.30 KCAL/MOL
REMARK 922        TOTAL FREE ENERGY PREDICTED BY IDOCK:   -6.94 KCAL/MOL
REMARK 923 INTER-LIGAND FREE ENERGY PREDICTED BY IDOCK:   -6.51 KCAL/MOL
REMARK 924 INTRA-LIGAND FREE ENERGY PREDICTED BY IDOCK:   -0.43 KCAL/MOL
REMARK 927      BINDING AFFINITY PREDICTED BY RF-SCORE:    0.00 PKD
ROOT
HETATM    1  C   UNL     1      -7.910   9.887  68.379  1.00  0.00    -0.085 C  
HETATM    2  S   UNL     1      -7.391   9.770  70.110  1.00  0.00    -0.165 SA 
HETATM    3  C   UNL     1      -6.159   8.490  69.772  1.00  0.00    -0.035 C  
HETATM    4  C   UNL     1      -6.658   7.359  68.899  1.00  0.00    -0.048 C  
HETATM    5 CL   UNL     1      -5.667   5.944  69.164  1.00  0.00    -0.011 Cl 
HETATM    6  CA  UNL     1      -7.729   7.411  68.060  1.00  0.00    -0.116 C  
HETATM    7  N   UNL     1      -8.413   8.593  67.947  1.00  0.00    -0.129 N  
HETATM    8  C   UNL     1      -8.169   6.173  67.298  1.00  0.00    -0.106 C  
HETATM    9  C   UNL     1      -9.589   9.049  67.464  1.00  0.00    -0.144 C  
HETATM   10  O   UNL     1      -9.190   6.313  66.429  1.00  0.00    -0.153 OA 
HETATM   11  OXT UNL     1      -7.616   5.087  67.373  1.00  0.00    -0.088 OA 
HETATM   12  O   UNL     1     -10.442   8.467  66.840  1.00  0.00    -0.317 OA 
HETATM   13  CA  UNL     1      -9.349  10.446  68.138  1.00  0.00    -0.145 C  
ENDROOT
BRANCH  13  14
HETATM   14  N   UNL     1     -10.149  10.702  69.353  1.00  0.00    -0.339 N  
HETATM   15  H   UNL     1      -9.681  10.620  70.255  1.00  0.00     0.000 HD 
HETATM   16  C   UNL     1     -11.483  11.043  69.351  1.00  0.00    -0.294 C  
HETATM   17  O   UNL     1     -12.129  11.211  68.322  1.00  0.00    -0.620 OA 
BRANCH  16  18
HETATM   18  CA  UNL     1     -12.069  11.192  70.778  1.00  0.00    -0.357 C  
HETATM   19  H2  UNL     1     -12.917   9.269  70.746  1.00  0.00     0.000 HD 
HETATM   20  N   UNL     1     -13.194  10.229  70.952  1.00  0.00    -0.448 NA 
HETATM   21  H1  UNL     1     -13.581  10.327  71.890  1.00  0.00     0.000 HD 
BRANCH  18  22
HETATM   22  C   UNL     1     -12.497  12.620  71.060  1.00  0.00    -0.354 A  
HETATM   23  C   UNL     1     -13.494  12.864  72.020  1.00  0.00    -0.568 A  
HETATM   24  C   UNL     1     -13.918  14.166  72.295  1.00  0.00    -0.646 A  
HETATM   25  C   UNL     1     -13.348  15.243  71.623  1.00  0.00    -0.553 A  
HETATM   26  C   UNL     1     -12.343  15.023  70.684  1.00  0.00    -0.404 A  
HETATM   27  C   UNL     1     -11.915  13.721  70.410  1.00  0.00    -0.385 A  
ENDBRANCH  18  22
ENDBRANCH  16  18
ENDBRANCH  13  14
TORSDOF 3
ENDMDL
MODEL       69
REMARK 921   NORMALIZED FREE ENERGY PREDICTED BY IDOCK:   -5.30 KCAL/MOL
REMARK 922        TOTAL FREE ENERGY PREDICTED BY IDOCK:   -6.93 KCAL/MOL
REMARK 923 INTER-LIGAND FREE ENERGY PREDICTED BY IDOCK:   -6.46 KCAL/MOL
REMARK 924 INTRA-LIGAND FREE ENERGY PREDICTED BY IDOCK:   -0.47 KCAL/MOL
REMARK 927      BINDING AFFINITY PREDICTED BY RF-SCORE:    0.00 PKD
ROOT
HETATM    1  C   UNL     1     -10.566   8.041  69.764  1.00  0.00    -0.238 C  
HETATM    2  S   UNL     1     -10.351   8.201  67.973  1.00  0.00    -0.191 SA 
HETATM    3  C   UNL     1      -9.731   6.512  67.782  1.00  0.00    -0.122 C  
HETATM    4  C   UNL     1      -8.671   6.120  68.789  1.00  0.00    -0.119 C  
HETATM    5 CL   UNL     1      -7.729   4.795  68.148  1.00  0.00    -0.081 Cl 
HETATM    6  CA  UNL     1      -8.454   6.717  69.994  1.00  0.00    -0.139 C  
HETATM    7  N   UNL     1      -9.278   7.744  70.371  1.00  0.00    -0.155 N  
HETATM    8  C   UNL     1      -7.301   6.270  70.876  1.00  0.00    -0.080 C  
HETATM    9  C   UNL     1      -9.322   8.731  71.292  1.00  0.00    -0.250 C  
HETATM   10  O   UNL     1      -7.189   6.852  72.086  1.00  0.00    -0.080 OA 
HETATM   11  OXT UNL     1      -6.519   5.377  70.586  1.00  0.00    -0.032 OA 
HETATM   12  O   UNL     1      -8.577   8.957  72.214  1.00  0.00    -0.397 OA 
HETATM   13  CA  UNL     1     -10.557   9.379  70.571  1.00  0.00    -0.271 C  
ENDROOT
BRANCH  13  14
HETATM   14  N   UNL     1     -10.261  10.596  69.790  1.00  0.00    -0.436 N  
HETATM   15  H   UNL     1      -9.283  10.868  69.687  1.00  0.00     0.000 HD 
HETATM   16  C   UNL     1     -11.213  11.390  69.191  1.00  0.00    -0.272 C  
HETATM   17  O   UNL     1     -12.411  11.130  69.214  1.00  0.00    -0.377 OA 
BRANCH  16  18
HETATM   18  CA  UNL     1     -10.608  12.632  68.489  1.00  0.00    -0.243 C  
HETATM   19  H2  UNL     1     -10.421  13.693  70.294  1.00  0.00     0.000 HD 
HETATM   20  N   UNL     1     -10.799  13.830  69.356  1.00  0.00    -0.436 NA 
HETATM   21  H1  UNL     1     -10.402  14.648  68.894  1.00  0.00     0.000 HD 
BRANCH  18  22
HETATM   22  C   UNL     1     -11.198  12.834  67.106  1.00  0.00    -0.336 A  
HETATM   23  C   UNL     1     -10.869  11.935  66.078  1.00  0.00    -0.342 A  
HETATM   24  C   UNL     1     -11.387  12.099  64.792  1.00  0.00    -0.378 A  
HETATM   25  C   UNL     1     -12.247  13.158  64.514  1.00  0.00    -0.466 A  
HETATM   26  C   UNL     1     -12.602  14.046  65.525  1.00  0.00    -0.543 A  
HETATM   27  C   UNL     1     -12.088  13.882  66.814  1.00  0.00    -0.476 A  
ENDBRANCH  18  22
ENDBRANCH  16  18
ENDBRANCH  13  14
TORSDOF 3
ENDMDL
MODEL       70
REMARK 921   NORMALIZED FREE ENERGY PREDICTED BY IDOCK:   -5.29 KCAL/MOL
REMARK 922        TOTAL FREE ENERGY PREDICTED BY IDOCK:   -6.92 KCAL/MOL
REMARK 923 INTER-LIGAND FREE ENERGY PREDICTED BY IDOCK:   -6.35 KCAL/MOL
REMARK 924 INTRA-LIGAND FREE ENERGY PREDICTED BY IDOCK:   -0.57 KCAL/MOL
REMARK 927      BINDING AFFINITY PREDICTED BY RF-SCORE:    0.00 PKD
ROOT
HETATM    1  C   UNL     1     -11.885  11.861  68.207  1.00  0.00    -0.277 C  
HETATM    2  S   UNL     1     -11.845  11.729  70.012  1.00  0.00    -0.310 SA 
HETATM    3  C   UNL     1     -12.180  13.489  70.262  1.00  0.00    -0.347 C  
HETATM    4  C   UNL     1     -11.341  14.411  69.403  1.00  0.00    -0.281 C  
HETATM    5 CL   UNL     1     -11.274  15.991  70.147  1.00  0.00    -0.350 Cl 
HETATM    6  CA  UNL     1     -10.706  14.068  68.248  1.00  0.00    -0.254 C  
HETATM    7  N   UNL     1     -10.853  12.790  67.777  1.00  0.00    -0.220 N  
HETATM    8  C   UNL     1      -9.829  15.076  67.525  1.00  0.00    -0.217 C  
HETATM    9  C   UNL     1     -10.282  11.964  66.874  1.00  0.00    -0.208 C  
HETATM   10  O   UNL     1      -9.290  14.695  66.350  1.00  0.00    -0.279 OA 
HETATM   11  OXT UNL     1      -9.640  16.221  67.906  1.00  0.00    -0.224 OA 
HETATM   12  O   UNL     1      -9.415  12.189  66.065  1.00  0.00    -0.239 OA 
HETATM   13  CA  UNL     1     -11.109  10.750  67.428  1.00  0.00    -0.296 C  
ENDROOT
BRANCH  13  14
HETATM   14  N   UNL     1     -10.345   9.799  68.260  1.00  0.00    -0.188 N  
HETATM   15  H   UNL     1      -9.875  10.164  69.089  1.00  0.00     0.000 HD 
HETATM   16  C   UNL     1     -10.225   8.453  67.995  1.00  0.00    -0.212 C  
HETATM   17  O   UNL     1     -10.785   7.905  67.052  1.00  0.00    -0.339 OA 
BRANCH  16  18
HETATM   18  CA  UNL     1      -9.314   7.718  69.010  1.00  0.00    -0.150 C  
HETATM   19  H2  UNL     1      -8.458   6.502  67.525  1.00  0.00     0.000 HD 
HETATM   20  N   UNL     1      -8.899   6.404  68.440  1.00  0.00    -0.120 NA 
HETATM   21  H1  UNL     1      -8.300   5.920  69.109  1.00  0.00     0.000 HD 
BRANCH  18  22
HETATM   22  C   UNL     1      -9.993   7.561  70.358  1.00  0.00    -0.184 A  
HETATM   23  C   UNL     1      -9.482   8.248  71.471  1.00  0.00    -0.244 A  
HETATM   24  C   UNL     1     -10.078   8.117  72.728  1.00  0.00    -0.367 A  
HETATM   25  C   UNL     1     -11.197   7.305  72.889  1.00  0.00    -0.336 A  
HETATM   26  C   UNL     1     -11.731   6.634  71.793  1.00  0.00    -0.363 A  
HETATM   27  C   UNL     1     -11.139   6.767  70.534  1.00  0.00    -0.346 A  
ENDBRANCH  18  22
ENDBRANCH  16  18
ENDBRANCH  13  14
TORSDOF 3
ENDMDL
MODEL       71
REMARK 921   NORMALIZED FREE ENERGY PREDICTED BY IDOCK:   -5.28 KCAL/MOL
REMARK 922        TOTAL FREE ENERGY PREDICTED BY IDOCK:   -6.91 KCAL/MOL
REMARK 923 INTER-LIGAND FREE ENERGY PREDICTED BY IDOCK:   -6.43 KCAL/MOL
REMARK 924 INTRA-LIGAND FREE ENERGY PREDICTED BY IDOCK:   -0.48 KCAL/MOL
REMARK 927      BINDING AFFINITY PREDICTED BY RF-SCORE:    0.00 PKD
ROOT
HETATM    1  C   UNL     1      -9.372   8.625  71.444  1.00  0.00    -0.236 C  
HETATM    2  S   UNL     1     -10.994   8.798  72.230  1.00  0.00    -0.157 SA 
HETATM    3  C   UNL     1     -10.917   7.168  73.009  1.00  0.00    -0.317 C  
HETATM    4  C   UNL     1     -10.474   6.055  72.084  1.00  0.00    -0.206 C  
HETATM    5 CL   UNL     1     -11.034   4.524  72.713  1.00  0.00    -0.238 Cl 
HETATM    6  CA  UNL     1      -9.776   6.211  70.924  1.00  0.00    -0.177 C  
HETATM    7  N   UNL     1      -9.395   7.474  70.556  1.00  0.00    -0.161 N  
HETATM    8  C   UNL     1      -9.463   5.009  70.049  1.00  0.00    -0.166 C  
HETATM    9  C   UNL     1      -8.929   8.123  69.468  1.00  0.00    -0.151 C  
HETATM   10  O   UNL     1      -8.706   5.224  68.955  1.00  0.00    -0.091 OA 
HETATM   11  OXT UNL     1      -9.794   3.863  70.310  1.00  0.00    -0.198 OA 
HETATM   12  O   UNL     1      -8.599   7.683  68.393  1.00  0.00    -0.125 OA 
HETATM   13  CA  UNL     1      -9.133   9.508  70.177  1.00  0.00    -0.240 C  
ENDROOT
BRANCH  13  14
HETATM   14  N   UNL     1     -10.298  10.286  69.710  1.00  0.00    -0.292 N  
HETATM   15  H   UNL     1     -11.184  10.155  70.199  1.00  0.00     0.000 HD 
HETATM   16  C   UNL     1     -10.270  11.178  68.661  1.00  0.00    -0.205 C  
HETATM   17  O   UNL     1      -9.250  11.443  68.036  1.00  0.00    -0.159 OA 
BRANCH  16  18
HETATM   18  CA  UNL     1     -11.658  11.802  68.364  1.00  0.00    -0.318 C  
HETATM   19  H2  UNL     1     -11.650  11.134  66.371  1.00  0.00     0.000 HD 
HETATM   20  N   UNL     1     -11.806  11.997  66.893  1.00  0.00    -0.616 NA 
HETATM   21  H1  UNL     1     -12.718  12.409  66.697  1.00  0.00     0.000 HD 
BRANCH  18  22
HETATM   22  C   UNL     1     -11.864  13.095  69.130  1.00  0.00    -0.364 A  
HETATM   23  C   UNL     1     -12.210  13.041  70.491  1.00  0.00    -0.392 A  
HETATM   24  C   UNL     1     -12.417  14.213  71.223  1.00  0.00    -0.446 A  
HETATM   25  C   UNL     1     -12.273  15.454  70.609  1.00  0.00    -0.431 A  
HETATM   26  C   UNL     1     -11.908  15.527  69.267  1.00  0.00    -0.372 A  
HETATM   27  C   UNL     1     -11.697  14.356  68.534  1.00  0.00    -0.370 A  
ENDBRANCH  18  22
ENDBRANCH  16  18
ENDBRANCH  13  14
TORSDOF 3
ENDMDL
MODEL       72
REMARK 921   NORMALIZED FREE ENERGY PREDICTED BY IDOCK:   -5.23 KCAL/MOL
REMARK 922        TOTAL FREE ENERGY PREDICTED BY IDOCK:   -6.85 KCAL/MOL
REMARK 923 INTER-LIGAND FREE ENERGY PREDICTED BY IDOCK:   -6.30 KCAL/MOL
REMARK 924 INTRA-LIGAND FREE ENERGY PREDICTED BY IDOCK:   -0.55 KCAL/MOL
REMARK 927      BINDING AFFINITY PREDICTED BY RF-SCORE:    0.00 PKD
ROOT
HETATM    1  C   UNL     1     -10.095   9.761  69.203  1.00  0.00    -0.192 C  
HETATM    2  S   UNL     1      -8.536  10.655  68.985  1.00  0.00    -0.122 SA 
HETATM    3  C   UNL     1      -7.529   9.269  69.567  1.00  0.00    -0.079 C  
HETATM    4  C   UNL     1      -8.032   8.626  70.842  1.00  0.00    -0.122 C  
HETATM    5 CL   UNL     1      -6.713   7.789  71.626  1.00  0.00    -0.045 Cl 
HETATM    6  CA  UNL     1      -9.301   8.705  71.329  1.00  0.00    -0.224 C  
HETATM    7  N   UNL     1     -10.238   9.391  70.602  1.00  0.00    -0.267 N  
HETATM    8  C   UNL     1      -9.652   8.073  72.665  1.00  0.00    -0.259 C  
HETATM    9  C   UNL     1     -11.475   9.910  70.762  1.00  0.00    -0.354 C  
HETATM   10  O   UNL     1     -10.942   8.124  73.052  1.00  0.00    -0.330 OA 
HETATM   11  OXT UNL     1      -8.858   7.469  73.369  1.00  0.00    -0.153 OA 
HETATM   12  O   UNL     1     -12.228   9.826  71.701  1.00  0.00    -0.371 OA 
HETATM   13  CA  UNL     1     -11.368  10.649  69.381  1.00  0.00    -0.284 C  
ENDROOT
BRANCH  13  14
HETATM   14  N   UNL     1     -11.127  12.104  69.466  1.00  0.00    -0.458 N  
HETATM   15  H   UNL     1     -10.670  12.462  70.304  1.00  0.00     0.000 HD 
HETATM   16  C   UNL     1     -11.477  13.010  68.489  1.00  0.00    -0.304 C  
HETATM   17  O   UNL     1     -11.989  12.681  67.425  1.00  0.00    -0.398 OA 
BRANCH  16  18
HETATM   18  CA  UNL     1     -11.152  14.474  68.882  1.00  0.00    -0.256 C  
HETATM   19  H2  UNL     1     -13.152  14.901  69.364  1.00  0.00     0.000 HD 
HETATM   20  N   UNL     1     -12.395  15.293  68.803  1.00  0.00    -0.585 NA 
HETATM   21  H1  UNL     1     -12.181  16.256  69.060  1.00  0.00     0.000 HD 
BRANCH  18  22
HETATM   22  C   UNL     1     -10.040  15.048  68.023  1.00  0.00    -0.223 A  
HETATM   23  C   UNL     1     -10.367  15.874  66.935  1.00  0.00    -0.291 A  
HETATM   24  C   UNL     1      -9.368  16.410  66.119  1.00  0.00    -0.360 A  
HETATM   25  C   UNL     1      -8.029  16.136  66.382  1.00  0.00    -0.252 A  
HETATM   26  C   UNL     1      -7.685  15.337  67.469  1.00  0.00    -0.200 A  
HETATM   27  C   UNL     1      -8.683  14.803  68.290  1.00  0.00    -0.170 A  
ENDBRANCH  18  22
ENDBRANCH  16  18
ENDBRANCH  13  14
TORSDOF 3
ENDMDL
MODEL       73
REMARK 921   NORMALIZED FREE ENERGY PREDICTED BY IDOCK:   -5.21 KCAL/MOL
REMARK 922        TOTAL FREE ENERGY PREDICTED BY IDOCK:   -6.83 KCAL/MOL
REMARK 923 INTER-LIGAND FREE ENERGY PREDICTED BY IDOCK:   -6.14 KCAL/MOL
REMARK 924 INTRA-LIGAND FREE ENERGY PREDICTED BY IDOCK:   -0.69 KCAL/MOL
REMARK 927      BINDING AFFINITY PREDICTED BY RF-SCORE:    0.00 PKD
ROOT
HETATM    1  C   UNL     1      -7.811  14.780  69.412  1.00  0.00    -0.083 C  
HETATM    2  S   UNL     1      -9.298  15.775  69.131  1.00  0.00    -0.270 SA 
HETATM    3  C   UNL     1     -10.389  14.333  69.074  1.00  0.00    -0.176 C  
HETATM    4  C   UNL     1      -9.881  13.200  68.208  1.00  0.00    -0.227 C  
HETATM    5 CL   UNL     1     -11.227  12.196  67.724  1.00  0.00    -0.307 Cl 
HETATM    6  CA  UNL     1      -8.588  13.001  67.831  1.00  0.00    -0.189 C  
HETATM    7  N   UNL     1      -7.632  13.868  68.294  1.00  0.00    -0.119 N  
HETATM    8  C   UNL     1      -8.228  11.863  66.892  1.00  0.00    -0.157 C  
HETATM    9  C   UNL     1      -6.350  14.204  68.037  1.00  0.00    -0.149 C  
HETATM   10  O   UNL     1      -6.921  11.678  66.619  1.00  0.00    -0.115 OA 
HETATM   11  OXT UNL     1      -9.035  11.073  66.429  1.00  0.00    -0.169 OA 
HETATM   12  O   UNL     1      -5.562  13.704  67.272  1.00  0.00    -0.334 OA 
HETATM   13  CA  UNL     1      -6.460  15.444  68.993  1.00  0.00    -0.113 C  
ENDROOT
BRANCH  13  14
HETATM   14  N   UNL     1      -6.572  16.751  68.315  1.00  0.00    -0.149 N  
HETATM   15  H   UNL     1      -6.907  16.759  67.351  1.00  0.00     0.000 HD 
HETATM   16  C   UNL     1      -6.257  17.960  68.894  1.00  0.00    -0.214 C  
HETATM   17  O   UNL     1      -5.889  18.068  70.059  1.00  0.00    -0.243 OA 
BRANCH  16  18
HETATM   18  CA  UNL     1      -6.419  19.155  67.921  1.00  0.00    -0.226 C  
HETATM   19  H2  UNL     1      -4.808  20.204  68.771  1.00  0.00     0.000 HD 
HETATM   20  N   UNL     1      -5.783  20.366  68.515  1.00  0.00    -0.258 NA 
HETATM   21  H1  UNL     1      -5.890  21.152  67.875  1.00  0.00     0.000 HD 
BRANCH  18  22
HETATM   22  C   UNL     1      -7.875  19.396  67.570  1.00  0.00    -0.292 A  
HETATM   23  C   UNL     1      -8.823  19.505  68.601  1.00  0.00    -0.386 A  
HETATM   24  C   UNL     1     -10.173  19.716  68.312  1.00  0.00    -0.567 A  
HETATM   25  C   UNL     1     -10.595  19.829  66.990  1.00  0.00    -0.586 A  
HETATM   26  C   UNL     1      -9.667  19.746  65.956  1.00  0.00    -0.455 A  
HETATM   27  C   UNL     1      -8.315  19.539  66.243  1.00  0.00    -0.359 A  
ENDBRANCH  18  22
ENDBRANCH  16  18
ENDBRANCH  13  14
TORSDOF 3
ENDMDL
MODEL       74
REMARK 921   NORMALIZED FREE ENERGY PREDICTED BY IDOCK:   -5.21 KCAL/MOL
REMARK 922        TOTAL FREE ENERGY PREDICTED BY IDOCK:   -6.82 KCAL/MOL
REMARK 923 INTER-LIGAND FREE ENERGY PREDICTED BY IDOCK:   -6.31 KCAL/MOL
REMARK 924 INTRA-LIGAND FREE ENERGY PREDICTED BY IDOCK:   -0.52 KCAL/MOL
REMARK 927      BINDING AFFINITY PREDICTED BY RF-SCORE:    0.00 PKD
ROOT
HETATM    1  C   UNL     1      -8.764  12.458  65.851  1.00  0.00     0.429 C  
HETATM    2  S   UNL     1     -10.397  11.956  65.252  1.00  0.00    -0.286 SA 
HETATM    3  C   UNL     1     -10.705  13.534  64.425  1.00  0.00    -0.388 C  
HETATM    4  C   UNL     1     -10.384  14.752  65.266  1.00  0.00    -0.398 C  
HETATM    5 CL   UNL     1     -11.282  16.124  64.661  1.00  0.00    -0.411 Cl 
HETATM    6  CA  UNL     1      -9.556  14.780  66.346  1.00  0.00    -0.301 C  
HETATM    7  N   UNL     1      -8.910  13.625  66.704  1.00  0.00    -0.131 N  
HETATM    8  C   UNL     1      -9.384  16.058  67.149  1.00  0.00    -0.211 C  
HETATM    9  C   UNL     1      -8.223  13.125  67.753  1.00  0.00    -0.168 C  
HETATM   10  O   UNL     1      -8.492  16.036  68.159  1.00  0.00    -0.164 OA 
HETATM   11  OXT UNL     1      -9.947  17.111  66.894  1.00  0.00    -0.268 OA 
HETATM   12  O   UNL     1      -7.872  13.667  68.773  1.00  0.00    -0.123 OA 
HETATM   13  CA  UNL     1      -8.237  11.694  67.107  1.00  0.00    -0.165 C  
ENDROOT
BRANCH  13  14
HETATM   14  N   UNL     1      -9.182  10.739  67.720  1.00  0.00    -0.150 N  
HETATM   15  H   UNL     1     -10.015  10.488  67.187  1.00  0.00     0.000 HD 
HETATM   16  C   UNL     1      -9.017  10.164  68.960  1.00  0.00    -0.167 C  
HETATM   17  O   UNL     1      -8.032  10.362  69.663  1.00  0.00    -0.161 OA 
BRANCH  16  18
HETATM   18  CA  UNL     1     -10.200   9.248  69.363  1.00  0.00    -0.210 C  
HETATM   19  H2  UNL     1     -10.106   8.157  67.568  1.00  0.00     0.000 HD 
HETATM   20  N   UNL     1     -10.799   8.647  68.136  1.00  0.00    -0.464 NA 
HETATM   21  H1  UNL     1     -11.578   8.045  68.401  1.00  0.00     0.000 HD 
BRANCH  18  22
HETATM   22  C   UNL     1     -11.231   9.997  70.187  1.00  0.00    -0.367 A  
HETATM   23  C   UNL     1     -11.877   9.338  71.246  1.00  0.00    -0.415 A  
HETATM   24  C   UNL     1     -12.838   9.996  72.017  1.00  0.00    -0.484 A  
HETATM   25  C   UNL     1     -13.161  11.323  71.747  1.00  0.00    -0.527 A  
HETATM   26  C   UNL     1     -12.515  11.999  70.716  1.00  0.00    -0.372 A  
HETATM   27  C   UNL     1     -11.550  11.344  69.946  1.00  0.00    -0.402 A  
ENDBRANCH  18  22
ENDBRANCH  16  18
ENDBRANCH  13  14
TORSDOF 3
ENDMDL
MODEL       75
REMARK 921   NORMALIZED FREE ENERGY PREDICTED BY IDOCK:   -5.20 KCAL/MOL
REMARK 922        TOTAL FREE ENERGY PREDICTED BY IDOCK:   -6.82 KCAL/MOL
REMARK 923 INTER-LIGAND FREE ENERGY PREDICTED BY IDOCK:   -6.16 KCAL/MOL
REMARK 924 INTRA-LIGAND FREE ENERGY PREDICTED BY IDOCK:   -0.66 KCAL/MOL
REMARK 927      BINDING AFFINITY PREDICTED BY RF-SCORE:    0.00 PKD
ROOT
HETATM    1  C   UNL     1     -11.721  14.577  67.180  1.00  0.00    -0.399 C  
HETATM    2  S   UNL     1     -10.370  13.656  66.403  1.00  0.00    -0.292 SA 
HETATM    3  C   UNL     1     -11.051  12.045  66.866  1.00  0.00    -0.302 C  
HETATM    4  C   UNL     1     -11.500  11.949  68.308  1.00  0.00    -0.311 C  
HETATM    5 CL   UNL     1     -11.522  10.271  68.796  1.00  0.00    -0.227 Cl 
HETATM    6  CA  UNL     1     -11.808  12.998  69.120  1.00  0.00    -0.310 C  
HETATM    7  N   UNL     1     -11.754  14.265  68.599  1.00  0.00    -0.326 N  
HETATM    8  C   UNL     1     -12.171  12.763  70.576  1.00  0.00    -0.307 C  
HETATM    9  C   UNL     1     -11.743  15.545  69.029  1.00  0.00    -0.377 C  
HETATM   10  O   UNL     1     -12.537  13.837  71.302  1.00  0.00    -0.342 OA 
HETATM   11  OXT UNL     1     -12.215  11.662  71.104  1.00  0.00    -0.290 OA 
HETATM   12  O   UNL     1     -11.879  15.983  70.145  1.00  0.00    -0.326 OA 
HETATM   13  CA  UNL     1     -11.393  16.050  67.584  1.00  0.00    -0.109 C  
ENDROOT
BRANCH  13  14
HETATM   14  N   UNL     1      -9.991  16.471  67.389  1.00  0.00    -0.261 N  
HETATM   15  H   UNL     1      -9.355  15.810  66.945  1.00  0.00     0.000 HD 
HETATM   16  C   UNL     1      -9.485  17.695  67.766  1.00  0.00    -0.260 C  
HETATM   17  O   UNL     1     -10.173  18.578  68.267  1.00  0.00    -0.361 OA 
BRANCH  16  18
HETATM   18  CA  UNL     1      -7.967  17.831  67.488  1.00  0.00    -0.212 C  
HETATM   19  H2  UNL     1      -8.281  18.815  65.658  1.00  0.00     0.000 HD 
HETATM   20  N   UNL     1      -7.749  18.026  66.026  1.00  0.00    -0.492 NA 
HETATM   21  H1  UNL     1      -6.749  18.115  65.842  1.00  0.00     0.000 HD 
BRANCH  18  22
HETATM   22  C   UNL     1      -7.193  16.639  68.021  1.00  0.00    -0.162 A  
HETATM   23  C   UNL     1      -6.352  15.921  67.155  1.00  0.00    -0.059 A  
HETATM   24  C   UNL     1      -5.634  14.813  67.611  1.00  0.00     0.015 A  
HETATM   25  C   UNL     1      -5.739  14.412  68.940  1.00  0.00    -0.082 A  
HETATM   26  C   UNL     1      -6.550  15.126  69.819  1.00  0.00    -0.177 A  
HETATM   27  C   UNL     1      -7.266  16.237  69.365  1.00  0.00    -0.192 A  
ENDBRANCH  18  22
ENDBRANCH  16  18
ENDBRANCH  13  14
TORSDOF 3
ENDMDL
MODEL       76
REMARK 921   NORMALIZED FREE ENERGY PREDICTED BY IDOCK:   -5.19 KCAL/MOL
REMARK 922        TOTAL FREE ENERGY PREDICTED BY IDOCK:   -6.80 KCAL/MOL
REMARK 923 INTER-LIGAND FREE ENERGY PREDICTED BY IDOCK:   -6.66 KCAL/MOL
REMARK 924 INTRA-LIGAND FREE ENERGY PREDICTED BY IDOCK:   -0.14 KCAL/MOL
REMARK 927      BINDING AFFINITY PREDICTED BY RF-SCORE:    0.00 PKD
ROOT
HETATM    1  C   UNL     1     -10.250   6.420  68.965  1.00  0.00    -0.183 C  
HETATM    2  S   UNL     1      -9.589   8.100  68.818  1.00  0.00    -0.151 SA 
HETATM    3  C   UNL     1      -8.055   7.549  68.032  1.00  0.00    -0.124 C  
HETATM    4  C   UNL     1      -7.393   6.372  68.716  1.00  0.00    -0.086 C  
HETATM    5 CL   UNL     1      -5.695   6.345  68.301  1.00  0.00    -0.015 Cl 
HETATM    6  CA  UNL     1      -8.003   5.486  69.550  1.00  0.00    -0.094 C  
HETATM    7  N   UNL     1      -9.346   5.625  69.780  1.00  0.00    -0.140 N  
HETATM    8  C   UNL     1      -7.198   4.393  70.232  1.00  0.00    -0.049 C  
HETATM    9  C   UNL     1     -10.286   5.177  70.641  1.00  0.00    -0.256 C  
HETATM   10  O   UNL     1      -7.877   3.505  70.985  1.00  0.00    -0.050 OA 
HETATM   11  OXT UNL     1      -5.996   4.231  70.085  1.00  0.00    -0.017 OA 
HETATM   12  O   UNL     1     -10.195   4.352  71.517  1.00  0.00    -0.173 OA 
HETATM   13  CA  UNL     1     -11.326   6.209  70.078  1.00  0.00    -0.373 C  
ENDROOT
BRANCH  13  14
HETATM   14  N   UNL     1     -11.586   7.375  70.947  1.00  0.00    -0.286 N  
HETATM   15  H   UNL     1     -10.782   7.910  71.277  1.00  0.00     0.000 HD 
HETATM   16  C   UNL     1     -12.838   7.789  71.342  1.00  0.00    -0.298 C  
HETATM   17  O   UNL     1     -13.871   7.245  70.968  1.00  0.00    -0.241 OA 
BRANCH  16  18
HETATM   18  CA  UNL     1     -12.796   9.006  72.300  1.00  0.00    -0.406 C  
HETATM   19  H2  UNL     1     -14.184   8.149  73.625  1.00  0.00     0.000 HD 
HETATM   20  N   UNL     1     -14.036   9.027  73.127  1.00  0.00    -1.223 NA 
HETATM   21  H1  UNL     1     -14.009   9.829  73.757  1.00  0.00     0.000 HD 
BRANCH  18  22
HETATM   22  C   UNL     1     -12.598  10.306  71.543  1.00  0.00    -0.544 A  
HETATM   23  C   UNL     1     -13.181  11.486  72.035  1.00  0.00    -0.443 A  
HETATM   24  C   UNL     1     -13.028  12.697  71.356  1.00  0.00    -0.353 A  
HETATM   25  C   UNL     1     -12.283  12.749  70.181  1.00  0.00    -0.320 A  
HETATM   26  C   UNL     1     -11.680  11.595  69.690  1.00  0.00    -0.418 A  
HETATM   27  C   UNL     1     -11.829  10.382  70.370  1.00  0.00    -0.418 A  
ENDBRANCH  18  22
ENDBRANCH  16  18
ENDBRANCH  13  14
TORSDOF 3
ENDMDL
MODEL       77
REMARK 921   NORMALIZED FREE ENERGY PREDICTED BY IDOCK:   -5.12 KCAL/MOL
REMARK 922        TOTAL FREE ENERGY PREDICTED BY IDOCK:   -6.72 KCAL/MOL
REMARK 923 INTER-LIGAND FREE ENERGY PREDICTED BY IDOCK:   -6.26 KCAL/MOL
REMARK 924 INTRA-LIGAND FREE ENERGY PREDICTED BY IDOCK:   -0.46 KCAL/MOL
REMARK 927      BINDING AFFINITY PREDICTED BY RF-SCORE:    0.00 PKD
ROOT
HETATM    1  C   UNL     1      -9.272  11.286  66.346  1.00  0.00    -0.192 C  
HETATM    2  S   UNL     1      -9.747   9.871  65.321  1.00  0.00    -0.291 SA 
HETATM    3  C   UNL     1     -10.362  10.910  63.973  1.00  0.00    -0.349 C  
HETATM    4  C   UNL     1     -11.258  12.045  64.420  1.00  0.00    -0.344 C  
HETATM    5 CL   UNL     1     -12.263  12.548  63.082  1.00  0.00    -0.474 Cl 
HETATM    6  CA  UNL     1     -11.307  12.578  65.672  1.00  0.00    -0.335 C  
HETATM    7  N   UNL     1     -10.453  12.088  66.625  1.00  0.00    -0.212 N  
HETATM    8  C   UNL     1     -12.313  13.667  66.005  1.00  0.00    -0.445 C  
HETATM    9  C   UNL     1     -10.291  12.122  67.965  1.00  0.00    -0.205 C  
HETATM   10  O   UNL     1     -12.257  14.202  67.240  1.00  0.00    -0.402 OA 
HETATM   11  OXT UNL     1     -13.114  14.130  65.207  1.00  0.00    -0.763 OA 
HETATM   12  O   UNL     1     -10.898  12.751  68.797  1.00  0.00    -0.242 OA 
HETATM   13  CA  UNL     1      -9.184  11.013  67.882  1.00  0.00    -0.155 C  
ENDROOT
BRANCH  13  14
HETATM   14  N   UNL     1      -9.610   9.668  68.319  1.00  0.00    -0.140 N  
HETATM   15  H   UNL     1     -10.611   9.490  68.401  1.00  0.00     0.000 HD 
HETATM   16  C   UNL     1      -8.748   8.637  68.622  1.00  0.00    -0.138 C  
HETATM   17  O   UNL     1      -7.531   8.730  68.515  1.00  0.00    -0.086 OA 
BRANCH  16  18
HETATM   18  CA  UNL     1      -9.482   7.361  69.108  1.00  0.00    -0.149 C  
HETATM   19  H2  UNL     1     -11.207   7.798  67.989  1.00  0.00     0.000 HD 
HETATM   20  N   UNL     1     -10.953   7.546  68.945  1.00  0.00    -0.424 NA 
HETATM   21  H1  UNL     1     -11.436   6.707  69.265  1.00  0.00     0.000 HD 
BRANCH  18  22
HETATM   22  C   UNL     1      -9.110   7.014  70.537  1.00  0.00    -0.156 A  
HETATM   23  C   UNL     1      -8.865   5.673  70.878  1.00  0.00    -0.147 A  
HETATM   24  C   UNL     1      -8.530   5.318  72.187  1.00  0.00    -0.126 A  
HETATM   25  C   UNL     1      -8.428   6.297  73.172  1.00  0.00    -0.116 A  
HETATM   26  C   UNL     1      -8.646   7.633  72.848  1.00  0.00    -0.190 A  
HETATM   27  C   UNL     1      -8.977   7.991  71.538  1.00  0.00    -0.180 A  
ENDBRANCH  18  22
ENDBRANCH  16  18
ENDBRANCH  13  14
TORSDOF 3
ENDMDL
MODEL       78
REMARK 921   NORMALIZED FREE ENERGY PREDICTED BY IDOCK:   -5.12 KCAL/MOL
REMARK 922        TOTAL FREE ENERGY PREDICTED BY IDOCK:   -6.72 KCAL/MOL
REMARK 923 INTER-LIGAND FREE ENERGY PREDICTED BY IDOCK:   -6.19 KCAL/MOL
REMARK 924 INTRA-LIGAND FREE ENERGY PREDICTED BY IDOCK:   -0.53 KCAL/MOL
REMARK 927      BINDING AFFINITY PREDICTED BY RF-SCORE:    0.00 PKD
ROOT
HETATM    1  C   UNL     1      -9.246  11.410  66.166  1.00  0.00    -0.210 C  
HETATM    2  S   UNL     1      -9.677  10.293  64.809  1.00  0.00    -0.335 SA 
HETATM    3  C   UNL     1     -10.098  11.642  63.680  1.00  0.00    -0.402 C  
HETATM    4  C   UNL     1     -10.981  12.710  64.288  1.00  0.00    -0.366 C  
HETATM    5 CL   UNL     1     -11.816  13.564  63.011  1.00  0.00     0.084 Cl 
HETATM    6  CA  UNL     1     -11.136  12.957  65.618  1.00  0.00    -0.279 C  
HETATM    7  N   UNL     1     -10.410  12.211  66.509  1.00  0.00    -0.211 N  
HETATM    8  C   UNL     1     -12.119  14.013  66.094  1.00  0.00    -0.446 C  
HETATM    9  C   UNL     1     -10.388  11.938  67.831  1.00  0.00    -0.198 C  
HETATM   10  O   UNL     1     -12.168  14.257  67.419  1.00  0.00    -0.378 OA 
HETATM   11  OXT UNL     1     -12.810  14.694  65.352  1.00  0.00    -0.293 OA 
HETATM   12  O   UNL     1     -11.049  12.409  68.725  1.00  0.00    -0.237 OA 
HETATM   13  CA  UNL     1      -9.332  10.800  67.602  1.00  0.00    -0.147 C  
ENDROOT
BRANCH  13  14
HETATM   14  N   UNL     1      -9.864   9.425  67.682  1.00  0.00    -0.166 N  
HETATM   15  H   UNL     1     -10.783   9.247  67.279  1.00  0.00     0.000 HD 
HETATM   16  C   UNL     1      -9.203   8.366  68.264  1.00  0.00    -0.134 C  
HETATM   17  O   UNL     1      -8.076   8.460  68.738  1.00  0.00    -0.117 OA 
BRANCH  16  18
HETATM   18  CA  UNL     1     -10.033   7.057  68.252  1.00  0.00    -0.153 C  
HETATM   19  H2  UNL     1     -10.769   7.416  66.316  1.00  0.00     0.000 HD 
HETATM   20  N   UNL     1     -11.124   7.175  67.242  1.00  0.00    -0.596 NA 
HETATM   21  H1  UNL     1     -11.671   6.314  67.234  1.00  0.00     0.000 HD 
BRANCH  18  22
HETATM   22  C   UNL     1     -10.572   6.725  69.631  1.00  0.00    -0.267 A  
HETATM   23  C   UNL     1     -10.329   5.453  70.177  1.00  0.00    -0.361 A  
HETATM   24  C   UNL     1     -10.820   5.112  71.439  1.00  0.00    -0.083 A  
HETATM   25  C   UNL     1     -11.552   6.037  72.177  1.00  0.00    -0.348 A  
HETATM   26  C   UNL     1     -11.784   7.309  71.662  1.00  0.00    -0.316 A  
HETATM   27  C   UNL     1     -11.291   7.654  70.401  1.00  0.00    -0.235 A  
ENDBRANCH  18  22
ENDBRANCH  16  18
ENDBRANCH  13  14
TORSDOF 3
ENDMDL
MODEL       79
REMARK 921   NORMALIZED FREE ENERGY PREDICTED BY IDOCK:   -5.11 KCAL/MOL
REMARK 922        TOTAL FREE ENERGY PREDICTED BY IDOCK:   -6.70 KCAL/MOL
REMARK 923 INTER-LIGAND FREE ENERGY PREDICTED BY IDOCK:   -6.04 KCAL/MOL
REMARK 924 INTRA-LIGAND FREE ENERGY PREDICTED BY IDOCK:   -0.66 KCAL/MOL
REMARK 927      BINDING AFFINITY PREDICTED BY RF-SCORE:    0.00 PKD
ROOT
HETATM    1  C   UNL     1      -8.819   9.598  69.926  1.00  0.00    -0.221 C  
HETATM    2  S   UNL     1     -10.481   9.537  70.640  1.00  0.00    -0.320 SA 
HETATM    3  C   UNL     1     -10.453   7.739  70.840  1.00  0.00    -0.206 C  
HETATM    4  C   UNL     1      -9.963   6.985  69.623  1.00  0.00    -0.173 C  
HETATM    5 CL   UNL     1     -10.562   5.344  69.681  1.00  0.00    -0.369 Cl 
HETATM    6  CA  UNL     1      -9.202   7.498  68.617  1.00  0.00    -0.144 C  
HETATM    7  N   UNL     1      -8.797   8.804  68.708  1.00  0.00    -0.134 N  
HETATM    8  C   UNL     1      -8.844   6.646  67.412  1.00  0.00    -0.116 C  
HETATM    9  C   UNL     1      -8.268   9.765  67.919  1.00  0.00    -0.113 C  
HETATM   10  O   UNL     1      -8.027   7.193  66.490  1.00  0.00    -0.106 OA 
HETATM   11  OXT UNL     1      -9.193   5.485  67.263  1.00  0.00    -0.111 OA 
HETATM   12  O   UNL     1      -7.881   9.697  66.778  1.00  0.00    -0.101 OA 
HETATM   13  CA  UNL     1      -8.507  10.843  69.035  1.00  0.00    -0.105 C  
ENDROOT
BRANCH  13  14
HETATM   14  N   UNL     1      -9.642  11.757  68.792  1.00  0.00    -0.385 N  
HETATM   15  H   UNL     1     -10.544  11.511  69.198  1.00  0.00     0.000 HD 
HETATM   16  C   UNL     1      -9.564  12.918  68.056  1.00  0.00    -0.221 C  
HETATM   17  O   UNL     1      -8.519  13.328  67.563  1.00  0.00    -0.177 OA 
BRANCH  16  18
HETATM   18  CA  UNL     1     -10.929  13.640  67.924  1.00  0.00    -0.259 C  
HETATM   19  H2  UNL     1     -11.547  13.052  69.844  1.00  0.00     0.000 HD 
HETATM   20  N   UNL     1     -11.898  13.043  68.886  1.00  0.00    -0.317 NA 
HETATM   21  H1  UNL     1     -12.797  13.517  68.799  1.00  0.00     0.000 HD 
BRANCH  18  22
HETATM   22  C   UNL     1     -11.447  13.597  66.498  1.00  0.00    -0.357 A  
HETATM   23  C   UNL     1     -11.781  12.359  65.924  1.00  0.00    -0.476 A  
HETATM   24  C   UNL     1     -12.250  12.284  64.610  1.00  0.00    -0.454 A  
HETATM   25  C   UNL     1     -12.402  13.444  63.855  1.00  0.00    -0.410 A  
HETATM   26  C   UNL     1     -12.097  14.681  64.415  1.00  0.00    -0.481 A  
HETATM   27  C   UNL     1     -11.631  14.759  65.730  1.00  0.00    -0.290 A  
ENDBRANCH  18  22
ENDBRANCH  16  18
ENDBRANCH  13  14
TORSDOF 3
ENDMDL
MODEL       80
REMARK 921   NORMALIZED FREE ENERGY PREDICTED BY IDOCK:   -5.10 KCAL/MOL
REMARK 922        TOTAL FREE ENERGY PREDICTED BY IDOCK:   -6.70 KCAL/MOL
REMARK 923 INTER-LIGAND FREE ENERGY PREDICTED BY IDOCK:   -6.33 KCAL/MOL
REMARK 924 INTRA-LIGAND FREE ENERGY PREDICTED BY IDOCK:   -0.37 KCAL/MOL
REMARK 927      BINDING AFFINITY PREDICTED BY RF-SCORE:    0.00 PKD
ROOT
HETATM    1  C   UNL     1      -8.770  13.036  66.943  1.00  0.00    -0.152 C  
HETATM    2  S   UNL     1      -7.383  13.232  68.090  1.00  0.00    -0.137 SA 
HETATM    3  C   UNL     1      -7.368  11.483  68.550  1.00  0.00    -0.104 C  
HETATM    4  C   UNL     1      -8.732  10.910  68.869  1.00  0.00    -0.140 C  
HETATM    5 CL   UNL     1      -8.542   9.493  69.875  1.00  0.00    -0.194 Cl 
HETATM    6  CA  UNL     1      -9.928  11.425  68.470  1.00  0.00    -0.201 C  
HETATM    7  N   UNL     1      -9.925  12.542  67.675  1.00  0.00    -0.198 N  
HETATM    8  C   UNL     1     -11.229  10.791  68.929  1.00  0.00    -0.268 C  
HETATM    9  C   UNL     1     -10.785  13.490  67.245  1.00  0.00    -0.267 C  
HETATM   10  O   UNL     1     -12.374  11.306  68.437  1.00  0.00    -0.545 OA 
HETATM   11  OXT UNL     1     -11.298   9.811  69.655  1.00  0.00    -0.212 OA 
HETATM   12  O   UNL     1     -11.978  13.576  67.405  1.00  0.00    -0.367 OA 
HETATM   13  CA  UNL     1      -9.598  14.328  66.651  1.00  0.00    -0.289 C  
ENDROOT
BRANCH  13  14
HETATM   14  N   UNL     1      -9.220  15.522  67.433  1.00  0.00    -0.200 N  
HETATM   15  H   UNL     1      -8.434  15.437  68.078  1.00  0.00     0.000 HD 
HETATM   16  C   UNL     1      -9.854  16.741  67.352  1.00  0.00    -0.252 C  
HETATM   17  O   UNL     1     -10.780  16.963  66.579  1.00  0.00    -0.222 OA 
BRANCH  16  18
HETATM   18  CA  UNL     1      -9.274  17.789  68.335  1.00  0.00    -0.285 C  
HETATM   19  H2  UNL     1     -11.054  17.889  69.448  1.00  0.00     0.000 HD 
HETATM   20  N   UNL     1     -10.394  18.521  68.994  1.00  0.00    -0.454 NA 
HETATM   21  H1  UNL     1     -10.012  19.212  69.640  1.00  0.00     0.000 HD 
BRANCH  18  22
HETATM   22  C   UNL     1      -8.312  18.734  67.639  1.00  0.00    -0.291 A  
HETATM   23  C   UNL     1      -7.872  18.434  66.339  1.00  0.00    -0.291 A  
HETATM   24  C   UNL     1      -6.979  19.277  65.675  1.00  0.00    -0.300 A  
HETATM   25  C   UNL     1      -6.519  20.436  66.295  1.00  0.00    -0.256 A  
HETATM   26  C   UNL     1      -6.961  20.761  67.574  1.00  0.00    -0.406 A  
HETATM   27  C   UNL     1      -7.858  19.921  68.239  1.00  0.00    -0.299 A  
ENDBRANCH  18  22
ENDBRANCH  16  18
ENDBRANCH  13  14
TORSDOF 3
ENDMDL
MODEL       81
REMARK 921   NORMALIZED FREE ENERGY PREDICTED BY IDOCK:   -5.09 KCAL/MOL
REMARK 922        TOTAL FREE ENERGY PREDICTED BY IDOCK:   -6.68 KCAL/MOL
REMARK 923 INTER-LIGAND FREE ENERGY PREDICTED BY IDOCK:   -6.97 KCAL/MOL
REMARK 924 INTRA-LIGAND FREE ENERGY PREDICTED BY IDOCK:    0.28 KCAL/MOL
REMARK 927      BINDING AFFINITY PREDICTED BY RF-SCORE:    0.00 PKD
ROOT
HETATM    1  C   UNL     1      -9.124   7.045  72.414  1.00  0.00    -0.132 C  
HETATM    2  S   UNL     1     -10.430   6.565  73.573  1.00  0.00    -0.308 SA 
HETATM    3  C   UNL     1      -9.986   4.812  73.525  1.00  0.00    -0.153 C  
HETATM    4  C   UNL     1      -9.767   4.263  72.131  1.00  0.00    -0.160 C  
HETATM    5 CL   UNL     1      -9.982   2.529  72.154  1.00  0.00    -0.229 Cl 
HETATM    6  CA  UNL     1      -9.480   4.996  71.020  1.00  0.00    -0.162 C  
HETATM    7  N   UNL     1      -9.333   6.352  71.152  1.00  0.00    -0.160 N  
HETATM    8  C   UNL     1      -9.361   4.322  69.664  1.00  0.00    -0.165 C  
HETATM    9  C   UNL     1      -9.280   7.453  70.373  1.00  0.00    -0.158 C  
HETATM   10  O   UNL     1      -9.002   5.094  68.620  1.00  0.00    -0.103 OA 
HETATM   11  OXT UNL     1      -9.504   3.123  69.478  1.00  0.00    -0.162 OA 
HETATM   12  O   UNL     1      -9.268   7.544  69.169  1.00  0.00    -0.145 OA 
HETATM   13  CA  UNL     1      -9.362   8.380  71.637  1.00  0.00    -0.214 C  
ENDROOT
BRANCH  13  14
HETATM   14  N   UNL     1     -10.671   9.025  71.859  1.00  0.00    -0.355 N  
HETATM   15  H   UNL     1     -11.217   8.727  72.667  1.00  0.00     0.000 HD 
HETATM   16  C   UNL     1     -11.206  10.002  71.050  1.00  0.00    -0.314 C  
HETATM   17  O   UNL     1     -10.615  10.464  70.079  1.00  0.00    -0.271 OA 
BRANCH  16  18
HETATM   18  CA  UNL     1     -12.621  10.449  71.498  1.00  0.00    -0.439 C  
HETATM   19  H2  UNL     1     -13.523   8.698  70.766  1.00  0.00     0.000 HD 
HETATM   20  N   UNL     1     -13.646   9.709  70.707  1.00  0.00    -0.563 NA 
HETATM   21  H1  UNL     1     -14.577  10.004  71.002  1.00  0.00     0.000 HD 
BRANCH  18  22
HETATM   22  C   UNL     1     -12.794  11.952  71.384  1.00  0.00    -0.411 A  
HETATM   23  C   UNL     1     -12.155  12.641  70.340  1.00  0.00    -0.381 A  
HETATM   24  C   UNL     1     -12.285  14.026  70.212  1.00  0.00    -0.430 A  
HETATM   25  C   UNL     1     -13.062  14.741  71.120  1.00  0.00    -0.443 A  
HETATM   26  C   UNL     1     -13.720  14.072  72.147  1.00  0.00    -0.603 A  
HETATM   27  C   UNL     1     -13.595  12.686  72.275  1.00  0.00    -0.508 A  
ENDBRANCH  18  22
ENDBRANCH  16  18
ENDBRANCH  13  14
TORSDOF 3
ENDMDL
MODEL       82
REMARK 921   NORMALIZED FREE ENERGY PREDICTED BY IDOCK:   -5.08 KCAL/MOL
REMARK 922        TOTAL FREE ENERGY PREDICTED BY IDOCK:   -6.67 KCAL/MOL
REMARK 923 INTER-LIGAND FREE ENERGY PREDICTED BY IDOCK:   -6.58 KCAL/MOL
REMARK 924 INTRA-LIGAND FREE ENERGY PREDICTED BY IDOCK:   -0.09 KCAL/MOL
REMARK 927      BINDING AFFINITY PREDICTED BY RF-SCORE:    0.00 PKD
ROOT
HETATM    1  C   UNL     1      -9.875   9.769  68.519  1.00  0.00    -0.156 C  
HETATM    2  S   UNL     1      -8.354  10.746  68.418  1.00  0.00    -0.139 SA 
HETATM    3  C   UNL     1      -7.377   9.530  69.334  1.00  0.00    -0.084 C  
HETATM    4  C   UNL     1      -8.042   9.019  70.594  1.00  0.00    -0.162 C  
HETATM    5 CL   UNL     1      -6.821   8.396  71.679  1.00  0.00    -0.069 Cl 
HETATM    6  CA  UNL     1      -9.375   9.061  70.868  1.00  0.00    -0.264 C  
HETATM    7  N   UNL     1     -10.220   9.573  69.918  1.00  0.00    -0.214 N  
HETATM    8  C   UNL     1      -9.900   8.581  72.210  1.00  0.00    -0.313 C  
HETATM    9  C   UNL     1     -11.494  10.010  69.815  1.00  0.00    -0.184 C  
HETATM   10  O   UNL     1     -11.237   8.582  72.386  1.00  0.00    -0.359 OA 
HETATM   11  OXT UNL     1      -9.197   8.136  73.104  1.00  0.00    -0.261 OA 
HETATM   12  O   UNL     1     -12.383   9.990  70.631  1.00  0.00    -0.285 OA 
HETATM   13  CA  UNL     1     -11.208  10.572  68.377  1.00  0.00    -0.279 C  
ENDROOT
BRANCH  13  14
HETATM   14  N   UNL     1     -11.067  12.039  68.293  1.00  0.00    -0.225 N  
HETATM   15  H   UNL     1     -10.501  12.503  69.003  1.00  0.00     0.000 HD 
HETATM   16  C   UNL     1     -11.646  12.824  67.321  1.00  0.00    -0.360 C  
HETATM   17  O   UNL     1     -12.308  12.365  66.397  1.00  0.00    -0.539 OA 
BRANCH  16  18
HETATM   18  CA  UNL     1     -11.370  14.336  67.524  1.00  0.00    -0.326 C  
HETATM   19  H2  UNL     1      -9.762  14.332  66.171  1.00  0.00     0.000 HD 
HETATM   20  N   UNL     1      -9.966  14.639  67.122  1.00  0.00    -0.238 NA 
HETATM   21  H1  UNL     1      -9.784  15.633  67.256  1.00  0.00     0.000 HD 
BRANCH  18  22
HETATM   22  C   UNL     1     -11.657  14.770  68.949  1.00  0.00    -0.340 A  
HETATM   23  C   UNL     1     -12.521  13.997  69.743  1.00  0.00    -0.255 A  
HETATM   24  C   UNL     1     -12.815  14.375  71.055  1.00  0.00    -0.423 A  
HETATM   25  C   UNL     1     -12.244  15.523  71.596  1.00  0.00    -0.468 A  
HETATM   26  C   UNL     1     -11.368  16.289  70.832  1.00  0.00    -0.319 A  
HETATM   27  C   UNL     1     -11.070  15.911  69.520  1.00  0.00    -0.315 A  
ENDBRANCH  18  22
ENDBRANCH  16  18
ENDBRANCH  13  14
TORSDOF 3
ENDMDL
MODEL       83
REMARK 921   NORMALIZED FREE ENERGY PREDICTED BY IDOCK:   -4.99 KCAL/MOL
REMARK 922        TOTAL FREE ENERGY PREDICTED BY IDOCK:   -6.57 KCAL/MOL
REMARK 923 INTER-LIGAND FREE ENERGY PREDICTED BY IDOCK:   -6.04 KCAL/MOL
REMARK 924 INTRA-LIGAND FREE ENERGY PREDICTED BY IDOCK:   -0.53 KCAL/MOL
REMARK 927      BINDING AFFINITY PREDICTED BY RF-SCORE:    0.00 PKD
ROOT
HETATM    1  C   UNL     1     -10.337  14.349  67.764  1.00  0.00    -0.238 C  
HETATM    2  S   UNL     1      -9.013  15.017  68.803  1.00  0.00    -0.202 SA 
HETATM    3  C   UNL     1      -9.765  16.659  68.903  1.00  0.00    -0.255 C  
HETATM    4  C   UNL     1     -10.238  17.210  67.575  1.00  0.00    -0.323 C  
HETATM    5 CL   UNL     1     -10.334  18.952  67.674  1.00  0.00    -0.458 Cl 
HETATM    6  CA  UNL     1     -10.516  16.478  66.460  1.00  0.00    -0.270 C  
HETATM    7  N   UNL     1     -10.403  15.114  66.530  1.00  0.00    -0.275 N  
HETATM    8  C   UNL     1     -10.908  17.169  65.166  1.00  0.00     0.001 C  
HETATM    9  C   UNL     1     -10.347  14.052  65.698  1.00  0.00    -0.329 C  
HETATM   10  O   UNL     1     -11.242  16.383  64.123  1.00  0.00    -0.882 OA 
HETATM   11  OXT UNL     1     -11.005  18.380  65.034  1.00  0.00    -0.644 OA 
HETATM   12  O   UNL     1     -10.481  14.005  64.500  1.00  0.00    -0.424 OA 
HETATM   13  CA  UNL     1      -9.956  13.110  66.891  1.00  0.00    -0.245 C  
ENDROOT
BRANCH  13  14
HETATM   14  N   UNL     1      -8.536  12.708  66.935  1.00  0.00    -0.344 N  
HETATM   15  H   UNL     1      -7.851  13.341  66.522  1.00  0.00     0.000 HD 
HETATM   16  C   UNL     1      -8.073  11.539  67.494  1.00  0.00    -0.137 C  
HETATM   17  O   UNL     1      -8.805  10.730  68.055  1.00  0.00    -0.127 OA 
BRANCH  16  18
HETATM   18  CA  UNL     1      -6.541  11.361  67.339  1.00  0.00    -0.090 C  
HETATM   19  H2  UNL     1      -6.186  13.431  67.410  1.00  0.00     0.000 HD 
HETATM   20  N   UNL     1      -5.947  12.629  66.826  1.00  0.00    -0.420 NA 
HETATM   21  H1  UNL     1      -4.939  12.512  66.724  1.00  0.00     0.000 HD 
BRANCH  18  22
HETATM   22  C   UNL     1      -6.204  10.178  66.451  1.00  0.00    -0.072 A  
HETATM   23  C   UNL     1      -5.856   8.951  67.040  1.00  0.00    -0.046 A  
HETATM   24  C   UNL     1      -5.530   7.846  66.251  1.00  0.00    -0.028 A  
HETATM   25  C   UNL     1      -5.555   7.947  64.863  1.00  0.00    -0.037 A  
HETATM   26  C   UNL     1      -5.918   9.148  64.261  1.00  0.00    -0.071 A  
HETATM   27  C   UNL     1      -6.249  10.254  65.049  1.00  0.00    -0.125 A  
ENDBRANCH  18  22
ENDBRANCH  16  18
ENDBRANCH  13  14
TORSDOF 3
ENDMDL
MODEL       84
REMARK 921   NORMALIZED FREE ENERGY PREDICTED BY IDOCK:   -4.99 KCAL/MOL
REMARK 922        TOTAL FREE ENERGY PREDICTED BY IDOCK:   -6.57 KCAL/MOL
REMARK 923 INTER-LIGAND FREE ENERGY PREDICTED BY IDOCK:   -5.99 KCAL/MOL
REMARK 924 INTRA-LIGAND FREE ENERGY PREDICTED BY IDOCK:   -0.58 KCAL/MOL
REMARK 927      BINDING AFFINITY PREDICTED BY RF-SCORE:    0.00 PKD
ROOT
HETATM    1  C   UNL     1      -9.482  17.012  68.431  1.00  0.00    -0.269 C  
HETATM    2  S   UNL     1      -8.094  15.931  68.857  1.00  0.00    -0.228 SA 
HETATM    3  C   UNL     1      -6.974  17.311  69.195  1.00  0.00    -0.215 C  
HETATM    4  C   UNL     1      -6.986  18.395  68.139  1.00  0.00    -0.235 C  
HETATM    5 CL   UNL     1      -5.489  19.295  68.220  1.00  0.00    -0.193 Cl 
HETATM    6  CA  UNL     1      -7.982  18.624  67.240  1.00  0.00    -0.237 C  
HETATM    7  N   UNL     1      -9.106  17.842  67.298  1.00  0.00    -0.243 N  
HETATM    8  C   UNL     1      -7.829  19.701  66.180  1.00  0.00    -0.331 C  
HETATM    9  C   UNL     1     -10.183  17.547  66.539  1.00  0.00    -0.342 C  
HETATM   10  O   UNL     1      -8.883  19.925  65.371  1.00  0.00    -0.121 OA 
HETATM   11  OXT UNL     1      -6.845  20.415  66.063  1.00  0.00    -0.242 OA 
HETATM   12  O   UNL     1     -10.538  18.022  65.488  1.00  0.00    -0.639 OA 
HETATM   13  CA  UNL     1     -10.578  16.381  67.514  1.00  0.00    -0.309 C  
ENDROOT
BRANCH  13  14
HETATM   14  N   UNL     1     -10.290  15.021  67.014  1.00  0.00    -0.265 N  
HETATM   15  H   UNL     1      -9.621  14.928  66.250  1.00  0.00     0.000 HD 
HETATM   16  C   UNL     1     -10.863  13.871  67.510  1.00  0.00    -0.266 C  
HETATM   17  O   UNL     1     -11.644  13.867  68.455  1.00  0.00    -0.290 OA 
BRANCH  16  18
HETATM   18  CA  UNL     1     -10.413  12.598  66.749  1.00  0.00    -0.240 C  
HETATM   19  H2  UNL     1     -12.371  12.141  66.138  1.00  0.00     0.000 HD 
HETATM   20  N   UNL     1     -11.578  11.682  66.587  1.00  0.00    -0.506 NA 
HETATM   21  H1  UNL     1     -11.282  10.844  66.088  1.00  0.00     0.000 HD 
BRANCH  18  22
HETATM   22  C   UNL     1      -9.249  11.916  67.443  1.00  0.00    -0.177 A  
HETATM   23  C   UNL     1      -9.500  11.053  68.523  1.00  0.00    -0.188 A  
HETATM   24  C   UNL     1      -8.450  10.417  69.190  1.00  0.00    -0.168 A  
HETATM   25  C   UNL     1      -7.136  10.627  68.783  1.00  0.00    -0.076 A  
HETATM   26  C   UNL     1      -6.869  11.461  67.701  1.00  0.00    -0.080 A  
HETATM   27  C   UNL     1      -7.918  12.095  67.030  1.00  0.00    -0.138 A  
ENDBRANCH  18  22
ENDBRANCH  16  18
ENDBRANCH  13  14
TORSDOF 3
ENDMDL
MODEL       85
REMARK 921   NORMALIZED FREE ENERGY PREDICTED BY IDOCK:   -4.98 KCAL/MOL
REMARK 922        TOTAL FREE ENERGY PREDICTED BY IDOCK:   -6.55 KCAL/MOL
REMARK 923 INTER-LIGAND FREE ENERGY PREDICTED BY IDOCK:   -6.01 KCAL/MOL
REMARK 924 INTRA-LIGAND FREE ENERGY PREDICTED BY IDOCK:   -0.55 KCAL/MOL
REMARK 927      BINDING AFFINITY PREDICTED BY RF-SCORE:    0.00 PKD
ROOT
HETATM    1  C   UNL     1      -8.118  16.404  68.578  1.00  0.00    -0.205 C  
HETATM    2  S   UNL     1      -6.979  15.737  67.339  1.00  0.00    -0.203 SA 
HETATM    3  C   UNL     1      -6.448  17.374  66.781  1.00  0.00    -0.204 C  
HETATM    4  C   UNL     1      -7.582  18.347  66.537  1.00  0.00    -0.240 C  
HETATM    5 CL   UNL     1      -7.043  19.597  65.441  1.00  0.00    -0.281 Cl 
HETATM    6  CA  UNL     1      -8.837  18.257  67.057  1.00  0.00    -0.266 C  
HETATM    7  N   UNL     1      -9.117  17.223  67.911  1.00  0.00    -0.235 N  
HETATM    8  C   UNL     1      -9.904  19.265  66.665  1.00  0.00    -0.367 C  
HETATM    9  C   UNL     1     -10.191  16.616  68.460  1.00  0.00    -0.282 C  
HETATM   10  O   UNL     1     -11.103  19.161  67.273  1.00  0.00    -0.417 OA 
HETATM   11  OXT UNL     1      -9.723  20.193  65.893  1.00  0.00    -0.400 OA 
HETATM   12  O   UNL     1     -11.359  16.916  68.399  1.00  0.00    -0.230 OA 
HETATM   13  CA  UNL     1      -9.285  15.457  69.006  1.00  0.00    -0.235 C  
ENDROOT
BRANCH  13  14
HETATM   14  N   UNL     1      -9.381  14.183  68.266  1.00  0.00    -0.199 N  
HETATM   15  H   UNL     1      -8.643  13.966  67.596  1.00  0.00     0.000 HD 
HETATM   16  C   UNL     1     -10.399  13.268  68.417  1.00  0.00    -0.251 C  
HETATM   17  O   UNL     1     -11.310  13.409  69.225  1.00  0.00    -0.261 OA 
BRANCH  16  18
HETATM   18  CA  UNL     1     -10.263  12.053  67.465  1.00  0.00    -0.198 C  
HETATM   19  H2  UNL     1     -11.745  12.775  66.160  1.00  0.00     0.000 HD 
HETATM   20  N   UNL     1     -11.510  11.916  66.659  1.00  0.00    -0.451 NA 
HETATM   21  H1  UNL     1     -11.422  11.116  66.033  1.00  0.00     0.000 HD 
BRANCH  18  22
HETATM   22  C   UNL     1      -9.938  10.781  68.225  1.00  0.00    -0.182 A  
HETATM   23  C   UNL     1     -10.804   9.679  68.127  1.00  0.00    -0.241 A  
HETATM   24  C   UNL     1     -10.539   8.497  68.823  1.00  0.00    -0.162 A  
HETATM   25  C   UNL     1      -9.402   8.396  69.619  1.00  0.00    -0.161 A  
HETATM   26  C   UNL     1      -8.520   9.469  69.711  1.00  0.00    -0.185 A  
HETATM   27  C   UNL     1      -8.781  10.651  69.012  1.00  0.00    -0.152 A  
ENDBRANCH  18  22
ENDBRANCH  16  18
ENDBRANCH  13  14
TORSDOF 3
ENDMDL
MODEL       86
REMARK 921   NORMALIZED FREE ENERGY PREDICTED BY IDOCK:   -4.94 KCAL/MOL
REMARK 922        TOTAL FREE ENERGY PREDICTED BY IDOCK:   -6.51 KCAL/MOL
REMARK 923 INTER-LIGAND FREE ENERGY PREDICTED BY IDOCK:   -7.36 KCAL/MOL
REMARK 924 INTRA-LIGAND FREE ENERGY PREDICTED BY IDOCK:    0.85 KCAL/MOL
REMARK 927      BINDING AFFINITY PREDICTED BY RF-SCORE:    0.00 PKD
ROOT
HETATM    1  C   UNL     1      -9.158  13.703  66.448  1.00  0.00    -0.051 C  
HETATM    2  S   UNL     1      -9.277  11.980  66.992  1.00  0.00    -0.201 SA 
HETATM    3  C   UNL     1      -9.546  11.351  65.317  1.00  0.00    -0.228 C  
HETATM    4  C   UNL     1     -10.577  12.122  64.520  1.00  0.00    -0.310 C  
HETATM    5 CL   UNL     1     -11.201  11.102  63.245  1.00  0.00    -0.057 Cl 
HETATM    6  CA  UNL     1     -10.986  13.397  64.765  1.00  0.00    -0.360 C  
HETATM    7  N   UNL     1     -10.402  14.082  65.799  1.00  0.00    -0.307 N  
HETATM    8  C   UNL     1     -12.089  14.024  63.930  1.00  0.00    -0.311 C  
HETATM    9  C   UNL     1     -10.612  15.198  66.530  1.00  0.00    -0.304 C  
HETATM   10  O   UNL     1     -12.393  15.314  64.178  1.00  0.00    -0.630 OA 
HETATM   11  OXT UNL     1     -12.663  13.458  63.012  1.00  0.00    -0.631 OA 
HETATM   12  O   UNL     1     -11.448  16.059  66.398  1.00  0.00     0.177 OA 
HETATM   13  CA  UNL     1      -9.478  14.781  67.532  1.00  0.00    -0.197 C  
ENDROOT
BRANCH  13  14
HETATM   14  N   UNL     1      -9.950  14.262  68.832  1.00  0.00    -0.349 N  
HETATM   15  H   UNL     1      -9.264  14.163  69.580  1.00  0.00     0.000 HD 
HETATM   16  C   UNL     1     -11.251  13.903  69.102  1.00  0.00    -0.269 C  
HETATM   17  O   UNL     1     -12.161  14.024  68.289  1.00  0.00    -0.355 OA 
BRANCH  16  18
HETATM   18  CA  UNL     1     -11.435  13.337  70.534  1.00  0.00     0.401 C  
HETATM   19  H2  UNL     1     -11.471  11.347  69.858  1.00  0.00     0.000 HD 
HETATM   20  N   UNL     1     -12.021  11.969  70.452  1.00  0.00    -0.476 NA 
HETATM   21  H1  UNL     1     -12.143  11.597  71.394  1.00  0.00     0.000 HD 
BRANCH  18  22
HETATM   22  C   UNL     1     -12.274  14.262  71.395  1.00  0.00    -0.408 A  
HETATM   23  C   UNL     1     -11.656  14.999  72.419  1.00  0.00    -0.369 A  
HETATM   24  C   UNL     1     -12.402  15.851  73.237  1.00  0.00    -0.632 A  
HETATM   25  C   UNL     1     -13.773  15.987  73.039  1.00  0.00    -0.470 A  
HETATM   26  C   UNL     1     -14.399  15.282  72.015  1.00  0.00    -0.689 A  
HETATM   27  C   UNL     1     -13.654  14.431  71.193  1.00  0.00    -0.338 A  
ENDBRANCH  18  22
ENDBRANCH  16  18
ENDBRANCH  13  14
TORSDOF 3
ENDMDL
MODEL       87
REMARK 921   NORMALIZED FREE ENERGY PREDICTED BY IDOCK:   -4.92 KCAL/MOL
REMARK 922        TOTAL FREE ENERGY PREDICTED BY IDOCK:   -6.48 KCAL/MOL
REMARK 923 INTER-LIGAND FREE ENERGY PREDICTED BY IDOCK:   -5.84 KCAL/MOL
REMARK 924 INTRA-LIGAND FREE ENERGY PREDICTED BY IDOCK:   -0.64 KCAL/MOL
REMARK 927      BINDING AFFINITY PREDICTED BY RF-SCORE:    0.00 PKD
ROOT
HETATM    1  C   UNL     1     -10.835  11.271  67.338  1.00  0.00    -0.262 C  
HETATM    2  S   UNL     1     -11.816  12.379  68.383  1.00  0.00    -0.242 SA 
HETATM    3  C   UNL     1     -11.118  13.876  67.646  1.00  0.00    -0.277 C  
HETATM    4  C   UNL     1      -9.610  13.860  67.510  1.00  0.00    -0.229 C  
HETATM    5 CL   UNL     1      -9.022  15.502  67.411  1.00  0.00    -0.195 Cl 
HETATM    6  CA  UNL     1      -8.822  12.750  67.498  1.00  0.00    -0.187 C  
HETATM    7  N   UNL     1      -9.423  11.521  67.577  1.00  0.00    -0.168 N  
HETATM    8  C   UNL     1      -7.310  12.882  67.433  1.00  0.00    -0.128 C  
HETATM    9  C   UNL     1      -9.088  10.235  67.819  1.00  0.00    -0.134 C  
HETATM   10  O   UNL     1      -6.594  11.743  67.350  1.00  0.00    -0.092 OA 
HETATM   11  OXT UNL     1      -6.715  13.947  67.384  1.00  0.00    -0.233 OA 
HETATM   12  O   UNL     1      -7.999   9.740  67.974  1.00  0.00    -0.096 OA 
HETATM   13  CA  UNL     1     -10.603   9.833  67.903  1.00  0.00    -0.259 C  
ENDROOT
BRANCH  13  14
HETATM   14  N   UNL     1     -11.113   9.591  69.268  1.00  0.00    -0.417 N  
HETATM   15  H   UNL     1     -11.559  10.370  69.753  1.00  0.00     0.000 HD 
HETATM   16  C   UNL     1     -11.028   8.387  69.930  1.00  0.00    -0.166 C  
HETATM   17  O   UNL     1     -10.552   7.377  69.423  1.00  0.00    -0.224 OA 
BRANCH  16  18
HETATM   18  CA  UNL     1     -11.596   8.450  71.371  1.00  0.00    -0.284 C  
HETATM   19  H2  UNL     1     -12.797  10.120  70.939  1.00  0.00     0.000 HD 
HETATM   20  N   UNL     1     -12.114   9.822  71.637  1.00  0.00    -0.398 NA 
HETATM   21  H1  UNL     1     -12.488   9.864  72.586  1.00  0.00     0.000 HD 
BRANCH  18  22
HETATM   22  C   UNL     1     -10.562   8.026  72.397  1.00  0.00    -0.373 A  
HETATM   23  C   UNL     1      -9.329   8.696  72.449  1.00  0.00    -0.284 A  
HETATM   24  C   UNL     1      -8.351   8.324  73.375  1.00  0.00    -0.252 A  
HETATM   25  C   UNL     1      -8.595   7.283  74.267  1.00  0.00    -0.240 A  
HETATM   26  C   UNL     1      -9.819   6.622  74.245  1.00  0.00    -0.353 A  
HETATM   27  C   UNL     1     -10.800   6.996  73.322  1.00  0.00    -0.345 A  
ENDBRANCH  18  22
ENDBRANCH  16  18
ENDBRANCH  13  14
TORSDOF 3
ENDMDL
MODEL       88
REMARK 921   NORMALIZED FREE ENERGY PREDICTED BY IDOCK:   -4.89 KCAL/MOL
REMARK 922        TOTAL FREE ENERGY PREDICTED BY IDOCK:   -6.45 KCAL/MOL
REMARK 923 INTER-LIGAND FREE ENERGY PREDICTED BY IDOCK:   -6.49 KCAL/MOL
REMARK 924 INTRA-LIGAND FREE ENERGY PREDICTED BY IDOCK:    0.05 KCAL/MOL
REMARK 927      BINDING AFFINITY PREDICTED BY RF-SCORE:    0.00 PKD
ROOT
HETATM    1  C   UNL     1     -10.802   5.984  68.964  1.00  0.00    -0.342 C  
HETATM    2  S   UNL     1     -10.952   6.590  67.265  1.00  0.00    -0.361 SA 
HETATM    3  C   UNL     1      -9.900   5.284  66.586  1.00  0.00    -0.179 C  
HETATM    4  C   UNL     1      -8.617   5.054  67.355  1.00  0.00    -0.104 C  
HETATM    5 CL   UNL     1      -7.446   4.286  66.308  1.00  0.00    -0.084 Cl 
HETATM    6  CA  UNL     1      -8.385   5.413  68.648  1.00  0.00    -0.093 C  
HETATM    7  N   UNL     1      -9.401   6.004  69.353  1.00  0.00    -0.131 N  
HETATM    8  C   UNL     1      -7.020   5.191  69.274  1.00  0.00    -0.055 C  
HETATM    9  C   UNL     1      -9.579   6.697  70.498  1.00  0.00    -0.169 C  
HETATM   10  O   UNL     1      -6.881   5.501  70.579  1.00  0.00    -0.045 OA 
HETATM   11  OXT UNL     1      -6.069   4.691  68.692  1.00  0.00    -0.028 OA 
HETATM   12  O   UNL     1      -8.790   6.950  71.375  1.00  0.00    -0.133 OA 
HETATM   13  CA  UNL     1     -11.055   7.041  70.087  1.00  0.00    -0.285 C  
ENDROOT
BRANCH  13  14
HETATM   14  N   UNL     1     -11.270   8.427  69.625  1.00  0.00    -0.445 N  
HETATM   15  H   UNL     1     -11.459   8.573  68.633  1.00  0.00     0.000 HD 
HETATM   16  C   UNL     1     -11.235   9.535  70.441  1.00  0.00    -0.270 C  
HETATM   17  O   UNL     1     -11.061   9.468  71.653  1.00  0.00    -0.371 OA 
BRANCH  16  18
HETATM   18  CA  UNL     1     -11.439  10.861  69.665  1.00  0.00    -0.305 C  
HETATM   19  H2  UNL     1      -9.601  10.681  68.660  1.00  0.00     0.000 HD 
HETATM   20  N   UNL     1     -10.116  11.373  69.206  1.00  0.00    -0.426 NA 
HETATM   21  H1  UNL     1     -10.249  12.246  68.697  1.00  0.00     0.000 HD 
BRANCH  18  22
HETATM   22  C   UNL     1     -12.184  11.887  70.499  1.00  0.00    -0.426 A  
HETATM   23  C   UNL     1     -12.089  13.247  70.164  1.00  0.00    -0.403 A  
HETATM   24  C   UNL     1     -12.754  14.217  70.917  1.00  0.00    -0.427 A  
HETATM   25  C   UNL     1     -13.530  13.842  72.011  1.00  0.00    -0.559 A  
HETATM   26  C   UNL     1     -13.654  12.496  72.345  1.00  0.00    -0.353 A  
HETATM   27  C   UNL     1     -12.992  11.524  71.590  1.00  0.00    -0.499 A  
ENDBRANCH  18  22
ENDBRANCH  16  18
ENDBRANCH  13  14
TORSDOF 3
ENDMDL
MODEL       89
REMARK 921   NORMALIZED FREE ENERGY PREDICTED BY IDOCK:   -4.88 KCAL/MOL
REMARK 922        TOTAL FREE ENERGY PREDICTED BY IDOCK:   -6.44 KCAL/MOL
REMARK 923 INTER-LIGAND FREE ENERGY PREDICTED BY IDOCK:   -5.90 KCAL/MOL
REMARK 924 INTRA-LIGAND FREE ENERGY PREDICTED BY IDOCK:   -0.55 KCAL/MOL
REMARK 927      BINDING AFFINITY PREDICTED BY RF-SCORE:    0.00 PKD
ROOT
HETATM    1  C   UNL     1      -8.683   9.022  65.762  1.00  0.00    -0.169 C  
HETATM    2  S   UNL     1      -7.226   9.910  66.369  1.00  0.00    -0.103 SA 
HETATM    3  C   UNL     1      -6.132   8.483  66.168  1.00  0.00    -0.052 C  
HETATM    4  C   UNL     1      -6.693   7.186  66.712  1.00  0.00    -0.060 C  
HETATM    5 CL   UNL     1      -5.378   6.084  67.045  1.00  0.00    -0.005 Cl 
HETATM    6  CA  UNL     1      -8.008   6.919  66.941  1.00  0.00    -0.109 C  
HETATM    7  N   UNL     1      -8.934   7.878  66.625  1.00  0.00    -0.143 N  
HETATM    8  C   UNL     1      -8.427   5.599  67.565  1.00  0.00    -0.102 C  
HETATM    9  C   UNL     1     -10.233   8.160  66.861  1.00  0.00    -0.316 C  
HETATM   10  O   UNL     1      -9.748   5.369  67.695  1.00  0.00    -0.122 OA 
HETATM   11  OXT UNL     1      -7.649   4.714  67.889  1.00  0.00    -0.076 OA 
HETATM   12  O   UNL     1     -11.071   7.504  67.433  1.00  0.00    -0.159 OA 
HETATM   13  CA  UNL     1     -10.064   9.585  66.227  1.00  0.00    -0.257 C  
ENDROOT
BRANCH  13  14
HETATM   14  N   UNL     1     -10.008  10.700  67.195  1.00  0.00    -0.189 N  
HETATM   15  H   UNL     1      -9.189  10.764  67.798  1.00  0.00     0.000 HD 
HETATM   16  C   UNL     1     -10.986  11.659  67.337  1.00  0.00    -0.261 C  
HETATM   17  O   UNL     1     -11.989  11.701  66.632  1.00  0.00    -0.503 OA 
BRANCH  16  18
HETATM   18  CA  UNL     1     -10.680  12.668  68.472  1.00  0.00    -0.248 C  
HETATM   19  H2  UNL     1      -8.637  12.758  67.987  1.00  0.00     0.000 HD 
HETATM   20  N   UNL     1      -9.228  12.610  68.806  1.00  0.00    -0.400 NA 
HETATM   21  H1  UNL     1      -9.026  13.273  69.554  1.00  0.00     0.000 HD 
BRANCH  18  22
HETATM   22  C   UNL     1     -11.551  12.419  69.690  1.00  0.00    -0.330 A  
HETATM   23  C   UNL     1     -12.107  13.513  70.374  1.00  0.00    -0.415 A  
HETATM   24  C   UNL     1     -12.905  13.319  71.504  1.00  0.00    -0.419 A  
HETATM   25  C   UNL     1     -13.165  12.030  71.962  1.00  0.00    -0.481 A  
HETATM   26  C   UNL     1     -12.641  10.933  71.284  1.00  0.00    -0.526 A  
HETATM   27  C   UNL     1     -11.846  11.125  70.151  1.00  0.00    -0.449 A  
ENDBRANCH  18  22
ENDBRANCH  16  18
ENDBRANCH  13  14
TORSDOF 3
ENDMDL
MODEL       90
REMARK 921   NORMALIZED FREE ENERGY PREDICTED BY IDOCK:   -4.88 KCAL/MOL
REMARK 922        TOTAL FREE ENERGY PREDICTED BY IDOCK:   -6.43 KCAL/MOL
REMARK 923 INTER-LIGAND FREE ENERGY PREDICTED BY IDOCK:   -5.84 KCAL/MOL
REMARK 924 INTRA-LIGAND FREE ENERGY PREDICTED BY IDOCK:   -0.60 KCAL/MOL
REMARK 927      BINDING AFFINITY PREDICTED BY RF-SCORE:    0.00 PKD
ROOT
HETATM    1  C   UNL     1      -8.845  11.432  66.475  1.00  0.00    -0.187 C  
HETATM    2  S   UNL     1      -9.435   9.773  66.054  1.00  0.00    -0.231 SA 
HETATM    3  C   UNL     1     -10.243  10.323  64.532  1.00  0.00    -0.091 C  
HETATM    4  C   UNL     1     -11.086  11.571  64.690  1.00  0.00    -0.250 C  
HETATM    5 CL   UNL     1     -12.272  11.632  63.408  1.00  0.00    -0.462 Cl 
HETATM    6  CA  UNL     1     -10.972  12.491  65.687  1.00  0.00    -0.288 C  
HETATM    7  N   UNL     1      -9.988  12.318  66.625  1.00  0.00    -0.212 N  
HETATM    8  C   UNL     1     -11.938  13.660  65.769  1.00  0.00    -0.395 C  
HETATM    9  C   UNL     1      -9.645  12.791  67.843  1.00  0.00    -0.211 C  
HETATM   10  O   UNL     1     -11.722  14.573  66.736  1.00  0.00    -0.373 OA 
HETATM   11  OXT UNL     1     -12.848  13.856  64.978  1.00  0.00    -0.693 OA 
HETATM   12  O   UNL     1     -10.142  13.679  68.491  1.00  0.00    -0.231 OA 
HETATM   13  CA  UNL     1      -8.543  11.682  67.988  1.00  0.00    -0.152 C  
ENDROOT
BRANCH  13  14
HETATM   14  N   UNL     1      -8.885  10.573  68.901  1.00  0.00    -0.157 N  
HETATM   15  H   UNL     1      -9.813  10.157  68.816  1.00  0.00     0.000 HD 
HETATM   16  C   UNL     1      -8.039  10.062  69.859  1.00  0.00    -0.166 C  
HETATM   17  O   UNL     1      -6.889  10.458  70.015  1.00  0.00    -0.125 OA 
BRANCH  16  18
HETATM   18  CA  UNL     1      -8.693   8.941  70.706  1.00  0.00    -0.206 C  
HETATM   19  H2  UNL     1      -7.388   9.254  72.323  1.00  0.00     0.000 HD 
HETATM   20  N   UNL     1      -7.730   8.483  71.747  1.00  0.00    -0.138 NA 
HETATM   21  H1  UNL     1      -8.160   7.745  72.304  1.00  0.00     0.000 HD 
BRANCH  18  22
HETATM   22  C   UNL     1      -9.175   7.794  69.837  1.00  0.00    -0.146 A  
HETATM   23  C   UNL     1     -10.480   7.302  70.007  1.00  0.00    -0.234 A  
HETATM   24  C   UNL     1     -10.950   6.241  69.231  1.00  0.00    -0.435 A  
HETATM   25  C   UNL     1     -10.128   5.661  68.269  1.00  0.00    -0.217 A  
HETATM   26  C   UNL     1      -8.840   6.149  68.070  1.00  0.00    -0.111 A  
HETATM   27  C   UNL     1      -8.368   7.214  68.843  1.00  0.00    -0.126 A  
ENDBRANCH  18  22
ENDBRANCH  16  18
ENDBRANCH  13  14
TORSDOF 3
ENDMDL
MODEL       91
REMARK 921   NORMALIZED FREE ENERGY PREDICTED BY IDOCK:   -4.86 KCAL/MOL
REMARK 922        TOTAL FREE ENERGY PREDICTED BY IDOCK:   -6.42 KCAL/MOL
REMARK 923 INTER-LIGAND FREE ENERGY PREDICTED BY IDOCK:   -5.95 KCAL/MOL
REMARK 924 INTRA-LIGAND FREE ENERGY PREDICTED BY IDOCK:   -0.46 KCAL/MOL
REMARK 927      BINDING AFFINITY PREDICTED BY RF-SCORE:    0.00 PKD
ROOT
HETATM    1  C   UNL     1      -8.680  12.247  66.895  1.00  0.00    -0.197 C  
HETATM    2  S   UNL     1      -7.168  12.764  67.746  1.00  0.00    -0.149 SA 
HETATM    3  C   UNL     1      -6.540  11.075  67.898  1.00  0.00    -0.062 C  
HETATM    4  C   UNL     1      -7.560  10.073  68.395  1.00  0.00    -0.083 C  
HETATM    5 CL   UNL     1      -6.731   8.702  69.092  1.00  0.00    -0.047 Cl 
HETATM    6  CA  UNL     1      -8.913  10.219  68.343  1.00  0.00    -0.132 C  
HETATM    7  N   UNL     1      -9.426  11.347  67.759  1.00  0.00    -0.162 N  
HETATM    8  C   UNL     1      -9.823   9.165  68.951  1.00  0.00    -0.174 C  
HETATM    9  C   UNL     1     -10.600  12.011  67.679  1.00  0.00    -0.210 C  
HETATM   10  O   UNL     1     -11.151   9.335  68.799  1.00  0.00    -0.066 OA 
HETATM   11  OXT UNL     1      -9.427   8.151  69.503  1.00  0.00    -0.156 OA 
HETATM   12  O   UNL     1     -11.689  11.700  68.095  1.00  0.00    -0.396 OA 
HETATM   13  CA  UNL     1      -9.888  13.233  66.998  1.00  0.00    -0.242 C  
ENDROOT
BRANCH  13  14
HETATM   14  N   UNL     1      -9.685  14.407  67.870  1.00  0.00    -0.219 N  
HETATM   15  H   UNL     1      -8.754  14.552  68.260  1.00  0.00     0.000 HD 
HETATM   16  C   UNL     1     -10.665  15.318  68.193  1.00  0.00    -0.257 C  
HETATM   17  O   UNL     1     -11.805  15.261  67.743  1.00  0.00    -0.287 OA 
BRANCH  16  18
HETATM   18  CA  UNL     1     -10.173  16.411  69.174  1.00  0.00    -0.280 C  
HETATM   19  H2  UNL     1     -11.388  15.707  70.737  1.00  0.00     0.000 HD 
HETATM   20  N   UNL     1     -11.177  16.585  70.263  1.00  0.00    -0.469 NA 
HETATM   21  H1  UNL     1     -10.853  17.305  70.909  1.00  0.00     0.000 HD 
BRANCH  18  22
HETATM   22  C   UNL     1      -9.884  17.717  68.457  1.00  0.00    -0.346 A  
HETATM   23  C   UNL     1      -8.569  18.207  68.422  1.00  0.00    -0.310 A  
HETATM   24  C   UNL     1      -8.271  19.411  67.779  1.00  0.00    -0.324 A  
HETATM   25  C   UNL     1      -9.281  20.137  67.154  1.00  0.00    -0.506 A  
HETATM   26  C   UNL     1     -10.587  19.656  67.159  1.00  0.00    -0.611 A  
HETATM   27  C   UNL     1     -10.886  18.450  67.799  1.00  0.00    -0.268 A  
ENDBRANCH  18  22
ENDBRANCH  16  18
ENDBRANCH  13  14
TORSDOF 3
ENDMDL
MODEL       92
REMARK 921   NORMALIZED FREE ENERGY PREDICTED BY IDOCK:   -4.86 KCAL/MOL
REMARK 922        TOTAL FREE ENERGY PREDICTED BY IDOCK:   -6.41 KCAL/MOL
REMARK 923 INTER-LIGAND FREE ENERGY PREDICTED BY IDOCK:   -7.21 KCAL/MOL
REMARK 924 INTRA-LIGAND FREE ENERGY PREDICTED BY IDOCK:    0.80 KCAL/MOL
REMARK 927      BINDING AFFINITY PREDICTED BY RF-SCORE:    0.00 PKD
ROOT
HETATM    1  C   UNL     1      -9.565  15.859  68.223  1.00  0.00    -0.205 C  
HETATM    2  S   UNL     1      -9.363  14.060  68.160  1.00  0.00    -0.204 SA 
HETATM    3  C   UNL     1      -7.602  14.130  68.569  1.00  0.00    -0.129 C  
HETATM    4  C   UNL     1      -6.819  15.156  67.780  1.00  0.00    -0.170 C  
HETATM    5 CL   UNL     1      -5.128  14.713  67.775  1.00  0.00    -0.050 Cl 
HETATM    6  CA  UNL     1      -7.340  16.241  67.141  1.00  0.00    -0.209 C  
HETATM    7  N   UNL     1      -8.688  16.469  67.237  1.00  0.00    -0.184 N  
HETATM    8  C   UNL     1      -6.446  17.150  66.317  1.00  0.00    -0.131 C  
HETATM    9  C   UNL     1      -9.641  17.217  66.640  1.00  0.00    -0.267 C  
HETATM   10  O   UNL     1      -7.012  18.246  65.774  1.00  0.00    -0.350 OA 
HETATM   11  OXT UNL     1      -5.244  16.987  66.175  1.00  0.00    -0.360 OA 
HETATM   12  O   UNL     1      -9.531  18.068  65.791  1.00  0.00    -0.495 OA 
HETATM   13  CA  UNL     1     -10.766  16.436  67.407  1.00  0.00    -0.278 C  
ENDROOT
BRANCH  13  14
HETATM   14  N   UNL     1     -11.517  15.459  66.595  1.00  0.00    -0.111 N  
HETATM   15  H   UNL     1     -12.077  14.763  67.087  1.00  0.00     0.000 HD 
HETATM   16  C   UNL     1     -11.514  15.422  65.218  1.00  0.00    -0.158 C  
HETATM   17  O   UNL     1     -10.911  16.238  64.529  1.00  0.00    -0.687 OA 
BRANCH  16  18
HETATM   18  CA  UNL     1     -12.349  14.250  64.644  1.00  0.00    -0.415 C  
HETATM   19  H2  UNL     1     -14.122  14.932  65.541  1.00  0.00     0.000 HD 
HETATM   20  N   UNL     1     -13.579  14.071  65.466  1.00  0.00    -0.448 NA 
HETATM   21  H1  UNL     1     -14.129  13.299  65.089  1.00  0.00     0.000 HD 
BRANCH  18  22
HETATM   22  C   UNL     1     -11.533  12.973  64.561  1.00  0.00    -0.389 A  
HETATM   23  C   UNL     1     -11.184  12.301  65.744  1.00  0.00    -0.378 A  
HETATM   24  C   UNL     1     -10.425  11.128  65.703  1.00  0.00    -0.308 A  
HETATM   25  C   UNL     1     -10.013  10.606  64.481  1.00  0.00    -0.410 A  
HETATM   26  C   UNL     1     -10.368  11.246  63.297  1.00  0.00    -0.406 A  
HETATM   27  C   UNL     1     -11.130  12.417  63.335  1.00  0.00    -0.465 A  
ENDBRANCH  18  22
ENDBRANCH  16  18
ENDBRANCH  13  14
TORSDOF 3
ENDMDL
MODEL       93
REMARK 921   NORMALIZED FREE ENERGY PREDICTED BY IDOCK:   -4.83 KCAL/MOL
REMARK 922        TOTAL FREE ENERGY PREDICTED BY IDOCK:   -6.37 KCAL/MOL
REMARK 923 INTER-LIGAND FREE ENERGY PREDICTED BY IDOCK:   -5.89 KCAL/MOL
REMARK 924 INTRA-LIGAND FREE ENERGY PREDICTED BY IDOCK:   -0.48 KCAL/MOL
REMARK 927      BINDING AFFINITY PREDICTED BY RF-SCORE:    0.00 PKD
ROOT
HETATM    1  C   UNL     1      -9.141  14.974  66.153  1.00  0.00    -0.202 C  
HETATM    2  S   UNL     1     -10.862  14.898  65.597  1.00  0.00    -0.360 SA 
HETATM    3  C   UNL     1     -10.900  16.639  65.107  1.00  0.00    -0.186 C  
HETATM    4  C   UNL     1     -10.322  17.588  66.135  1.00  0.00    -0.329 C  
HETATM    5 CL   UNL     1     -10.968  19.190  65.868  1.00  0.00    -0.276 Cl 
HETATM    6  CA  UNL     1      -9.460  17.255  67.135  1.00  0.00    -0.256 C  
HETATM    7  N   UNL     1      -9.030  15.956  67.220  1.00  0.00    -0.190 N  
HETATM    8  C   UNL     1      -9.018  18.296  68.148  1.00  0.00    -0.302 C  
HETATM    9  C   UNL     1      -8.408  15.143  68.100  1.00  0.00    -0.147 C  
HETATM   10  O   UNL     1      -8.107  17.917  69.066  1.00  0.00    -0.184 OA 
HETATM   11  OXT UNL     1      -9.383  19.462  68.139  1.00  0.00    -0.316 OA 
HETATM   12  O   UNL     1      -7.921  15.401  69.174  1.00  0.00    -0.186 OA 
HETATM   13  CA  UNL     1      -8.717  13.895  67.200  1.00  0.00    -0.221 C  
ENDROOT
BRANCH  13  14
HETATM   14  N   UNL     1      -9.801  13.020  67.693  1.00  0.00    -0.207 N  
HETATM   15  H   UNL     1     -10.759  13.268  67.448  1.00  0.00     0.000 HD 
HETATM   16  C   UNL     1      -9.606  11.892  68.458  1.00  0.00    -0.157 C  
HETATM   17  O   UNL     1      -8.494  11.480  68.770  1.00  0.00    -0.137 OA 
BRANCH  16  18
HETATM   18  CA  UNL     1     -10.933  11.209  68.875  1.00  0.00    -0.225 C  
HETATM   19  H2  UNL     1     -11.458  12.778  70.172  1.00  0.00     0.000 HD 
HETATM   20  N   UNL     1     -11.381  11.760  70.186  1.00  0.00    -0.497 NA 
HETATM   21  H1  UNL     1     -12.254  11.310  70.460  1.00  0.00     0.000 HD 
BRANCH  18  22
HETATM   22  C   UNL     1     -10.795   9.699  68.913  1.00  0.00    -0.201 A  
HETATM   23  C   UNL     1     -10.624   8.993  67.710  1.00  0.00    -0.278 A  
HETATM   24  C   UNL     1     -10.505   7.601  67.710  1.00  0.00    -0.282 A  
HETATM   25  C   UNL     1     -10.546   6.896  68.909  1.00  0.00    -0.244 A  
HETATM   26  C   UNL     1     -10.692   7.580  70.112  1.00  0.00    -0.248 A  
HETATM   27  C   UNL     1     -10.808   8.973  70.116  1.00  0.00    -0.261 A  
ENDBRANCH  18  22
ENDBRANCH  16  18
ENDBRANCH  13  14
TORSDOF 3
ENDMDL
MODEL       94
REMARK 921   NORMALIZED FREE ENERGY PREDICTED BY IDOCK:   -4.83 KCAL/MOL
REMARK 922        TOTAL FREE ENERGY PREDICTED BY IDOCK:   -6.37 KCAL/MOL
REMARK 923 INTER-LIGAND FREE ENERGY PREDICTED BY IDOCK:   -5.77 KCAL/MOL
REMARK 924 INTRA-LIGAND FREE ENERGY PREDICTED BY IDOCK:   -0.60 KCAL/MOL
REMARK 927      BINDING AFFINITY PREDICTED BY RF-SCORE:    0.00 PKD
ROOT
HETATM    1  C   UNL     1      -9.943   8.856  68.166  1.00  0.00    -0.176 C  
HETATM    2  S   UNL     1      -8.223   9.345  67.882  1.00  0.00    -0.115 SA 
HETATM    3  C   UNL     1      -7.572   8.190  69.112  1.00  0.00    -0.096 C  
HETATM    4  C   UNL     1      -8.310   8.206  70.434  1.00  0.00    -0.120 C  
HETATM    5 CL   UNL     1      -7.264   7.582  71.687  1.00  0.00    -0.066 Cl 
HETATM    6  CA  UNL     1      -9.578   8.661  70.635  1.00  0.00    -0.186 C  
HETATM    7  N   UNL     1     -10.287   9.117  69.555  1.00  0.00    -0.209 N  
HETATM    8  C   UNL     1     -10.171   8.690  72.033  1.00  0.00    -0.337 C  
HETATM    9  C   UNL     1     -11.404   9.829  69.295  1.00  0.00    -0.014 C  
HETATM   10  O   UNL     1     -11.455   9.082  72.151  1.00  0.00    -0.355 OA 
HETATM   11  OXT UNL     1      -9.583   8.319  73.037  1.00  0.00    -0.272 OA 
HETATM   12  O   UNL     1     -12.244  10.248  70.054  1.00  0.00    -0.217 OA 
HETATM   13  CA  UNL     1     -11.024   9.913  67.774  1.00  0.00    -0.217 C  
ENDROOT
BRANCH  13  14
HETATM   14  N   UNL     1     -10.507  11.223  67.329  1.00  0.00    -0.204 N  
HETATM   15  H   UNL     1      -9.536  11.448  67.545  1.00  0.00     0.000 HD 
HETATM   16  C   UNL     1     -11.245  12.160  66.641  1.00  0.00    -0.324 C  
HETATM   17  O   UNL     1     -12.405  11.972  66.292  1.00  0.00    -0.432 OA 
BRANCH  16  18
HETATM   18  CA  UNL     1     -10.453  13.462  66.359  1.00  0.00    -0.286 C  
HETATM   19  H2  UNL     1      -8.914  12.438  65.360  1.00  0.00     0.000 HD 
HETATM   20  N   UNL     1      -9.023  13.126  66.106  1.00  0.00    -0.438 NA 
HETATM   21  H1  UNL     1      -8.502  13.983  65.921  1.00  0.00     0.000 HD 
BRANCH  18  22
HETATM   22  C   UNL     1     -10.607  14.464  67.488  1.00  0.00    -0.265 A  
HETATM   23  C   UNL     1      -9.473  15.139  67.970  1.00  0.00    -0.199 A  
HETATM   24  C   UNL     1      -9.579  16.060  69.015  1.00  0.00    -0.247 A  
HETATM   25  C   UNL     1     -10.819  16.326  69.588  1.00  0.00    -0.345 A  
HETATM   26  C   UNL     1     -11.958  15.684  69.109  1.00  0.00    -0.329 A  
HETATM   27  C   UNL     1     -11.855  14.765  68.061  1.00  0.00    -0.324 A  
ENDBRANCH  18  22
ENDBRANCH  16  18
ENDBRANCH  13  14
TORSDOF 3
ENDMDL
MODEL       95
REMARK 921   NORMALIZED FREE ENERGY PREDICTED BY IDOCK:   -4.80 KCAL/MOL
REMARK 922        TOTAL FREE ENERGY PREDICTED BY IDOCK:   -6.35 KCAL/MOL
REMARK 923 INTER-LIGAND FREE ENERGY PREDICTED BY IDOCK:   -5.81 KCAL/MOL
REMARK 924 INTRA-LIGAND FREE ENERGY PREDICTED BY IDOCK:   -0.54 KCAL/MOL
REMARK 927      BINDING AFFINITY PREDICTED BY RF-SCORE:    0.00 PKD
ROOT
HETATM    1  C   UNL     1     -10.627  13.234  67.572  1.00  0.00    -0.246 C  
HETATM    2  S   UNL     1     -12.020  14.032  68.409  1.00  0.00    -0.295 SA 
HETATM    3  C   UNL     1     -11.350  15.697  68.182  1.00  0.00    -0.340 C  
HETATM    4  C   UNL     1      -9.884  15.832  68.536  1.00  0.00    -0.209 C  
HETATM    5 CL   UNL     1      -9.528  17.506  68.893  1.00  0.00    -0.232 Cl 
HETATM    6  CA  UNL     1      -8.982  14.815  68.601  1.00  0.00    -0.185 C  
HETATM    7  N   UNL     1      -9.401  13.548  68.287  1.00  0.00    -0.208 N  
HETATM    8  C   UNL     1      -7.554  15.081  69.046  1.00  0.00    -0.160 C  
HETATM    9  C   UNL     1      -8.978  12.273  68.416  1.00  0.00    -0.141 C  
HETATM   10  O   UNL     1      -6.694  14.044  69.017  1.00  0.00    -0.099 OA 
HETATM   11  OXT UNL     1      -7.126  16.181  69.360  1.00  0.00    -0.215 OA 
HETATM   12  O   UNL     1      -7.927  11.848  68.831  1.00  0.00    -0.079 OA 
HETATM   13  CA  UNL     1     -10.377  11.738  67.945  1.00  0.00    -0.193 C  
ENDROOT
BRANCH  13  14
HETATM   14  N   UNL     1     -11.234  11.194  69.018  1.00  0.00    -0.231 N  
HETATM   15  H   UNL     1     -11.890  11.830  69.471  1.00  0.00     0.000 HD 
HETATM   16  C   UNL     1     -11.209   9.886  69.448  1.00  0.00    -0.153 C  
HETATM   17  O   UNL     1     -10.492   9.030  68.943  1.00  0.00    -0.216 OA 
BRANCH  16  18
HETATM   18  CA  UNL     1     -12.178   9.621  70.628  1.00  0.00    -0.161 C  
HETATM   19  H2  UNL     1     -12.596  11.665  70.884  1.00  0.00     0.000 HD 
HETATM   20  N   UNL     1     -12.312  10.861  71.445  1.00  0.00    -0.331 NA 
HETATM   21  H1  UNL     1     -12.949  10.686  72.222  1.00  0.00     0.000 HD 
BRANCH  18  22
HETATM   22  C   UNL     1     -11.729   8.437  71.464  1.00  0.00    -0.341 A  
HETATM   23  C   UNL     1     -10.615   8.574  72.308  1.00  0.00    -0.408 A  
HETATM   24  C   UNL     1     -10.169   7.501  73.084  1.00  0.00    -0.382 A  
HETATM   25  C   UNL     1     -10.834   6.279  73.033  1.00  0.00    -0.286 A  
HETATM   26  C   UNL     1     -11.954   6.132  72.219  1.00  0.00    -0.285 A  
HETATM   27  C   UNL     1     -12.404   7.205  71.446  1.00  0.00    -0.415 A  
ENDBRANCH  18  22
ENDBRANCH  16  18
ENDBRANCH  13  14
TORSDOF 3
ENDMDL
MODEL       96
REMARK 921   NORMALIZED FREE ENERGY PREDICTED BY IDOCK:   -4.80 KCAL/MOL
REMARK 922        TOTAL FREE ENERGY PREDICTED BY IDOCK:   -6.34 KCAL/MOL
REMARK 923 INTER-LIGAND FREE ENERGY PREDICTED BY IDOCK:   -5.72 KCAL/MOL
REMARK 924 INTRA-LIGAND FREE ENERGY PREDICTED BY IDOCK:   -0.62 KCAL/MOL
REMARK 927      BINDING AFFINITY PREDICTED BY RF-SCORE:    0.00 PKD
ROOT
HETATM    1  C   UNL     1      -8.057  11.290  66.656  1.00  0.00    -0.160 C  
HETATM    2  S   UNL     1      -7.247  12.758  67.338  1.00  0.00    -0.095 SA 
HETATM    3  C   UNL     1      -6.343  11.817  68.591  1.00  0.00    -0.057 C  
HETATM    4  C   UNL     1      -7.189  10.815  69.348  1.00  0.00    -0.132 C  
HETATM    5 CL   UNL     1      -6.426  10.458  70.880  1.00  0.00     0.043 Cl 
HETATM    6  CA  UNL     1      -8.374  10.292  68.929  1.00  0.00    -0.136 C  
HETATM    7  N   UNL     1      -8.850  10.658  67.698  1.00  0.00    -0.131 N  
HETATM    8  C   UNL     1      -9.159   9.352  69.827  1.00  0.00    -0.193 C  
HETATM    9  C   UNL     1      -9.998  10.600  66.989  1.00  0.00    -0.202 C  
HETATM   10  O   UNL     1     -10.286   8.812  69.321  1.00  0.00    -0.200 OA 
HETATM   11  OXT UNL     1      -8.799   9.005  70.942  1.00  0.00    -0.203 OA 
HETATM   12  O   UNL     1     -11.043  10.059  67.261  1.00  0.00    -0.229 OA 
HETATM   13  CA  UNL     1      -9.396  11.546  65.892  1.00  0.00    -0.226 C  
ENDROOT
BRANCH  13  14
HETATM   14  N   UNL     1      -9.893  12.936  65.920  1.00  0.00    -0.343 N  
HETATM   15  H   UNL     1      -9.330  13.632  66.408  1.00  0.00     0.000 HD 
HETATM   16  C   UNL     1     -11.065  13.357  65.332  1.00  0.00    -0.287 C  
HETATM   17  O   UNL     1     -11.792  12.613  64.683  1.00  0.00    -0.342 OA 
BRANCH  16  18
HETATM   18  CA  UNL     1     -11.356  14.860  65.576  1.00  0.00    -0.339 C  
HETATM   19  H2  UNL     1     -10.809  15.395  63.619  1.00  0.00     0.000 HD 
HETATM   20  N   UNL     1     -10.607  15.676  64.579  1.00  0.00    -0.682 NA 
HETATM   21  H1  UNL     1     -10.799  16.665  64.741  1.00  0.00     0.000 HD 
BRANCH  18  22
HETATM   22  C   UNL     1     -11.029  15.266  67.001  1.00  0.00    -0.324 A  
HETATM   23  C   UNL     1     -11.769  14.716  68.061  1.00  0.00    -0.371 A  
HETATM   24  C   UNL     1     -11.501  15.078  69.384  1.00  0.00    -0.320 A  
HETATM   25  C   UNL     1     -10.484  15.986  69.667  1.00  0.00    -0.300 A  
HETATM   26  C   UNL     1      -9.726  16.524  68.631  1.00  0.00    -0.247 A  
HETATM   27  C   UNL     1      -9.991  16.161  67.307  1.00  0.00    -0.248 A  
ENDBRANCH  18  22
ENDBRANCH  16  18
ENDBRANCH  13  14
TORSDOF 3
ENDMDL
MODEL       97
REMARK 921   NORMALIZED FREE ENERGY PREDICTED BY IDOCK:   -4.78 KCAL/MOL
REMARK 922        TOTAL FREE ENERGY PREDICTED BY IDOCK:   -6.32 KCAL/MOL
REMARK 923 INTER-LIGAND FREE ENERGY PREDICTED BY IDOCK:   -5.77 KCAL/MOL
REMARK 924 INTRA-LIGAND FREE ENERGY PREDICTED BY IDOCK:   -0.56 KCAL/MOL
REMARK 927      BINDING AFFINITY PREDICTED BY RF-SCORE:    0.00 PKD
ROOT
HETATM    1  C   UNL     1      -8.405   8.243  67.790  1.00  0.00    -0.128 C  
HETATM    2  S   UNL     1     -10.007   8.556  68.574  1.00  0.00    -0.189 SA 
HETATM    3  C   UNL     1      -9.948   7.042  69.561  1.00  0.00    -0.162 C  
HETATM    4  C   UNL     1      -9.547   5.806  68.783  1.00  0.00    -0.127 C  
HETATM    5 CL   UNL     1     -10.126   4.385  69.620  1.00  0.00    -0.204 Cl 
HETATM    6  CA  UNL     1      -8.870   5.791  67.602  1.00  0.00    -0.105 C  
HETATM    7  N   UNL     1      -8.471   6.986  67.063  1.00  0.00    -0.120 N  
HETATM    8  C   UNL     1      -8.600   4.478  66.888  1.00  0.00    -0.104 C  
HETATM    9  C   UNL     1      -8.013   7.473  65.890  1.00  0.00    -0.117 C  
HETATM   10  O   UNL     1      -7.862   4.528  65.762  1.00  0.00    -0.093 OA 
HETATM   11  OXT UNL     1      -8.950   3.384  67.305  1.00  0.00    -0.124 OA 
HETATM   12  O   UNL     1      -7.715   6.888  64.877  1.00  0.00    -0.098 OA 
HETATM   13  CA  UNL     1      -8.174   8.944  66.413  1.00  0.00    -0.115 C  
ENDROOT
BRANCH  13  14
HETATM   14  N   UNL     1      -9.331   9.682  65.868  1.00  0.00    -0.199 N  
HETATM   15  H   UNL     1     -10.196   9.675  66.408  1.00  0.00     0.000 HD 
HETATM   16  C   UNL     1      -9.323  10.378  64.680  1.00  0.00    -0.254 C  
HETATM   17  O   UNL     1      -8.325  10.487  63.976  1.00  0.00    -0.161 OA 
BRANCH  16  18
HETATM   18  CA  UNL     1     -10.700  11.002  64.337  1.00  0.00    -0.269 C  
HETATM   19  H2  UNL     1     -10.685  10.227  62.383  1.00  0.00     0.000 HD 
HETATM   20  N   UNL     1     -10.834  11.119  62.857  1.00  0.00    -0.806 NA 
HETATM   21  H1  UNL     1     -11.740  11.530  62.631  1.00  0.00     0.000 HD 
BRANCH  18  22
HETATM   22  C   UNL     1     -10.896  12.337  65.031  1.00  0.00    -0.337 A  
HETATM   23  C   UNL     1     -10.333  13.494  64.468  1.00  0.00    -0.381 A  
HETATM   24  C   UNL     1     -10.485  14.737  65.087  1.00  0.00    -0.443 A  
HETATM   25  C   UNL     1     -11.209  14.843  66.271  1.00  0.00    -0.331 A  
HETATM   26  C   UNL     1     -11.793  13.711  66.832  1.00  0.00    -0.451 A  
HETATM   27  C   UNL     1     -11.645  12.467  66.212  1.00  0.00    -0.449 A  
ENDBRANCH  18  22
ENDBRANCH  16  18
ENDBRANCH  13  14
TORSDOF 3
ENDMDL
MODEL       98
REMARK 921   NORMALIZED FREE ENERGY PREDICTED BY IDOCK:   -4.78 KCAL/MOL
REMARK 922        TOTAL FREE ENERGY PREDICTED BY IDOCK:   -6.32 KCAL/MOL
REMARK 923 INTER-LIGAND FREE ENERGY PREDICTED BY IDOCK:   -5.89 KCAL/MOL
REMARK 924 INTRA-LIGAND FREE ENERGY PREDICTED BY IDOCK:   -0.43 KCAL/MOL
REMARK 927      BINDING AFFINITY PREDICTED BY RF-SCORE:    0.00 PKD
ROOT
HETATM    1  C   UNL     1      -9.276   7.933  69.436  1.00  0.00    -0.145 C  
HETATM    2  S   UNL     1      -7.644   8.708  69.557  1.00  0.00    -0.090 SA 
HETATM    3  C   UNL     1      -7.092   7.604  70.879  1.00  0.00    -0.054 C  
HETATM    4  C   UNL     1      -8.094   7.425  72.000  1.00  0.00    -0.094 C  
HETATM    5 CL   UNL     1      -7.257   6.907  73.445  1.00  0.00    -0.075 Cl 
HETATM    6  CA  UNL     1      -9.433   7.658  71.919  1.00  0.00    -0.146 C  
HETATM    7  N   UNL     1      -9.955   8.056  70.716  1.00  0.00    -0.187 N  
HETATM    8  C   UNL     1     -10.314   7.512  73.148  1.00  0.00    -0.347 C  
HETATM    9  C   UNL     1     -11.092   8.592  70.225  1.00  0.00    -0.217 C  
HETATM   10  O   UNL     1     -11.640   7.684  72.980  1.00  0.00    -0.298 OA 
HETATM   11  OXT UNL     1      -9.906   7.183  74.251  1.00  0.00    -0.267 OA 
HETATM   12  O   UNL     1     -12.136   8.826  70.784  1.00  0.00    -0.218 OA 
HETATM   13  CA  UNL     1     -10.408   8.824  68.831  1.00  0.00    -0.212 C  
ENDROOT
BRANCH  13  14
HETATM   14  N   UNL     1     -10.035  10.223  68.540  1.00  0.00    -0.159 N  
HETATM   15  H   UNL     1      -9.846  10.838  69.331  1.00  0.00     0.000 HD 
HETATM   16  C   UNL     1      -9.926  10.754  67.275  1.00  0.00    -0.187 C  
HETATM   17  O   UNL     1     -10.088  10.091  66.256  1.00  0.00    -0.234 OA 
BRANCH  16  18
HETATM   18  CA  UNL     1      -9.576  12.264  67.282  1.00  0.00    -0.187 C  
HETATM   19  H2  UNL     1      -8.991  12.228  69.300  1.00  0.00     0.000 HD 
HETATM   20  N   UNL     1      -9.600  12.768  68.685  1.00  0.00    -0.412 NA 
HETATM   21  H1  UNL     1      -9.371  13.762  68.690  1.00  0.00     0.000 HD 
BRANCH  18  22
HETATM   22  C   UNL     1     -10.505  13.055  66.380  1.00  0.00    -0.285 A  
HETATM   23  C   UNL     1      -9.962  13.999  65.492  1.00  0.00    -0.302 A  
HETATM   24  C   UNL     1     -10.789  14.752  64.655  1.00  0.00    -0.312 A  
HETATM   25  C   UNL     1     -12.169  14.567  64.687  1.00  0.00    -0.474 A  
HETATM   26  C   UNL     1     -12.723  13.621  65.545  1.00  0.00    -0.514 A  
HETATM   27  C   UNL     1     -11.896  12.864  66.380  1.00  0.00    -0.478 A  
ENDBRANCH  18  22
ENDBRANCH  16  18
ENDBRANCH  13  14
TORSDOF 3
ENDMDL
MODEL       99
REMARK 921   NORMALIZED FREE ENERGY PREDICTED BY IDOCK:   -4.78 KCAL/MOL
REMARK 922        TOTAL FREE ENERGY PREDICTED BY IDOCK:   -6.32 KCAL/MOL
REMARK 923 INTER-LIGAND FREE ENERGY PREDICTED BY IDOCK:   -5.64 KCAL/MOL
REMARK 924 INTRA-LIGAND FREE ENERGY PREDICTED BY IDOCK:   -0.67 KCAL/MOL
REMARK 927      BINDING AFFINITY PREDICTED BY RF-SCORE:    0.00 PKD
ROOT
HETATM    1  C   UNL     1     -10.586  10.605  65.836  1.00  0.00    -0.108 C  
HETATM    2  S   UNL     1      -9.920  11.012  64.202  1.00  0.00    -0.359 SA 
HETATM    3  C   UNL     1      -8.736   9.643  64.219  1.00  0.00    -0.206 C  
HETATM    4  C   UNL     1      -7.954   9.512  65.508  1.00  0.00    -0.112 C  
HETATM    5 CL   UNL     1      -6.474   8.637  65.198  1.00  0.00    -0.063 Cl 
HETATM    6  CA  UNL     1      -8.319  10.017  66.719  1.00  0.00    -0.125 C  
HETATM    7  N   UNL     1      -9.516  10.678  66.816  1.00  0.00    -0.160 N  
HETATM    8  C   UNL     1      -7.399   9.878  67.919  1.00  0.00    -0.088 C  
HETATM    9  C   UNL     1     -10.162  11.496  67.674  1.00  0.00    -0.184 C  
HETATM   10  O   UNL     1      -7.854  10.335  69.102  1.00  0.00    -0.104 OA 
HETATM   11  OXT UNL     1      -6.312   9.321  67.891  1.00  0.00    -0.057 OA 
HETATM   12  O   UNL     1      -9.846  11.853  68.783  1.00  0.00    -0.169 OA 
HETATM   13  CA  UNL     1     -11.272  11.781  66.602  1.00  0.00    -0.323 C  
ENDROOT
BRANCH  13  14
HETATM   14  N   UNL     1     -11.190  13.104  65.950  1.00  0.00    -0.286 N  
HETATM   15  H   UNL     1     -10.862  13.138  64.985  1.00  0.00     0.000 HD 
HETATM   16  C   UNL     1     -11.525  14.294  66.556  1.00  0.00    -0.360 C  
HETATM   17  O   UNL     1     -11.970  14.362  67.696  1.00  0.00    -0.377 OA 
BRANCH  16  18
HETATM   18  CA  UNL     1     -11.280  15.524  65.645  1.00  0.00    -0.155 C  
HETATM   19  H2  UNL     1     -11.831  14.481  63.906  1.00  0.00     0.000 HD 
HETATM   20  N   UNL     1     -11.065  15.065  64.243  1.00  0.00    -0.621 NA 
HETATM   21  H1  UNL     1     -10.903  15.874  63.644  1.00  0.00     0.000 HD 
BRANCH  18  22
HETATM   22  C   UNL     1     -10.125  16.370  66.148  1.00  0.00    -0.364 A  
HETATM   23  C   UNL     1     -10.394  17.564  66.836  1.00  0.00    -0.315 A  
HETATM   24  C   UNL     1      -9.353  18.370  67.303  1.00  0.00    -0.271 A  
HETATM   25  C   UNL     1      -8.029  17.991  67.096  1.00  0.00    -0.224 A  
HETATM   26  C   UNL     1      -7.744  16.800  66.435  1.00  0.00    -0.345 A  
HETATM   27  C   UNL     1      -8.784  15.990  65.971  1.00  0.00    -0.267 A  
ENDBRANCH  18  22
ENDBRANCH  16  18
ENDBRANCH  13  14
TORSDOF 3
ENDMDL
MODEL      100
REMARK 921   NORMALIZED FREE ENERGY PREDICTED BY IDOCK:   -4.74 KCAL/MOL
REMARK 922        TOTAL FREE ENERGY PREDICTED BY IDOCK:   -6.27 KCAL/MOL
REMARK 923 INTER-LIGAND FREE ENERGY PREDICTED BY IDOCK:   -5.70 KCAL/MOL
REMARK 924 INTRA-LIGAND FREE ENERGY PREDICTED BY IDOCK:   -0.57 KCAL/MOL
REMARK 927      BINDING AFFINITY PREDICTED BY RF-SCORE:    0.00 PKD
ROOT
HETATM    1  C   UNL     1     -11.859  11.991  67.790  1.00  0.00    -0.238 C  
HETATM    2  S   UNL     1     -11.133  10.770  68.914  1.00  0.00    -0.276 SA 
HETATM    3  C   UNL     1     -12.248  11.192  70.274  1.00  0.00    -0.352 C  
HETATM    4  C   UNL     1     -12.393  12.678  70.523  1.00  0.00    -0.268 C  
HETATM    5 CL   UNL     1     -12.931  12.937  72.166  1.00  0.00    -0.394 Cl 
HETATM    6  CA  UNL     1     -12.120  13.668  69.630  1.00  0.00    -0.321 C  
HETATM    7  N   UNL     1     -11.711  13.316  68.370  1.00  0.00    -0.334 N  
HETATM    8  C   UNL     1     -12.236  15.126  70.039  1.00  0.00    -0.338 C  
HETATM    9  C   UNL     1     -11.142  13.885  67.286  1.00  0.00    -0.299 C  
HETATM   10  O   UNL     1     -12.024  16.054  69.085  1.00  0.00    -0.340 OA 
HETATM   11  OXT UNL     1     -12.573  15.503  71.151  1.00  0.00    -0.384 OA 
HETATM   12  O   UNL     1     -10.875  15.043  67.076  1.00  0.00    -0.299 OA 
HETATM   13  CA  UNL     1     -10.936  12.476  66.626  1.00  0.00    -0.266 C  
ENDROOT
BRANCH  13  14
HETATM   14  N   UNL     1      -9.550  11.967  66.654  1.00  0.00    -0.211 N  
HETATM   15  H   UNL     1      -8.949  12.267  67.421  1.00  0.00     0.000 HD 
HETATM   16  C   UNL     1      -9.013  11.116  65.714  1.00  0.00    -0.196 C  
HETATM   17  O   UNL     1      -9.660  10.660  64.778  1.00  0.00    -0.230 OA 
BRANCH  16  18
HETATM   18  CA  UNL     1      -7.517  10.800  65.972  1.00  0.00    -0.125 C  
HETATM   19  H2  UNL     1      -6.915  11.636  64.140  1.00  0.00     0.000 HD 
HETATM   20  N   UNL     1      -6.788  10.775  64.672  1.00  0.00    -0.342 NA 
HETATM   21  H1  UNL     1      -5.804  10.566  64.841  1.00  0.00     0.000 HD 
BRANCH  18  22
HETATM   22  C   UNL     1      -7.345   9.505  66.743  1.00  0.00    -0.090 A  
HETATM   23  C   UNL     1      -7.308   8.287  66.044  1.00  0.00    -0.080 A  
HETATM   24  C   UNL     1      -7.161   7.076  66.724  1.00  0.00    -0.082 A  
HETATM   25  C   UNL     1      -7.041   7.064  68.111  1.00  0.00    -0.085 A  
HETATM   26  C   UNL     1      -7.053   8.263  68.819  1.00  0.00    -0.071 A  
HETATM   27  C   UNL     1      -7.196   9.476  68.139  1.00  0.00    -0.080 A  
ENDBRANCH  18  22
ENDBRANCH  16  18
ENDBRANCH  13  14
TORSDOF 3
ENDMDL
MODEL      101
REMARK 921   NORMALIZED FREE ENERGY PREDICTED BY IDOCK:   -4.72 KCAL/MOL
REMARK 922        TOTAL FREE ENERGY PREDICTED BY IDOCK:   -6.25 KCAL/MOL
REMARK 923 INTER-LIGAND FREE ENERGY PREDICTED BY IDOCK:   -6.03 KCAL/MOL
REMARK 924 INTRA-LIGAND FREE ENERGY PREDICTED BY IDOCK:   -0.21 KCAL/MOL
REMARK 927      BINDING AFFINITY PREDICTED BY RF-SCORE:    0.00 PKD
ROOT
HETATM    1  C   UNL     1      -9.933  11.932  67.141  1.00  0.00    -0.194 C  
HETATM    2  S   UNL     1     -10.740  11.978  65.521  1.00  0.00    -0.286 SA 
HETATM    3  C   UNL     1     -10.084  10.368  65.021  1.00  0.00    -0.309 C  
HETATM    4  C   UNL     1      -8.605  10.187  65.291  1.00  0.00    -0.158 C  
HETATM    5 CL   UNL     1      -7.975   8.942  64.239  1.00  0.00    -0.138 Cl 
HETATM    6  CA  UNL     1      -7.863  10.897  66.185  1.00  0.00    -0.144 C  
HETATM    7  N   UNL     1      -8.494  11.843  66.951  1.00  0.00    -0.173 N  
HETATM    8  C   UNL     1      -6.367  10.665  66.299  1.00  0.00    -0.119 C  
HETATM    9  C   UNL     1      -8.179  12.885  67.750  1.00  0.00    -0.174 C  
HETATM   10  O   UNL     1      -5.707  11.348  67.255  1.00  0.00    -0.058 OA 
HETATM   11  OXT UNL     1      -5.744   9.855  65.630  1.00  0.00    -0.053 OA 
HETATM   12  O   UNL     1      -7.097  13.271  68.119  1.00  0.00    -0.086 OA 
HETATM   13  CA  UNL     1      -9.686  13.319  67.816  1.00  0.00    -0.217 C  
ENDROOT
BRANCH  13  14
HETATM   14  N   UNL     1     -10.036  14.499  67.001  1.00  0.00    -0.251 N  
HETATM   15  H   UNL     1      -9.678  14.540  66.047  1.00  0.00     0.000 HD 
HETATM   16  C   UNL     1     -10.811  15.549  67.441  1.00  0.00    -0.312 C  
HETATM   17  O   UNL     1     -11.326  15.579  68.553  1.00  0.00    -0.313 OA 
BRANCH  16  18
HETATM   18  CA  UNL     1     -10.959  16.673  66.384  1.00  0.00     0.120 C  
HETATM   19  H2  UNL     1     -10.781  15.332  64.776  1.00  0.00     0.000 HD 
HETATM   20  N   UNL     1     -10.377  16.214  65.091  1.00  0.00    -0.584 NA 
HETATM   21  H1  UNL     1     -10.474  16.954  64.396  1.00  0.00     0.000 HD 
BRANCH  18  22
HETATM   22  C   UNL     1     -10.333  17.971  66.859  1.00  0.00    -0.377 A  
HETATM   23  C   UNL     1     -10.382  19.103  66.029  1.00  0.00    -0.538 A  
HETATM   24  C   UNL     1      -9.806  20.310  66.431  1.00  0.00    -0.502 A  
HETATM   25  C   UNL     1      -9.181  20.406  67.671  1.00  0.00    -0.413 A  
HETATM   26  C   UNL     1      -9.141  19.301  68.517  1.00  0.00    -0.425 A  
HETATM   27  C   UNL     1      -9.721  18.093  68.118  1.00  0.00    -0.331 A  
ENDBRANCH  18  22
ENDBRANCH  16  18
ENDBRANCH  13  14
TORSDOF 3
ENDMDL
MODEL      102
REMARK 921   NORMALIZED FREE ENERGY PREDICTED BY IDOCK:   -4.72 KCAL/MOL
REMARK 922        TOTAL FREE ENERGY PREDICTED BY IDOCK:   -6.25 KCAL/MOL
REMARK 923 INTER-LIGAND FREE ENERGY PREDICTED BY IDOCK:   -5.83 KCAL/MOL
REMARK 924 INTRA-LIGAND FREE ENERGY PREDICTED BY IDOCK:   -0.41 KCAL/MOL
REMARK 927      BINDING AFFINITY PREDICTED BY RF-SCORE:    0.00 PKD
ROOT
HETATM    1  C   UNL     1     -11.466  16.046  66.762  1.00  0.00     0.371 C  
HETATM    2  S   UNL     1     -10.376  15.809  65.336  1.00  0.00    -0.357 SA 
HETATM    3  C   UNL     1     -11.284  14.363  64.739  1.00  0.00    -0.387 C  
HETATM    4  C   UNL     1     -11.606  13.343  65.811  1.00  0.00    -0.332 C  
HETATM    5 CL   UNL     1     -11.878  11.787  65.063  1.00  0.00    -0.197 Cl 
HETATM    6  CA  UNL     1     -11.649  13.580  67.151  1.00  0.00    -0.357 C  
HETATM    7  N   UNL     1     -11.420  14.856  67.596  1.00  0.00    -0.345 N  
HETATM    8  C   UNL     1     -11.910  12.443  68.124  1.00  0.00    -0.315 C  
HETATM    9  C   UNL     1     -11.145  15.499  68.751  1.00  0.00    -0.291 C  
HETATM   10  O   UNL     1     -12.013  12.760  69.430  1.00  0.00    -0.301 OA 
HETATM   11  OXT UNL     1     -12.098  11.283  67.791  1.00  0.00    -0.631 OA 
HETATM   12  O   UNL     1     -11.097  15.070  69.878  1.00  0.00    -0.255 OA 
HETATM   13  CA  UNL     1     -10.847  16.826  67.967  1.00  0.00    -0.341 C  
ENDROOT
BRANCH  13  14
HETATM   14  N   UNL     1      -9.417  17.172  67.839  1.00  0.00    -0.252 N  
HETATM   15  H   UNL     1      -8.798  16.482  67.416  1.00  0.00     0.000 HD 
HETATM   16  C   UNL     1      -8.864  18.363  68.252  1.00  0.00    -0.305 C  
HETATM   17  O   UNL     1      -9.525  19.277  68.732  1.00  0.00    -0.373 OA 
BRANCH  16  18
HETATM   18  CA  UNL     1      -7.329  18.419  68.044  1.00  0.00    -0.247 C  
HETATM   19  H2  UNL     1      -7.515  18.774  65.980  1.00  0.00     0.000 HD 
HETATM   20  N   UNL     1      -7.016  18.146  66.612  1.00  0.00    -0.198 NA 
HETATM   21  H1  UNL     1      -6.006  18.182  66.475  1.00  0.00     0.000 HD 
BRANCH  18  22
HETATM   22  C   UNL     1      -6.604  17.464  68.974  1.00  0.00    -0.232 A  
HETATM   23  C   UNL     1      -6.452  16.119  68.597  1.00  0.00    -0.120 A  
HETATM   24  C   UNL     1      -5.799  15.212  69.435  1.00  0.00    -0.104 A  
HETATM   25  C   UNL     1      -5.282  15.636  70.656  1.00  0.00    -0.161 A  
HETATM   26  C   UNL     1      -5.404  16.970  71.036  1.00  0.00    -0.071 A  
HETATM   27  C   UNL     1      -6.054  17.880  70.197  1.00  0.00    -0.029 A  
ENDBRANCH  18  22
ENDBRANCH  16  18
ENDBRANCH  13  14
TORSDOF 3
ENDMDL
MODEL      103
REMARK 921   NORMALIZED FREE ENERGY PREDICTED BY IDOCK:   -4.69 KCAL/MOL
REMARK 922        TOTAL FREE ENERGY PREDICTED BY IDOCK:   -6.22 KCAL/MOL
REMARK 923 INTER-LIGAND FREE ENERGY PREDICTED BY IDOCK:   -5.69 KCAL/MOL
REMARK 924 INTRA-LIGAND FREE ENERGY PREDICTED BY IDOCK:   -0.53 KCAL/MOL
REMARK 927      BINDING AFFINITY PREDICTED BY RF-SCORE:    0.00 PKD
ROOT
HETATM    1  C   UNL     1      -8.870   9.949  69.261  1.00  0.00    -0.174 C  
HETATM    2  S   UNL     1     -10.552  10.617  69.210  1.00  0.00    -0.239 SA 
HETATM    3  C   UNL     1     -10.916  10.135  70.915  1.00  0.00    -0.171 C  
HETATM    4  C   UNL     1     -10.515   8.717  71.262  1.00  0.00    -0.256 C  
HETATM    5 CL   UNL     1     -11.449   8.173  72.635  1.00  0.00    -0.467 Cl 
HETATM    6  CA  UNL     1      -9.597   7.962  70.598  1.00  0.00    -0.166 C  
HETATM    7  N   UNL     1      -8.934   8.524  69.538  1.00  0.00    -0.148 N  
HETATM    8  C   UNL     1      -9.347   6.521  71.007  1.00  0.00    -0.160 C  
HETATM    9  C   UNL     1      -8.163   8.140  68.498  1.00  0.00    -0.125 C  
HETATM   10  O   UNL     1      -8.373   5.855  70.356  1.00  0.00    -0.118 OA 
HETATM   11  OXT UNL     1      -9.921   5.957  71.926  1.00  0.00    -0.168 OA 
HETATM   12  O   UNL     1      -7.723   7.049  68.228  1.00  0.00    -0.111 OA 
HETATM   13  CA  UNL     1      -8.244   9.579  67.878  1.00  0.00    -0.114 C  
ENDROOT
BRANCH  13  14
HETATM   14  N   UNL     1      -9.142   9.711  66.713  1.00  0.00    -0.144 N  
HETATM   15  H   UNL     1      -9.946   9.085  66.660  1.00  0.00     0.000 HD 
HETATM   16  C   UNL     1      -8.969  10.620  65.693  1.00  0.00    -0.185 C  
HETATM   17  O   UNL     1      -8.063  11.446  65.681  1.00  0.00     0.080 OA 
BRANCH  16  18
HETATM   18  CA  UNL     1     -10.036  10.485  64.577  1.00  0.00    -0.332 C  
HETATM   19  H2  UNL     1      -8.706   9.509  63.275  1.00  0.00     0.000 HD 
HETATM   20  N   UNL     1      -9.356  10.296  63.264  1.00  0.00    -0.288 NA 
HETATM   21  H1  UNL     1     -10.058  10.208  62.530  1.00  0.00     0.000 HD 
BRANCH  18  22
HETATM   22  C   UNL     1     -10.979  11.674  64.560  1.00  0.00    -0.376 A  
HETATM   23  C   UNL     1     -11.500  12.157  65.772  1.00  0.00    -0.414 A  
HETATM   24  C   UNL     1     -12.379  13.242  65.791  1.00  0.00    -0.505 A  
HETATM   25  C   UNL     1     -12.743  13.866  64.601  1.00  0.00    -0.179 A  
HETATM   26  C   UNL     1     -12.220  13.415  63.392  1.00  0.00    -0.419 A  
HETATM   27  C   UNL     1     -11.337  12.331  63.372  1.00  0.00    -0.508 A  
ENDBRANCH  18  22
ENDBRANCH  16  18
ENDBRANCH  13  14
TORSDOF 3
ENDMDL
MODEL      104
REMARK 921   NORMALIZED FREE ENERGY PREDICTED BY IDOCK:   -4.69 KCAL/MOL
REMARK 922        TOTAL FREE ENERGY PREDICTED BY IDOCK:   -6.21 KCAL/MOL
REMARK 923 INTER-LIGAND FREE ENERGY PREDICTED BY IDOCK:   -5.89 KCAL/MOL
REMARK 924 INTRA-LIGAND FREE ENERGY PREDICTED BY IDOCK:   -0.32 KCAL/MOL
REMARK 927      BINDING AFFINITY PREDICTED BY RF-SCORE:    0.00 PKD
ROOT
HETATM    1  C   UNL     1      -9.751   5.795  69.621  1.00  0.00    -0.161 C  
HETATM    2  S   UNL     1      -8.066   6.377  69.937  1.00  0.00    -0.122 SA 
HETATM    3  C   UNL     1      -7.758   5.141  71.221  1.00  0.00    -0.101 C  
HETATM    4  C   UNL     1      -8.874   5.005  72.235  1.00  0.00    -0.128 C  
HETATM    5 CL   UNL     1      -8.235   4.311  73.707  1.00  0.00    -0.093 Cl 
HETATM    6  CA  UNL     1     -10.168   5.388  72.055  1.00  0.00    -0.203 C  
HETATM    7  N   UNL     1     -10.530   5.913  70.842  1.00  0.00    -0.232 N  
HETATM    8  C   UNL     1     -11.171   5.264  73.189  1.00  0.00    -0.318 C  
HETATM    9  C   UNL     1     -11.555   6.601  70.293  1.00  0.00    -0.395 C  
HETATM   10  O   UNL     1     -12.450   5.592  72.919  1.00  0.00     0.044 OA 
HETATM   11  OXT UNL     1     -10.905   4.826  74.297  1.00  0.00    -0.310 OA 
HETATM   12  O   UNL     1     -12.616   6.913  70.774  1.00  0.00    -0.324 OA 
HETATM   13  CA  UNL     1     -10.722   6.840  68.985  1.00  0.00    -0.246 C  
ENDROOT
BRANCH  13  14
HETATM   14  N   UNL     1     -10.180   8.205  68.827  1.00  0.00    -0.204 N  
HETATM   15  H   UNL     1      -9.887   8.700  69.669  1.00  0.00     0.000 HD 
HETATM   16  C   UNL     1     -10.044   8.855  67.621  1.00  0.00    -0.218 C  
HETATM   17  O   UNL     1     -10.324   8.336  66.546  1.00  0.00    -0.276 OA 
BRANCH  16  18
HETATM   18  CA  UNL     1      -9.501  10.299  67.772  1.00  0.00    -0.148 C  
HETATM   19  H2  UNL     1      -8.908   9.982  69.763  1.00  0.00     0.000 HD 
HETATM   20  N   UNL     1      -9.447  10.656  69.219  1.00  0.00    -0.356 NA 
HETATM   21  H1  UNL     1      -9.090  11.607  69.319  1.00  0.00     0.000 HD 
BRANCH  18  22
HETATM   22  C   UNL     1     -10.326  11.292  66.975  1.00  0.00    -0.263 A  
HETATM   23  C   UNL     1     -10.151  11.372  65.583  1.00  0.00    -0.293 A  
HETATM   24  C   UNL     1     -10.887  12.282  64.821  1.00  0.00    -0.345 A  
HETATM   25  C   UNL     1     -11.814  13.119  65.436  1.00  0.00    -0.410 A  
HETATM   26  C   UNL     1     -12.017  13.039  66.811  1.00  0.00    -0.434 A  
HETATM   27  C   UNL     1     -11.285  12.126  67.575  1.00  0.00    -0.357 A  
ENDBRANCH  18  22
ENDBRANCH  16  18
ENDBRANCH  13  14
TORSDOF 3
ENDMDL
MODEL      105
REMARK 921   NORMALIZED FREE ENERGY PREDICTED BY IDOCK:   -4.68 KCAL/MOL
REMARK 922        TOTAL FREE ENERGY PREDICTED BY IDOCK:   -6.20 KCAL/MOL
REMARK 923 INTER-LIGAND FREE ENERGY PREDICTED BY IDOCK:   -5.65 KCAL/MOL
REMARK 924 INTRA-LIGAND FREE ENERGY PREDICTED BY IDOCK:   -0.56 KCAL/MOL
REMARK 927      BINDING AFFINITY PREDICTED BY RF-SCORE:    0.00 PKD
ROOT
HETATM    1  C   UNL     1      -8.556   9.874  68.035  1.00  0.00    -0.121 C  
HETATM    2  S   UNL     1      -9.697  10.267  69.384  1.00  0.00    -0.202 SA 
HETATM    3  C   UNL     1      -9.416   8.695  70.233  1.00  0.00    -0.167 C  
HETATM    4  C   UNL     1      -9.467   7.481  69.329  1.00  0.00    -0.154 C  
HETATM    5 CL   UNL     1      -9.821   6.063  70.287  1.00  0.00    -0.210 Cl 
HETATM    6  CA  UNL     1      -9.298   7.484  67.978  1.00  0.00    -0.139 C  
HETATM    7  N   UNL     1      -9.018   8.673  67.358  1.00  0.00    -0.133 N  
HETATM    8  C   UNL     1      -9.453   6.200  67.182  1.00  0.00    -0.119 C  
HETATM    9  C   UNL     1      -8.998   9.194  66.112  1.00  0.00    -0.173 C  
HETATM   10  O   UNL     1      -9.199   6.259  65.860  1.00  0.00    -0.127 OA 
HETATM   11  OXT UNL     1      -9.723   5.114  67.673  1.00  0.00    -0.134 OA 
HETATM   12  O   UNL     1      -9.168   8.650  65.048  1.00  0.00    -0.029 OA 
HETATM   13  CA  UNL     1      -8.800  10.638  66.694  1.00  0.00    -0.141 C  
ENDROOT
BRANCH  13  14
HETATM   14  N   UNL     1      -9.999  11.499  66.657  1.00  0.00    -0.203 N  
HETATM   15  H   UNL     1     -10.447  11.727  67.544  1.00  0.00     0.000 HD 
HETATM   16  C   UNL     1     -10.553  12.015  65.507  1.00  0.00    -0.273 C  
HETATM   17  O   UNL     1     -10.068  11.840  64.394  1.00  0.00    -0.262 OA 
BRANCH  16  18
HETATM   18  CA  UNL     1     -11.841  12.835  65.774  1.00  0.00    -0.434 C  
HETATM   19  H2  UNL     1     -12.723  12.240  63.961  1.00  0.00     0.000 HD 
HETATM   20  N   UNL     1     -12.535  13.098  64.481  1.00  0.00    -0.599 NA 
HETATM   21  H1  UNL     1     -13.382  13.638  64.656  1.00  0.00     0.000 HD 
BRANCH  18  22
HETATM   22  C   UNL     1     -11.540  14.118  66.526  1.00  0.00    -0.389 A  
HETATM   23  C   UNL     1     -10.760  15.111  65.911  1.00  0.00    -0.341 A  
HETATM   24  C   UNL     1     -10.456  16.298  66.580  1.00  0.00    -0.290 A  
HETATM   25  C   UNL     1     -10.934  16.515  67.869  1.00  0.00    -0.288 A  
HETATM   26  C   UNL     1     -11.727  15.552  68.487  1.00  0.00    -0.351 A  
HETATM   27  C   UNL     1     -12.035  14.365  67.818  1.00  0.00    -0.368 A  
ENDBRANCH  18  22
ENDBRANCH  16  18
ENDBRANCH  13  14
TORSDOF 3
ENDMDL
MODEL      106
REMARK 921   NORMALIZED FREE ENERGY PREDICTED BY IDOCK:   -4.64 KCAL/MOL
REMARK 922        TOTAL FREE ENERGY PREDICTED BY IDOCK:   -6.15 KCAL/MOL
REMARK 923 INTER-LIGAND FREE ENERGY PREDICTED BY IDOCK:   -5.61 KCAL/MOL
REMARK 924 INTRA-LIGAND FREE ENERGY PREDICTED BY IDOCK:   -0.54 KCAL/MOL
REMARK 927      BINDING AFFINITY PREDICTED BY RF-SCORE:    0.00 PKD
ROOT
HETATM    1  C   UNL     1      -9.494  11.659  66.132  1.00  0.00    -0.224 C  
HETATM    2  S   UNL     1     -11.297  11.727  65.983  1.00  0.00    -0.200 SA 
HETATM    3  C   UNL     1     -11.268  13.206  64.941  1.00  0.00    -0.310 C  
HETATM    4  C   UNL     1     -10.360  14.306  65.446  1.00  0.00    -0.370 C  
HETATM    5 CL   UNL     1     -10.878  15.835  64.776  1.00  0.00    -0.441 Cl 
HETATM    6  CA  UNL     1      -9.320  14.150  66.312  1.00  0.00    -0.189 C  
HETATM    7  N   UNL     1      -9.023  12.887  66.752  1.00  0.00    -0.208 N  
HETATM    8  C   UNL     1      -8.537  15.357  66.798  1.00  0.00    -0.273 C  
HETATM    9  C   UNL     1      -8.294  12.289  67.720  1.00  0.00    -0.162 C  
HETATM   10  O   UNL     1      -7.475  15.123  67.594  1.00  0.00    -0.145 OA 
HETATM   11  OXT UNL     1      -8.767  16.508  66.460  1.00  0.00    -0.228 OA 
HETATM   12  O   UNL     1      -7.535  12.776  68.523  1.00  0.00    -0.117 OA 
HETATM   13  CA  UNL     1      -8.944  10.901  67.383  1.00  0.00    -0.136 C  
ENDROOT
BRANCH  13  14
HETATM   14  N   UNL     1      -9.961  10.434  68.347  1.00  0.00    -0.157 N  
HETATM   15  H   UNL     1     -10.542  11.138  68.803  1.00  0.00     0.000 HD 
HETATM   16  C   UNL     1     -10.180   9.114  68.672  1.00  0.00    -0.204 C  
HETATM   17  O   UNL     1      -9.570   8.187  68.151  1.00  0.00    -0.146 OA 
BRANCH  16  18
HETATM   18  CA  UNL     1     -11.272   8.934  69.757  1.00  0.00    -0.006 C  
HETATM   19  H2  UNL     1     -12.334  10.633  69.123  1.00  0.00     0.000 HD 
HETATM   20  N   UNL     1     -11.960  10.236  69.986  1.00  0.00    -0.426 NA 
HETATM   21  H1  UNL     1     -12.678  10.118  70.700  1.00  0.00     0.000 HD 
BRANCH  18  22
HETATM   22  C   UNL     1     -10.695   8.365  71.040  1.00  0.00    -0.267 A  
HETATM   23  C   UNL     1     -11.208   7.162  71.552  1.00  0.00    -0.273 A  
HETATM   24  C   UNL     1     -10.706   6.617  72.737  1.00  0.00    -0.272 A  
HETATM   25  C   UNL     1      -9.680   7.262  73.422  1.00  0.00    -0.297 A  
HETATM   26  C   UNL     1      -9.144   8.444  72.918  1.00  0.00    -0.282 A  
HETATM   27  C   UNL     1      -9.642   8.988  71.731  1.00  0.00    -0.278 A  
ENDBRANCH  18  22
ENDBRANCH  16  18
ENDBRANCH  13  14
TORSDOF 3
ENDMDL
MODEL      107
REMARK 921   NORMALIZED FREE ENERGY PREDICTED BY IDOCK:   -4.63 KCAL/MOL
REMARK 922        TOTAL FREE ENERGY PREDICTED BY IDOCK:   -6.14 KCAL/MOL
REMARK 923 INTER-LIGAND FREE ENERGY PREDICTED BY IDOCK:   -5.60 KCAL/MOL
REMARK 924 INTRA-LIGAND FREE ENERGY PREDICTED BY IDOCK:   -0.55 KCAL/MOL
REMARK 927      BINDING AFFINITY PREDICTED BY RF-SCORE:    0.00 PKD
ROOT
HETATM    1  C   UNL     1      -9.678  11.424  67.075  1.00  0.00    -0.190 C  
HETATM    2  S   UNL     1     -11.259  11.837  67.855  1.00  0.00    -0.292 SA 
HETATM    3  C   UNL     1     -11.496  13.323  66.850  1.00  0.00    -0.338 C  
HETATM    4  C   UNL     1     -10.273  14.212  66.755  1.00  0.00    -0.262 C  
HETATM    5 CL   UNL     1     -10.772  15.836  66.343  1.00  0.00    -0.303 Cl 
HETATM    6  CA  UNL     1      -8.987  13.828  66.983  1.00  0.00    -0.238 C  
HETATM    7  N   UNL     1      -8.743  12.515  67.292  1.00  0.00    -0.185 N  
HETATM    8  C   UNL     1      -7.860  14.845  66.928  1.00  0.00     0.030 C  
HETATM    9  C   UNL     1      -7.747  11.754  67.793  1.00  0.00    -0.133 C  
HETATM   10  O   UNL     1      -6.604  14.384  67.090  1.00  0.00    -0.205 OA 
HETATM   11  OXT UNL     1      -8.016  16.031  66.681  1.00  0.00    -0.243 OA 
HETATM   12  O   UNL     1      -6.611  12.056  68.069  1.00  0.00    -0.061 OA 
HETATM   13  CA  UNL     1      -8.718  10.527  67.921  1.00  0.00    -0.126 C  
ENDROOT
BRANCH  13  14
HETATM   14  N   UNL     1      -9.169  10.225  69.295  1.00  0.00    -0.200 N  
HETATM   15  H   UNL     1      -9.828  10.869  69.731  1.00  0.00     0.000 HD 
HETATM   16  C   UNL     1      -8.759   9.132  70.026  1.00  0.00    -0.177 C  
HETATM   17  O   UNL     1      -8.005   8.274  69.582  1.00  0.00    -0.106 OA 
BRANCH  16  18
HETATM   18  CA  UNL     1      -9.354   9.109  71.457  1.00  0.00    -0.125 C  
HETATM   19  H2  UNL     1      -7.516   8.581  72.328  1.00  0.00     0.000 HD 
HETATM   20  N   UNL     1      -8.489   8.273  72.338  1.00  0.00    -0.178 NA 
HETATM   21  H1  UNL     1      -8.880   8.256  73.279  1.00  0.00     0.000 HD 
BRANCH  18  22
HETATM   22  C   UNL     1     -10.793   8.627  71.456  1.00  0.00    -0.352 A  
HETATM   23  C   UNL     1     -11.060   7.256  71.308  1.00  0.00    -0.270 A  
HETATM   24  C   UNL     1     -12.373   6.780  71.291  1.00  0.00    -0.395 A  
HETATM   25  C   UNL     1     -13.438   7.666  71.432  1.00  0.00    -0.351 A  
HETATM   26  C   UNL     1     -13.192   9.026  71.602  1.00  0.00    -0.427 A  
HETATM   27  C   UNL     1     -11.879   9.503  71.623  1.00  0.00    -0.468 A  
ENDBRANCH  18  22
ENDBRANCH  16  18
ENDBRANCH  13  14
TORSDOF 3
ENDMDL
MODEL      108
REMARK 921   NORMALIZED FREE ENERGY PREDICTED BY IDOCK:   -4.62 KCAL/MOL
REMARK 922        TOTAL FREE ENERGY PREDICTED BY IDOCK:   -6.14 KCAL/MOL
REMARK 923 INTER-LIGAND FREE ENERGY PREDICTED BY IDOCK:   -5.71 KCAL/MOL
REMARK 924 INTRA-LIGAND FREE ENERGY PREDICTED BY IDOCK:   -0.42 KCAL/MOL
REMARK 927      BINDING AFFINITY PREDICTED BY RF-SCORE:    0.00 PKD
ROOT
HETATM    1  C   UNL     1      -6.035  16.129  67.591  1.00  0.00    -0.151 C  
HETATM    2  S   UNL     1      -7.458  16.762  66.669  1.00  0.00    -0.289 SA 
HETATM    3  C   UNL     1      -6.879  18.475  66.729  1.00  0.00    -0.191 C  
HETATM    4  C   UNL     1      -6.412  18.927  68.096  1.00  0.00    -0.216 C  
HETATM    5 CL   UNL     1      -6.494  20.671  68.185  1.00  0.00    -0.341 Cl 
HETATM    6  CA  UNL     1      -6.020  18.115  69.115  1.00  0.00    -0.228 C  
HETATM    7  N   UNL     1      -5.999  16.761  68.900  1.00  0.00    -0.150 N  
HETATM    8  C   UNL     1      -5.648  18.701  70.466  1.00  0.00    -0.197 C  
HETATM    9  C   UNL     1      -5.915  15.617  69.611  1.00  0.00    -0.137 C  
HETATM   10  O   UNL     1      -5.197  17.847  71.407  1.00  0.00    -0.422 OA 
HETATM   11  OXT UNL     1      -5.668  19.894  70.727  1.00  0.00    -0.258 OA 
HETATM   12  O   UNL     1      -5.731  15.457  70.793  1.00  0.00    -0.114 OA 
HETATM   13  CA  UNL     1      -6.256  14.771  68.333  1.00  0.00    -0.105 C  
ENDROOT
BRANCH  13  14
HETATM   14  N   UNL     1      -7.630  14.232  68.285  1.00  0.00    -0.119 N  
HETATM   15  H   UNL     1      -8.398  14.870  68.493  1.00  0.00     0.000 HD 
HETATM   16  C   UNL     1      -7.945  12.927  67.980  1.00  0.00    -0.158 C  
HETATM   17  O   UNL     1      -7.103  12.090  67.672  1.00  0.00    -0.097 OA 
BRANCH  16  18
HETATM   18  CA  UNL     1      -9.465  12.637  68.065  1.00  0.00    -0.209 C  
HETATM   19  H2  UNL     1      -9.262  11.524  69.836  1.00  0.00     0.000 HD 
HETATM   20  N   UNL     1      -9.691  11.433  68.914  1.00  0.00    -0.376 NA 
HETATM   21  H1  UNL     1     -10.691  11.242  68.970  1.00  0.00     0.000 HD 
BRANCH  18  22
HETATM   22  C   UNL     1     -10.082  12.483  66.688  1.00  0.00    -0.241 A  
HETATM   23  C   UNL     1     -10.917  13.497  66.190  1.00  0.00    -0.289 A  
HETATM   24  C   UNL     1     -11.509  13.381  64.930  1.00  0.00    -0.346 A  
HETATM   25  C   UNL     1     -11.269  12.256  64.147  1.00  0.00    -0.430 A  
HETATM   26  C   UNL     1     -10.427  11.251  64.614  1.00  0.00    -0.387 A  
HETATM   27  C   UNL     1      -9.831  11.367  65.873  1.00  0.00    -0.262 A  
ENDBRANCH  18  22
ENDBRANCH  16  18
ENDBRANCH  13  14
TORSDOF 3
ENDMDL
MODEL      109
REMARK 921   NORMALIZED FREE ENERGY PREDICTED BY IDOCK:   -4.62 KCAL/MOL
REMARK 922        TOTAL FREE ENERGY PREDICTED BY IDOCK:   -6.13 KCAL/MOL
REMARK 923 INTER-LIGAND FREE ENERGY PREDICTED BY IDOCK:   -5.70 KCAL/MOL
REMARK 924 INTRA-LIGAND FREE ENERGY PREDICTED BY IDOCK:   -0.43 KCAL/MOL
REMARK 927      BINDING AFFINITY PREDICTED BY RF-SCORE:    0.00 PKD
ROOT
HETATM    1  C   UNL     1     -10.625   7.463  66.791  1.00  0.00    -0.211 C  
HETATM    2  S   UNL     1     -10.529   9.228  67.185  1.00  0.00    -0.222 SA 
HETATM    3  C   UNL     1      -9.720   9.649  65.623  1.00  0.00    -0.293 C  
HETATM    4  C   UNL     1      -8.567   8.740  65.253  1.00  0.00    -0.187 C  
HETATM    5 CL   UNL     1      -7.507   9.576  64.142  1.00  0.00    -0.117 Cl 
HETATM    6  CA  UNL     1      -8.359   7.481  65.727  1.00  0.00    -0.142 C  
HETATM    7  N   UNL     1      -9.280   6.948  66.591  1.00  0.00    -0.153 N  
HETATM    8  C   UNL     1      -7.114   6.707  65.331  1.00  0.00    -0.064 C  
HETATM    9  C   UNL     1      -9.393   5.913  67.450  1.00  0.00    -0.111 C  
HETATM   10  O   UNL     1      -7.007   5.440  65.777  1.00  0.00    -0.063 OA 
HETATM   11  OXT UNL     1      -6.246   7.135  64.584  1.00  0.00    -0.036 OA 
HETATM   12  O   UNL     1      -8.631   5.000  67.659  1.00  0.00    -0.105 OA 
HETATM   13  CA  UNL     1     -10.735   6.499  68.015  1.00  0.00    -0.283 C  
ENDROOT
BRANCH  13  14
HETATM   14  N   UNL     1     -10.631   7.136  69.343  1.00  0.00    -0.228 N  
HETATM   15  H   UNL     1     -10.545   8.151  69.377  1.00  0.00     0.000 HD 
HETATM   16  C   UNL     1     -10.642   6.452  70.539  1.00  0.00    -0.239 C  
HETATM   17  O   UNL     1     -10.786   5.237  70.613  1.00  0.00    -0.230 OA 
BRANCH  16  18
HETATM   18  CA  UNL     1     -10.458   7.381  71.766  1.00  0.00    -0.196 C  
HETATM   19  H2  UNL     1      -9.875   5.795  73.014  1.00  0.00     0.000 HD 
HETATM   20  N   UNL     1     -10.537   6.571  73.014  1.00  0.00    -0.235 NA 
HETATM   21  H1  UNL     1     -10.417   7.182  73.822  1.00  0.00     0.000 HD 
BRANCH  18  22
HETATM   22  C   UNL     1     -11.466   8.516  71.763  1.00  0.00    -0.378 A  
HETATM   23  C   UNL     1     -11.127   9.736  71.155  1.00  0.00    -0.414 A  
HETATM   24  C   UNL     1     -12.027  10.804  71.144  1.00  0.00    -0.361 A  
HETATM   25  C   UNL     1     -13.281  10.666  71.732  1.00  0.00    -0.526 A  
HETATM   26  C   UNL     1     -13.643   9.457  72.319  1.00  0.00    -0.532 A  
HETATM   27  C   UNL     1     -12.745   8.386  72.328  1.00  0.00    -0.376 A  
ENDBRANCH  18  22
ENDBRANCH  16  18
ENDBRANCH  13  14
TORSDOF 3
ENDMDL
MODEL      110
REMARK 921   NORMALIZED FREE ENERGY PREDICTED BY IDOCK:   -4.62 KCAL/MOL
REMARK 922        TOTAL FREE ENERGY PREDICTED BY IDOCK:   -6.13 KCAL/MOL
REMARK 923 INTER-LIGAND FREE ENERGY PREDICTED BY IDOCK:   -5.72 KCAL/MOL
REMARK 924 INTRA-LIGAND FREE ENERGY PREDICTED BY IDOCK:   -0.41 KCAL/MOL
REMARK 927      BINDING AFFINITY PREDICTED BY RF-SCORE:    0.00 PKD
ROOT
HETATM    1  C   UNL     1      -9.497  13.982  68.576  1.00  0.00    -0.191 C  
HETATM    2  S   UNL     1      -8.007  12.964  68.429  1.00  0.00    -0.108 SA 
HETATM    3  C   UNL     1      -6.897  14.392  68.396  1.00  0.00    -0.106 C  
HETATM    4  C   UNL     1      -7.333  15.499  67.459  1.00  0.00    -0.189 C  
HETATM    5 CL   UNL     1      -5.946  16.473  67.031  1.00  0.00    -0.189 Cl 
HETATM    6  CA  UNL     1      -8.596  15.697  66.990  1.00  0.00    -0.224 C  
HETATM    7  N   UNL     1      -9.590  14.856  67.418  1.00  0.00    -0.204 N  
HETATM    8  C   UNL     1      -8.880  16.804  65.991  1.00  0.00    -0.183 C  
HETATM    9  C   UNL     1     -10.857  14.523  67.088  1.00  0.00    -0.296 C  
HETATM   10  O   UNL     1     -10.164  16.992  65.626  1.00  0.00    -0.556 OA 
HETATM   11  OXT UNL     1      -8.035  17.571  65.555  1.00  0.00    -0.354 OA 
HETATM   12  O   UNL     1     -11.587  15.004  66.256  1.00  0.00    -0.286 OA 
HETATM   13  CA  UNL     1     -10.824  13.316  68.092  1.00  0.00    -0.251 C  
ENDROOT
BRANCH  13  14
HETATM   14  N   UNL     1     -10.683  11.985  67.468  1.00  0.00    -0.220 N  
HETATM   15  H   UNL     1     -10.020  11.889  66.699  1.00  0.00     0.000 HD 
HETATM   16  C   UNL     1     -11.384  10.865  67.854  1.00  0.00    -0.308 C  
HETATM   17  O   UNL     1     -12.171  10.859  68.794  1.00  0.00    -0.518 OA 
BRANCH  16  18
HETATM   18  CA  UNL     1     -11.069   9.625  66.978  1.00  0.00     0.224 C  
HETATM   19  H2  UNL     1     -11.866   8.290  68.392  1.00  0.00     0.000 HD 
HETATM   20  N   UNL     1     -11.015   8.412  67.842  1.00  0.00    -0.476 NA 
HETATM   21  H1  UNL     1     -10.807   7.596  67.266  1.00  0.00     0.000 HD 
BRANCH  18  22
HETATM   22  C   UNL     1      -9.790   9.813  66.185  1.00  0.00    -0.329 A  
HETATM   23  C   UNL     1      -9.865  10.212  64.840  1.00  0.00    -0.390 A  
HETATM   24  C   UNL     1      -8.707  10.384  64.079  1.00  0.00    -0.202 A  
HETATM   25  C   UNL     1      -7.456  10.169  64.652  1.00  0.00    -0.132 A  
HETATM   26  C   UNL     1      -7.361   9.795  65.989  1.00  0.00    -0.102 A  
HETATM   27  C   UNL     1      -8.519   9.626  66.754  1.00  0.00    -0.129 A  
ENDBRANCH  18  22
ENDBRANCH  16  18
ENDBRANCH  13  14
TORSDOF 3
ENDMDL
MODEL      111
REMARK 921   NORMALIZED FREE ENERGY PREDICTED BY IDOCK:   -4.57 KCAL/MOL
REMARK 922        TOTAL FREE ENERGY PREDICTED BY IDOCK:   -6.07 KCAL/MOL
REMARK 923 INTER-LIGAND FREE ENERGY PREDICTED BY IDOCK:   -6.38 KCAL/MOL
REMARK 924 INTRA-LIGAND FREE ENERGY PREDICTED BY IDOCK:    0.31 KCAL/MOL
REMARK 927      BINDING AFFINITY PREDICTED BY RF-SCORE:    0.00 PKD
ROOT
HETATM    1  C   UNL     1      -8.842   9.320  67.008  1.00  0.00    -0.123 C  
HETATM    2  S   UNL     1      -7.965  10.004  68.436  1.00  0.00    -0.099 SA 
HETATM    3  C   UNL     1      -6.513   8.954  68.191  1.00  0.00    -0.060 C  
HETATM    4  C   UNL     1      -6.834   7.496  67.940  1.00  0.00    -0.071 C  
HETATM    5 CL   UNL     1      -5.443   6.520  68.350  1.00  0.00    -0.011 Cl 
HETATM    6  CA  UNL     1      -8.023   7.005  67.495  1.00  0.00    -0.113 C  
HETATM    7  N   UNL     1      -9.028   7.891  67.205  1.00  0.00    -0.127 N  
HETATM    8  C   UNL     1      -8.234   5.507  67.360  1.00  0.00    -0.101 C  
HETATM    9  C   UNL     1     -10.358   7.885  66.975  1.00  0.00    -0.341 C  
HETATM   10  O   UNL     1      -9.408   5.093  66.844  1.00  0.00    -0.121 OA 
HETATM   11  OXT UNL     1      -7.387   4.667  67.623  1.00  0.00    -0.071 OA 
HETATM   12  O   UNL     1     -11.116   6.952  66.869  1.00  0.00    -0.379 OA 
HETATM   13  CA  UNL     1     -10.399   9.453  67.039  1.00  0.00    -0.252 C  
ENDROOT
BRANCH  13  14
HETATM   14  N   UNL     1     -10.969  10.016  68.279  1.00  0.00    -0.381 N  
HETATM   15  H   UNL     1     -10.755   9.543  69.157  1.00  0.00     0.000 HD 
HETATM   16  C   UNL     1     -11.769  11.135  68.332  1.00  0.00    -0.279 C  
HETATM   17  O   UNL     1     -12.051  11.803  67.343  1.00  0.00    -0.595 OA 
BRANCH  16  18
HETATM   18  CA  UNL     1     -12.267  11.454  69.765  1.00  0.00    -0.265 C  
HETATM   19  H2  UNL     1     -11.621  13.451  69.660  1.00  0.00     0.000 HD 
HETATM   20  N   UNL     1     -11.541  12.648  70.285  1.00  0.00    -0.538 NA 
HETATM   21  H1  UNL     1     -11.868  12.857  71.228  1.00  0.00     0.000 HD 
BRANCH  18  22
HETATM   22  C   UNL     1     -12.119  10.257  70.686  1.00  0.00    -0.433 A  
HETATM   23  C   UNL     1     -13.233   9.808  71.415  1.00  0.00    -0.482 A  
HETATM   24  C   UNL     1     -13.128   8.716  72.279  1.00  0.00    -0.415 A  
HETATM   25  C   UNL     1     -11.914   8.050  72.420  1.00  0.00    -0.405 A  
HETATM   26  C   UNL     1     -10.805   8.467  71.689  1.00  0.00    -0.335 A  
HETATM   27  C   UNL     1     -10.908   9.557  70.820  1.00  0.00    -0.386 A  
ENDBRANCH  18  22
ENDBRANCH  16  18
ENDBRANCH  13  14
TORSDOF 3
ENDMDL
MODEL      112
REMARK 921   NORMALIZED FREE ENERGY PREDICTED BY IDOCK:   -4.57 KCAL/MOL
REMARK 922        TOTAL FREE ENERGY PREDICTED BY IDOCK:   -6.07 KCAL/MOL
REMARK 923 INTER-LIGAND FREE ENERGY PREDICTED BY IDOCK:   -6.59 KCAL/MOL
REMARK 924 INTRA-LIGAND FREE ENERGY PREDICTED BY IDOCK:    0.52 KCAL/MOL
REMARK 927      BINDING AFFINITY PREDICTED BY RF-SCORE:    0.00 PKD
ROOT
HETATM    1  C   UNL     1      -9.918  11.643  66.405  1.00  0.00    -0.206 C  
HETATM    2  S   UNL     1     -11.508  11.917  67.228  1.00  0.00    -0.295 SA 
HETATM    3  C   UNL     1     -11.616  13.642  66.693  1.00  0.00    -0.364 C  
HETATM    4  C   UNL     1     -10.343  14.437  66.894  1.00  0.00    -0.265 C  
HETATM    5 CL   UNL     1     -10.732  16.140  66.960  1.00  0.00    -0.293 Cl 
HETATM    6  CA  UNL     1      -9.092  13.919  67.035  1.00  0.00    -0.250 C  
HETATM    7  N   UNL     1      -8.935  12.560  66.955  1.00  0.00    -0.206 N  
HETATM    8  C   UNL     1      -7.909  14.832  67.310  1.00  0.00    -0.194 C  
HETATM    9  C   UNL     1      -8.006  11.623  67.240  1.00  0.00    -0.157 C  
HETATM   10  O   UNL     1      -6.689  14.262  67.364  1.00  0.00    -0.259 OA 
HETATM   11  OXT UNL     1      -7.988  16.047  67.414  1.00  0.00    -0.138 OA 
HETATM   12  O   UNL     1      -6.869  11.757  67.622  1.00  0.00    -0.082 OA 
HETATM   13  CA  UNL     1      -9.048  10.479  66.979  1.00  0.00    -0.143 C  
ENDROOT
BRANCH  13  14
HETATM   14  N   UNL     1      -9.576   9.822  68.192  1.00  0.00    -0.142 N  
HETATM   15  H   UNL     1      -9.330  10.226  69.095  1.00  0.00     0.000 HD 
HETATM   16  C   UNL     1     -10.378   8.703  68.186  1.00  0.00    -0.216 C  
HETATM   17  O   UNL     1     -10.769   8.165  67.156  1.00  0.00    -0.316 OA 
BRANCH  16  18
HETATM   18  CA  UNL     1     -10.729   8.206  69.612  1.00  0.00    -0.195 C  
HETATM   19  H2  UNL     1     -10.804   6.194  69.008  1.00  0.00     0.000 HD 
HETATM   20  N   UNL     1     -11.376   6.866  69.522  1.00  0.00    -0.529 NA 
HETATM   21  H1  UNL     1     -11.607   6.539  70.460  1.00  0.00     0.000 HD 
BRANCH  18  22
HETATM   22  C   UNL     1     -11.597   9.205  70.353  1.00  0.00    -0.181 A  
HETATM   23  C   UNL     1     -11.395  10.580  70.147  1.00  0.00    -0.400 A  
HETATM   24  C   UNL     1     -12.171  11.526  70.821  1.00  0.00    -0.463 A  
HETATM   25  C   UNL     1     -13.164  11.112  71.705  1.00  0.00    -0.486 A  
HETATM   26  C   UNL     1     -13.393   9.754  71.906  1.00  0.00    -0.530 A  
HETATM   27  C   UNL     1     -12.621   8.806  71.229  1.00  0.00    -0.285 A  
ENDBRANCH  18  22
ENDBRANCH  16  18
ENDBRANCH  13  14
TORSDOF 3
ENDMDL
MODEL      113
REMARK 921   NORMALIZED FREE ENERGY PREDICTED BY IDOCK:   -4.54 KCAL/MOL
REMARK 922        TOTAL FREE ENERGY PREDICTED BY IDOCK:   -6.04 KCAL/MOL
REMARK 923 INTER-LIGAND FREE ENERGY PREDICTED BY IDOCK:   -5.50 KCAL/MOL
REMARK 924 INTRA-LIGAND FREE ENERGY PREDICTED BY IDOCK:   -0.55 KCAL/MOL
REMARK 927      BINDING AFFINITY PREDICTED BY RF-SCORE:    0.00 PKD
ROOT
HETATM    1  C   UNL     1      -8.858  11.677  68.815  1.00  0.00    -0.011 C  
HETATM    2  S   UNL     1     -10.650  11.709  68.554  1.00  0.00    -0.223 SA 
HETATM    3  C   UNL     1     -10.901  10.076  69.292  1.00  0.00    -0.230 C  
HETATM    4  C   UNL     1      -9.933   9.018  68.806  1.00  0.00    -0.182 C  
HETATM    5 CL   UNL     1     -10.634   7.437  69.060  1.00  0.00    -0.217 Cl 
HETATM    6  CA  UNL     1      -8.721   9.247  68.231  1.00  0.00    -0.129 C  
HETATM    7  N   UNL     1      -8.295  10.543  68.101  1.00  0.00    -0.116 N  
HETATM    8  C   UNL     1      -7.883   8.089  67.716  1.00  0.00    -0.126 C  
HETATM    9  C   UNL     1      -7.349  11.245  67.440  1.00  0.00    -0.115 C  
HETATM   10  O   UNL     1      -6.662   8.381  67.227  1.00  0.00    -0.061 OA 
HETATM   11  OXT UNL     1      -8.217   6.916  67.782  1.00  0.00    -0.116 OA 
HETATM   12  O   UNL     1      -6.443  10.851  66.747  1.00  0.00    -0.094 OA 
HETATM   13  CA  UNL     1      -8.018  12.597  67.873  1.00  0.00    -0.156 C  
ENDROOT
BRANCH  13  14
HETATM   14  N   UNL     1      -8.776  13.289  66.811  1.00  0.00    -0.410 N  
HETATM   15  H   UNL     1      -8.993  12.765  65.964  1.00  0.00     0.000 HD 
HETATM   16  C   UNL     1      -9.210  14.594  66.887  1.00  0.00    -0.249 C  
HETATM   17  O   UNL     1      -9.042  15.298  67.877  1.00  0.00    -0.173 OA 
BRANCH  16  18
HETATM   18  CA  UNL     1      -9.929  15.066  65.597  1.00  0.00    -0.355 C  
HETATM   19  H2  UNL     1     -10.047  17.056  66.263  1.00  0.00     0.000 HD 
HETATM   20  N   UNL     1     -10.658  16.336  65.876  1.00  0.00    -0.321 NA 
HETATM   21  H1  UNL     1     -11.131  16.647  65.027  1.00  0.00     0.000 HD 
BRANCH  18  22
HETATM   22  C   UNL     1     -10.850  13.993  65.047  1.00  0.00    -0.401 A  
HETATM   23  C   UNL     1     -10.426  13.214  63.958  1.00  0.00    -0.258 A  
HETATM   24  C   UNL     1     -11.254  12.225  63.421  1.00  0.00    -0.497 A  
HETATM   25  C   UNL     1     -12.513  11.995  63.969  1.00  0.00    -0.492 A  
HETATM   26  C   UNL     1     -12.941  12.742  65.063  1.00  0.00    -0.122 A  
HETATM   27  C   UNL     1     -12.113  13.730  65.604  1.00  0.00    -0.444 A  
ENDBRANCH  18  22
ENDBRANCH  16  18
ENDBRANCH  13  14
TORSDOF 3
ENDMDL
MODEL      114
REMARK 921   NORMALIZED FREE ENERGY PREDICTED BY IDOCK:   -4.54 KCAL/MOL
REMARK 922        TOTAL FREE ENERGY PREDICTED BY IDOCK:   -6.04 KCAL/MOL
REMARK 923 INTER-LIGAND FREE ENERGY PREDICTED BY IDOCK:   -5.67 KCAL/MOL
REMARK 924 INTRA-LIGAND FREE ENERGY PREDICTED BY IDOCK:   -0.37 KCAL/MOL
REMARK 927      BINDING AFFINITY PREDICTED BY RF-SCORE:    0.00 PKD
ROOT
HETATM    1  C   UNL     1      -8.432  12.862  66.380  1.00  0.00     0.342 C  
HETATM    2  S   UNL     1      -7.867  11.492  67.420  1.00  0.00    -0.151 SA 
HETATM    3  C   UNL     1      -7.243  10.535  66.017  1.00  0.00    -0.137 C  
HETATM    4  C   UNL     1      -8.200  10.449  64.847  1.00  0.00    -0.145 C  
HETATM    5 CL   UNL     1      -7.804   9.048  63.880  1.00  0.00    -0.126 Cl 
HETATM    6  CA  UNL     1      -9.231  11.302  64.594  1.00  0.00    -0.073 C  
HETATM    7  N   UNL     1      -9.420  12.365  65.437  1.00  0.00    -0.024 N  
HETATM    8  C   UNL     1     -10.165  11.052  63.422  1.00  0.00    -0.346 C  
HETATM    9  C   UNL     1     -10.366  13.285  65.722  1.00  0.00    -0.288 C  
HETATM   10  O   UNL     1     -11.117  11.975  63.185  1.00  0.00    -0.329 OA 
HETATM   11  OXT UNL     1     -10.062  10.111  62.650  1.00  0.00     0.112 OA 
HETATM   12  O   UNL     1     -11.422  13.498  65.176  1.00  0.00    -0.294 OA 
HETATM   13  CA  UNL     1      -9.563  13.753  66.987  1.00  0.00    -0.251 C  
ENDROOT
BRANCH  13  14
HETATM   14  N   UNL     1     -10.111  13.299  68.281  1.00  0.00    -0.247 N  
HETATM   15  H   UNL     1      -9.548  12.654  68.835  1.00  0.00     0.000 HD 
HETATM   16  C   UNL     1     -11.330  13.688  68.791  1.00  0.00    -0.289 C  
HETATM   17  O   UNL     1     -12.064  14.493  68.229  1.00  0.00    -0.292 OA 
BRANCH  16  18
HETATM   18  CA  UNL     1     -11.664  13.003  70.141  1.00  0.00    -0.170 C  
HETATM   19  H2  UNL     1     -12.289  11.227  69.207  1.00  0.00     0.000 HD 
HETATM   20  N   UNL     1     -12.628  11.891  69.904  1.00  0.00     0.050 NA 
HETATM   21  H1  UNL     1     -12.849  11.441  70.792  1.00  0.00     0.000 HD 
BRANCH  18  22
HETATM   22  C   UNL     1     -12.188  14.000  71.157  1.00  0.00    -0.417 A  
HETATM   23  C   UNL     1     -13.353  13.697  71.882  1.00  0.00    -0.510 A  
HETATM   24  C   UNL     1     -13.868  14.597  72.817  1.00  0.00    -0.381 A  
HETATM   25  C   UNL     1     -13.222  15.809  73.049  1.00  0.00    -0.671 A  
HETATM   26  C   UNL     1     -12.055  16.117  72.357  1.00  0.00    -0.630 A  
HETATM   27  C   UNL     1     -11.536  15.215  71.423  1.00  0.00    -0.405 A  
ENDBRANCH  18  22
ENDBRANCH  16  18
ENDBRANCH  13  14
TORSDOF 3
ENDMDL
MODEL      115
REMARK 921   NORMALIZED FREE ENERGY PREDICTED BY IDOCK:   -4.53 KCAL/MOL
REMARK 922        TOTAL FREE ENERGY PREDICTED BY IDOCK:   -6.02 KCAL/MOL
REMARK 923 INTER-LIGAND FREE ENERGY PREDICTED BY IDOCK:   -5.45 KCAL/MOL
REMARK 924 INTRA-LIGAND FREE ENERGY PREDICTED BY IDOCK:   -0.58 KCAL/MOL
REMARK 927      BINDING AFFINITY PREDICTED BY RF-SCORE:    0.00 PKD
ROOT
HETATM    1  C   UNL     1      -9.788   8.472  72.220  1.00  0.00    -0.313 C  
HETATM    2  S   UNL     1      -8.859   7.489  71.015  1.00  0.00    -0.147 SA 
HETATM    3  C   UNL     1      -8.563   8.898  69.922  1.00  0.00    -0.137 C  
HETATM    4  C   UNL     1      -9.790   9.743  69.648  1.00  0.00    -0.221 C  
HETATM    5 CL   UNL     1      -9.561  10.626  68.157  1.00  0.00    -0.158 Cl 
HETATM    6  CA  UNL     1     -10.914   9.791  70.415  1.00  0.00    -0.312 C  
HETATM    7  N   UNL     1     -10.951   9.048  71.565  1.00  0.00    -0.321 N  
HETATM    8  C   UNL     1     -12.106  10.626  69.980  1.00  0.00    -0.316 C  
HETATM    9  C   UNL     1     -11.855   8.613  72.469  1.00  0.00    -0.272 C  
HETATM   10  O   UNL     1     -13.156  10.688  70.822  1.00  0.00    -0.341 OA 
HETATM   11  OXT UNL     1     -12.142  11.292  68.956  1.00  0.00    -0.394 OA 
HETATM   12  O   UNL     1     -13.031   8.865  72.564  1.00  0.00    -0.418 OA 
HETATM   13  CA  UNL     1     -10.780   7.676  73.126  1.00  0.00    -0.387 C  
ENDROOT
BRANCH  13  14
HETATM   14  N   UNL     1     -10.924   6.240  72.812  1.00  0.00    -0.250 N  
HETATM   15  H   UNL     1     -11.527   5.983  72.030  1.00  0.00     0.000 HD 
HETATM   16  C   UNL     1     -10.299   5.225  73.501  1.00  0.00    -0.220 C  
HETATM   17  O   UNL     1      -9.520   5.425  74.426  1.00  0.00    -0.129 OA 
BRANCH  16  18
HETATM   18  CA  UNL     1     -10.685   3.817  72.981  1.00  0.00    -0.145 C  
HETATM   19  H2  UNL     1     -11.514   3.245  74.825  1.00  0.00     0.000 HD 
HETATM   20  N   UNL     1     -10.848   2.891  74.138  1.00  0.00    -0.179 NA 
HETATM   21  H1  UNL     1     -11.101   1.964  73.796  1.00  0.00     0.000 HD 
BRANCH  18  22
HETATM   22  C   UNL     1      -9.673   3.296  71.977  1.00  0.00    -0.235 A  
HETATM   23  C   UNL     1      -8.732   2.335  72.384  1.00  0.00    -0.083 A  
HETATM   24  C   UNL     1      -7.780   1.843  71.488  1.00  0.00    -0.040 A  
HETATM   25  C   UNL     1      -7.760   2.296  70.172  1.00  0.00    -0.045 A  
HETATM   26  C   UNL     1      -8.698   3.231  69.745  1.00  0.00    -0.128 A  
HETATM   27  C   UNL     1      -9.654   3.722  70.639  1.00  0.00    -0.259 A  
ENDBRANCH  18  22
ENDBRANCH  16  18
ENDBRANCH  13  14
TORSDOF 3
ENDMDL
MODEL      116
REMARK 921   NORMALIZED FREE ENERGY PREDICTED BY IDOCK:   -4.53 KCAL/MOL
REMARK 922        TOTAL FREE ENERGY PREDICTED BY IDOCK:   -6.02 KCAL/MOL
REMARK 923 INTER-LIGAND FREE ENERGY PREDICTED BY IDOCK:   -5.36 KCAL/MOL
REMARK 924 INTRA-LIGAND FREE ENERGY PREDICTED BY IDOCK:   -0.67 KCAL/MOL
REMARK 927      BINDING AFFINITY PREDICTED BY RF-SCORE:    0.00 PKD
ROOT
HETATM    1  C   UNL     1      -8.714  14.247  68.946  1.00  0.00    -0.027 C  
HETATM    2  S   UNL     1      -9.673  15.690  69.471  1.00  0.00    -0.274 SA 
HETATM    3  C   UNL     1     -10.804  14.711  70.488  1.00  0.00     0.152 C  
HETATM    4  C   UNL     1     -11.338  13.469  69.807  1.00  0.00    -0.091 C  
HETATM    5 CL   UNL     1     -12.831  12.986  70.577  1.00  0.00    -0.078 Cl 
HETATM    6  CA  UNL     1     -10.772  12.836  68.743  1.00  0.00    -0.214 C  
HETATM    7  N   UNL     1      -9.592  13.324  68.245  1.00  0.00    -0.225 N  
HETATM    8  C   UNL     1     -11.458  11.639  68.107  1.00  0.00    -0.313 C  
HETATM    9  C   UNL     1      -8.820  13.198  67.145  1.00  0.00    -0.222 C  
HETATM   10  O   UNL     1     -10.807  11.015  67.105  1.00  0.00    -0.253 OA 
HETATM   11  OXT UNL     1     -12.520  11.172  68.490  1.00  0.00    -0.452 OA 
HETATM   12  O   UNL     1      -8.939  12.453  66.202  1.00  0.00    -0.112 OA 
HETATM   13  CA  UNL     1      -7.928  14.405  67.605  1.00  0.00    -0.179 C  
ENDROOT
BRANCH  13  14
HETATM   14  N   UNL     1      -8.155  15.668  66.874  1.00  0.00    -0.240 N  
HETATM   15  H   UNL     1      -9.082  15.828  66.480  1.00  0.00     0.000 HD 
HETATM   16  C   UNL     1      -7.202  16.644  66.689  1.00  0.00    -0.241 C  
HETATM   17  O   UNL     1      -6.071  16.572  67.158  1.00  0.00    -0.151 OA 
BRANCH  16  18
HETATM   18  CA  UNL     1      -7.713  17.830  65.832  1.00  0.00    -0.098 C  
HETATM   19  H2  UNL     1      -5.872  18.047  64.842  1.00  0.00     0.000 HD 
HETATM   20  N   UNL     1      -6.549  18.623  65.344  1.00  0.00    -0.431 NA 
HETATM   21  H1  UNL     1      -6.885  19.404  64.780  1.00  0.00     0.000 HD 
BRANCH  18  22
HETATM   22  C   UNL     1      -8.700  18.688  66.600  1.00  0.00    -0.307 A  
HETATM   23  C   UNL     1      -9.939  19.003  66.016  1.00  0.00    -0.334 A  
HETATM   24  C   UNL     1     -10.866  19.799  66.692  1.00  0.00    -0.421 A  
HETATM   25  C   UNL     1     -10.574  20.286  67.964  1.00  0.00    -0.208 A  
HETATM   26  C   UNL     1      -9.361  19.966  68.567  1.00  0.00    -0.300 A  
HETATM   27  C   UNL     1      -8.433  19.166  67.894  1.00  0.00    -0.335 A  
ENDBRANCH  18  22
ENDBRANCH  16  18
ENDBRANCH  13  14
TORSDOF 3
ENDMDL
MODEL      117
REMARK 921   NORMALIZED FREE ENERGY PREDICTED BY IDOCK:   -4.50 KCAL/MOL
REMARK 922        TOTAL FREE ENERGY PREDICTED BY IDOCK:   -6.00 KCAL/MOL
REMARK 923 INTER-LIGAND FREE ENERGY PREDICTED BY IDOCK:   -5.64 KCAL/MOL
REMARK 924 INTRA-LIGAND FREE ENERGY PREDICTED BY IDOCK:   -0.35 KCAL/MOL
REMARK 927      BINDING AFFINITY PREDICTED BY RF-SCORE:    0.00 PKD
ROOT
HETATM    1  C   UNL     1     -10.891   5.847  68.706  1.00  0.00    -0.283 C  
HETATM    2  S   UNL     1     -10.744   7.132  67.438  1.00  0.00    -0.287 SA 
HETATM    3  C   UNL     1      -9.486   6.227  66.505  1.00  0.00    -0.152 C  
HETATM    4  C   UNL     1      -8.367   5.661  67.355  1.00  0.00    -0.100 C  
HETATM    5 CL   UNL     1      -6.959   5.398  66.353  1.00  0.00    -0.063 Cl 
HETATM    6  CA  UNL     1      -8.425   5.421  68.694  1.00  0.00    -0.093 C  
HETATM    7  N   UNL     1      -9.601   5.669  69.352  1.00  0.00    -0.137 N  
HETATM    8  C   UNL     1      -7.198   4.923  69.438  1.00  0.00    -0.056 C  
HETATM    9  C   UNL     1     -10.053   5.802  70.617  1.00  0.00    -0.203 C  
HETATM   10  O   UNL     1      -7.344   4.635  70.746  1.00  0.00    -0.050 OA 
HETATM   11  OXT UNL     1      -6.117   4.705  68.913  1.00  0.00    -0.027 OA 
HETATM   12  O   UNL     1      -9.474   5.636  71.663  1.00  0.00    -0.149 OA 
HETATM   13  CA  UNL     1     -11.438   6.320  70.091  1.00  0.00    -0.382 C  
ENDROOT
BRANCH  13  14
HETATM   14  N   UNL     1     -11.659   7.773  70.230  1.00  0.00    -0.476 N  
HETATM   15  H   UNL     1     -11.712   8.330  69.377  1.00  0.00     0.000 HD 
HETATM   16  C   UNL     1     -11.799   8.429  71.433  1.00  0.00    -0.296 C  
HETATM   17  O   UNL     1     -11.796   7.851  72.514  1.00  0.00    -0.354 OA 
BRANCH  16  18
HETATM   18  CA  UNL     1     -11.961   9.962  71.269  1.00  0.00    -0.402 C  
HETATM   19  H2  UNL     1     -13.871   9.963  72.145  1.00  0.00     0.000 HD 
HETATM   20  N   UNL     1     -13.409  10.312  71.304  1.00  0.00    -0.332 NA 
HETATM   21  H1  UNL     1     -13.516  11.321  71.196  1.00  0.00     0.000 HD 
BRANCH  18  22
HETATM   22  C   UNL     1     -11.289  10.461  70.003  1.00  0.00    -0.384 A  
HETATM   23  C   UNL     1     -12.020  11.252  69.101  1.00  0.00    -0.405 A  
HETATM   24  C   UNL     1     -11.434  11.719  67.922  1.00  0.00    -0.387 A  
HETATM   25  C   UNL     1     -10.108  11.410  67.631  1.00  0.00    -0.200 A  
HETATM   26  C   UNL     1      -9.362  10.646  68.523  1.00  0.00    -0.170 A  
HETATM   27  C   UNL     1      -9.944  10.181  69.706  1.00  0.00    -0.258 A  
ENDBRANCH  18  22
ENDBRANCH  16  18
ENDBRANCH  13  14
TORSDOF 3
ENDMDL
MODEL      118
REMARK 921   NORMALIZED FREE ENERGY PREDICTED BY IDOCK:   -4.50 KCAL/MOL
REMARK 922        TOTAL FREE ENERGY PREDICTED BY IDOCK:   -5.99 KCAL/MOL
REMARK 923 INTER-LIGAND FREE ENERGY PREDICTED BY IDOCK:   -5.70 KCAL/MOL
REMARK 924 INTRA-LIGAND FREE ENERGY PREDICTED BY IDOCK:   -0.29 KCAL/MOL
REMARK 927      BINDING AFFINITY PREDICTED BY RF-SCORE:    0.00 PKD
ROOT
HETATM    1  C   UNL     1      -9.883  12.910  69.328  1.00  0.00     0.670 C  
HETATM    2  S   UNL     1     -11.519  13.657  69.116  1.00  0.00    -0.313 SA 
HETATM    3  C   UNL     1     -12.274  12.646  70.412  1.00  0.00    -0.288 C  
HETATM    4  C   UNL     1     -11.934  11.173  70.331  1.00  0.00    -0.378 C  
HETATM    5 CL   UNL     1     -13.159  10.251  71.170  1.00  0.00    -0.475 Cl 
HETATM    6  CA  UNL     1     -10.864  10.635  69.684  1.00  0.00    -0.268 C  
HETATM    7  N   UNL     1      -9.977  11.482  69.073  1.00  0.00    -0.089 N  
HETATM    8  C   UNL     1     -10.685   9.128  69.616  1.00  0.00    -0.225 C  
HETATM    9  C   UNL     1      -8.968  11.430  68.177  1.00  0.00    -0.169 C  
HETATM   10  O   UNL     1      -9.566   8.666  69.025  1.00  0.00    -0.159 OA 
HETATM   11  OXT UNL     1     -11.451   8.321  70.120  1.00  0.00    -0.150 OA 
HETATM   12  O   UNL     1      -8.449  10.471  67.658  1.00  0.00    -0.115 OA 
HETATM   13  CA  UNL     1      -8.932  12.997  68.092  1.00  0.00    -0.198 C  
ENDROOT
BRANCH  13  14
HETATM   14  N   UNL     1      -9.523  13.573  66.867  1.00  0.00    -0.250 N  
HETATM   15  H   UNL     1     -10.024  12.943  66.241  1.00  0.00     0.000 HD 
HETATM   16  C   UNL     1      -9.446  14.901  66.514  1.00  0.00    -0.283 C  
HETATM   17  O   UNL     1      -8.907  15.749  67.217  1.00  0.00    -0.183 OA 
BRANCH  16  18
HETATM   18  CA  UNL     1     -10.109  15.201  65.146  1.00  0.00    -0.296 C  
HETATM   19  H2  UNL     1     -10.334  17.245  65.582  1.00  0.00     0.000 HD 
HETATM   20  N   UNL     1     -10.897  16.463  65.246  1.00  0.00    -0.463 NA 
HETATM   21  H1  UNL     1     -11.334  16.660  64.346  1.00  0.00     0.000 HD 
BRANCH  18  22
HETATM   22  C   UNL     1     -10.961  14.038  64.673  1.00  0.00    -0.401 A  
HETATM   23  C   UNL     1     -10.387  13.054  63.850  1.00  0.00    -0.153 A  
HETATM   24  C   UNL     1     -11.146  11.976  63.389  1.00  0.00    -0.476 A  
HETATM   25  C   UNL     1     -12.486  11.861  63.748  1.00  0.00    -0.537 A  
HETATM   26  C   UNL     1     -13.066  12.814  64.580  1.00  0.00    -0.048 A  
HETATM   27  C   UNL     1     -12.307  13.892  65.046  1.00  0.00    -0.452 A  
ENDBRANCH  18  22
ENDBRANCH  16  18
ENDBRANCH  13  14
TORSDOF 3
ENDMDL
MODEL      119
REMARK 921   NORMALIZED FREE ENERGY PREDICTED BY IDOCK:   -4.48 KCAL/MOL
REMARK 922        TOTAL FREE ENERGY PREDICTED BY IDOCK:   -5.97 KCAL/MOL
REMARK 923 INTER-LIGAND FREE ENERGY PREDICTED BY IDOCK:   -5.45 KCAL/MOL
REMARK 924 INTRA-LIGAND FREE ENERGY PREDICTED BY IDOCK:   -0.52 KCAL/MOL
REMARK 927      BINDING AFFINITY PREDICTED BY RF-SCORE:    0.00 PKD
ROOT
HETATM    1  C   UNL     1      -9.077  11.071  65.635  1.00  0.00    -0.206 C  
HETATM    2  S   UNL     1     -10.886  11.112  65.572  1.00  0.00    -0.072 SA 
HETATM    3  C   UNL     1     -10.959  12.919  65.574  1.00  0.00    -0.274 C  
HETATM    4  C   UNL     1     -10.074  13.578  66.611  1.00  0.00    -0.277 C  
HETATM    5 CL   UNL     1     -10.680  15.182  66.951  1.00  0.00    -0.303 Cl 
HETATM    6  CA  UNL     1      -8.995  13.010  67.217  1.00  0.00    -0.212 C  
HETATM    7  N   UNL     1      -8.630  11.743  66.845  1.00  0.00    -0.172 N  
HETATM    8  C   UNL     1      -8.240  13.759  68.301  1.00  0.00    -0.156 C  
HETATM    9  C   UNL     1      -7.838  10.740  67.282  1.00  0.00    -0.113 C  
HETATM   10  O   UNL     1      -7.138  13.170  68.805  1.00  0.00    -0.100 OA 
HETATM   11  OXT UNL     1      -8.529  14.880  68.692  1.00  0.00    -0.152 OA 
HETATM   12  O   UNL     1      -7.067  10.717  68.210  1.00  0.00    -0.078 OA 
HETATM   13  CA  UNL     1      -8.447   9.764  66.214  1.00  0.00    -0.123 C  
ENDROOT
BRANCH  13  14
HETATM   14  N   UNL     1      -9.403   8.771  66.743  1.00  0.00    -0.166 N  
HETATM   15  H   UNL     1     -10.384   8.872  66.482  1.00  0.00     0.000 HD 
HETATM   16  C   UNL     1      -9.062   7.720  67.564  1.00  0.00    -0.129 C  
HETATM   17  O   UNL     1      -7.908   7.483  67.902  1.00  0.00    -0.113 OA 
BRANCH  16  18
HETATM   18  CA  UNL     1     -10.287   6.880  68.007  1.00  0.00    -0.192 C  
HETATM   19  H2  UNL     1     -11.096   6.839  66.068  1.00  0.00     0.000 HD 
HETATM   20  N   UNL     1     -11.390   7.057  67.020  1.00  0.00    -0.618 NA 
HETATM   21  H1  UNL     1     -12.196   6.504  67.312  1.00  0.00     0.000 HD 
BRANCH  18  22
HETATM   22  C   UNL     1     -10.725   7.232  69.416  1.00  0.00    -0.236 A  
HETATM   23  C   UNL     1     -10.583   8.553  69.871  1.00  0.00    -0.228 A  
HETATM   24  C   UNL     1     -10.967   8.909  71.167  1.00  0.00    -0.356 A  
HETATM   25  C   UNL     1     -11.507   7.952  72.022  1.00  0.00    -0.351 A  
HETATM   26  C   UNL     1     -11.676   6.643  71.581  1.00  0.00    -0.362 A  
HETATM   27  C   UNL     1     -11.296   6.286  70.284  1.00  0.00    -0.457 A  
ENDBRANCH  18  22
ENDBRANCH  16  18
ENDBRANCH  13  14
TORSDOF 3
ENDMDL
MODEL      120
REMARK 921   NORMALIZED FREE ENERGY PREDICTED BY IDOCK:   -4.48 KCAL/MOL
REMARK 922        TOTAL FREE ENERGY PREDICTED BY IDOCK:   -5.96 KCAL/MOL
REMARK 923 INTER-LIGAND FREE ENERGY PREDICTED BY IDOCK:   -5.45 KCAL/MOL
REMARK 924 INTRA-LIGAND FREE ENERGY PREDICTED BY IDOCK:   -0.52 KCAL/MOL
REMARK 927      BINDING AFFINITY PREDICTED BY RF-SCORE:    0.00 PKD
ROOT
HETATM    1  C   UNL     1      -8.710   9.102  67.835  1.00  0.00    -0.128 C  
HETATM    2  S   UNL     1      -8.567  10.410  69.079  1.00  0.00    -0.159 SA 
HETATM    3  C   UNL     1      -7.697   9.351  70.259  1.00  0.00    -0.144 C  
HETATM    4  C   UNL     1      -8.324   7.986  70.450  1.00  0.00    -0.120 C  
HETATM    5 CL   UNL     1      -7.828   7.334  71.994  1.00  0.00    -0.090 Cl 
HETATM    6  CA  UNL     1      -9.167   7.365  69.580  1.00  0.00    -0.146 C  
HETATM    7  N   UNL     1      -9.464   7.994  68.398  1.00  0.00    -0.144 N  
HETATM    8  C   UNL     1      -9.787   6.025  69.934  1.00  0.00    -0.170 C  
HETATM    9  C   UNL     1     -10.359   7.902  67.392  1.00  0.00    -0.279 C  
HETATM   10  O   UNL     1     -10.553   5.432  68.996  1.00  0.00    -0.217 OA 
HETATM   11  OXT UNL     1      -9.580   5.426  70.978  1.00  0.00    -0.161 OA 
HETATM   12  O   UNL     1     -11.213   7.072  67.194  1.00  0.00    -0.315 OA 
HETATM   13  CA  UNL     1      -9.869   9.271  66.801  1.00  0.00    -0.225 C  
ENDROOT
BRANCH  13  14
HETATM   14  N   UNL     1     -10.773  10.415  67.035  1.00  0.00    -0.256 N  
HETATM   15  H   UNL     1     -11.329  10.414  67.889  1.00  0.00     0.000 HD 
HETATM   16  C   UNL     1     -10.916  11.484  66.178  1.00  0.00    -0.266 C  
HETATM   17  O   UNL     1     -10.264  11.606  65.147  1.00  0.00    -0.250 OA 
BRANCH  16  18
HETATM   18  CA  UNL     1     -11.981  12.503  66.658  1.00  0.00    -0.281 C  
HETATM   19  H2  UNL     1     -12.968  12.507  64.802  1.00  0.00     0.000 HD 
HETATM   20  N   UNL     1     -12.589  13.175  65.474  1.00  0.00    -0.488 NA 
HETATM   21  H1  UNL     1     -13.289  13.847  65.790  1.00  0.00     0.000 HD 
BRANCH  18  22
HETATM   22  C   UNL     1     -11.395  13.502  67.637  1.00  0.00    -0.326 A  
HETATM   23  C   UNL     1     -12.252  14.201  68.504  1.00  0.00    -0.204 A  
HETATM   24  C   UNL     1     -11.745  15.135  69.411  1.00  0.00    -0.355 A  
HETATM   25  C   UNL     1     -10.376  15.378  69.471  1.00  0.00    -0.269 A  
HETATM   26  C   UNL     1      -9.509  14.679  68.636  1.00  0.00    -0.211 A  
HETATM   27  C   UNL     1     -10.013  13.741  67.730  1.00  0.00    -0.242 A  
ENDBRANCH  18  22
ENDBRANCH  16  18
ENDBRANCH  13  14
TORSDOF 3
ENDMDL
MODEL      121
REMARK 921   NORMALIZED FREE ENERGY PREDICTED BY IDOCK:   -4.47 KCAL/MOL
REMARK 922        TOTAL FREE ENERGY PREDICTED BY IDOCK:   -5.96 KCAL/MOL
REMARK 923 INTER-LIGAND FREE ENERGY PREDICTED BY IDOCK:   -6.69 KCAL/MOL
REMARK 924 INTRA-LIGAND FREE ENERGY PREDICTED BY IDOCK:    0.73 KCAL/MOL
REMARK 927      BINDING AFFINITY PREDICTED BY RF-SCORE:    0.00 PKD
ROOT
HETATM    1  C   UNL     1     -11.638  14.757  66.750  1.00  0.00    -0.324 C  
HETATM    2  S   UNL     1     -10.206  15.033  65.676  1.00  0.00    -0.388 SA 
HETATM    3  C   UNL     1     -10.430  13.474  64.786  1.00  0.00    -0.413 C  
HETATM    4  C   UNL     1     -10.674  12.276  65.678  1.00  0.00    -0.267 C  
HETATM    5 CL   UNL     1     -10.243  10.818  64.817  1.00  0.00    -0.391 Cl 
HETATM    6  CA  UNL     1     -11.125  12.316  66.962  1.00  0.00    -0.287 C  
HETATM    7  N   UNL     1     -11.431  13.534  67.509  1.00  0.00    -0.311 N  
HETATM    8  C   UNL     1     -11.251  11.037  67.772  1.00  0.00    -0.308 C  
HETATM    9  C   UNL     1     -11.674  14.076  68.722  1.00  0.00    -0.353 C  
HETATM   10  O   UNL     1     -11.775  11.139  69.010  1.00  0.00    -0.287 OA 
HETATM   11  OXT UNL     1     -10.974   9.925  67.349  1.00  0.00    -0.269 OA 
HETATM   12  O   UNL     1     -11.779  13.538  69.798  1.00  0.00    -0.293 OA 
HETATM   13  CA  UNL     1     -11.622  15.521  68.112  1.00  0.00    -0.304 C  
ENDROOT
BRANCH  13  14
HETATM   14  N   UNL     1     -10.391  16.282  68.406  1.00  0.00    -0.259 N  
HETATM   15  H   UNL     1      -9.659  15.814  68.939  1.00  0.00     0.000 HD 
HETATM   16  C   UNL     1     -10.164  17.581  68.008  1.00  0.00    -0.354 C  
HETATM   17  O   UNL     1     -10.958  18.220  67.327  1.00  0.00    -0.312 OA 
BRANCH  16  18
HETATM   18  CA  UNL     1      -8.808  18.137  68.512  1.00  0.00    -0.299 C  
HETATM   19  H2  UNL     1      -9.349  20.126  68.102  1.00  0.00     0.000 HD 
HETATM   20  N   UNL     1      -8.577  19.485  67.919  1.00  0.00    -0.309 NA 
HETATM   21  H1  UNL     1      -7.684  19.851  68.249  1.00  0.00     0.000 HD 
BRANCH  18  22
HETATM   22  C   UNL     1      -7.668  17.183  68.211  1.00  0.00    -0.220 A  
HETATM   23  C   UNL     1      -6.344  17.600  68.431  1.00  0.00    -0.187 A  
HETATM   24  C   UNL     1      -5.271  16.750  68.154  1.00  0.00    -0.117 A  
HETATM   25  C   UNL     1      -5.504  15.468  67.663  1.00  0.00    -0.087 A  
HETATM   26  C   UNL     1      -6.809  15.030  67.460  1.00  0.00    -0.197 A  
HETATM   27  C   UNL     1      -7.885  15.877  67.740  1.00  0.00    -0.153 A  
ENDBRANCH  18  22
ENDBRANCH  16  18
ENDBRANCH  13  14
TORSDOF 3
ENDMDL
MODEL      122
REMARK 921   NORMALIZED FREE ENERGY PREDICTED BY IDOCK:   -4.43 KCAL/MOL
REMARK 922        TOTAL FREE ENERGY PREDICTED BY IDOCK:   -5.91 KCAL/MOL
REMARK 923 INTER-LIGAND FREE ENERGY PREDICTED BY IDOCK:   -5.40 KCAL/MOL
REMARK 924 INTRA-LIGAND FREE ENERGY PREDICTED BY IDOCK:   -0.50 KCAL/MOL
REMARK 927      BINDING AFFINITY PREDICTED BY RF-SCORE:    0.00 PKD
ROOT
HETATM    1  C   UNL     1     -12.368  10.940  69.945  1.00  0.00    -0.285 C  
HETATM    2  S   UNL     1     -12.346  10.473  71.694  1.00  0.00    -0.177 SA 
HETATM    3  C   UNL     1     -13.448  11.820  72.185  1.00  0.00    -0.168 C  
HETATM    4  C   UNL     1     -13.081  13.169  71.604  1.00  0.00    -0.353 C  
HETATM    5 CL   UNL     1     -13.764  14.432  72.601  1.00  0.00    -0.569 Cl 
HETATM    6  CA  UNL     1     -12.314  13.381  70.499  1.00  0.00    -0.329 C  
HETATM    7  N   UNL     1     -11.850  12.292  69.808  1.00  0.00    -0.329 N  
HETATM    8  C   UNL     1     -11.959  14.793  70.069  1.00  0.00    -0.316 C  
HETATM    9  C   UNL     1     -10.933  12.000  68.861  1.00  0.00    -0.232 C  
HETATM   10  O   UNL     1     -11.260  14.933  68.926  1.00  0.00    -0.243 OA 
HETATM   11  OXT UNL     1     -12.322  15.802  70.654  1.00  0.00    -0.408 OA 
HETATM   12  O   UNL     1     -10.229  12.739  68.218  1.00  0.00    -0.233 OA 
HETATM   13  CA  UNL     1     -11.145  10.463  69.098  1.00  0.00    -0.246 C  
ENDROOT
BRANCH  13  14
HETATM   14  N   UNL     1     -10.068   9.790  69.852  1.00  0.00    -0.236 N  
HETATM   15  H   UNL     1      -9.306  10.367  70.209  1.00  0.00     0.000 HD 
HETATM   16  C   UNL     1     -10.021   8.438  70.107  1.00  0.00    -0.187 C  
HETATM   17  O   UNL     1     -10.906   7.662  69.763  1.00  0.00    -0.249 OA 
BRANCH  16  18
HETATM   18  CA  UNL     1      -8.741   8.012  70.870  1.00  0.00    -0.138 C  
HETATM   19  H2  UNL     1      -9.573   8.478  72.743  1.00  0.00     0.000 HD 
HETATM   20  N   UNL     1      -8.724   8.667  72.209  1.00  0.00    -0.369 NA 
HETATM   21  H1  UNL     1      -7.882   8.387  72.711  1.00  0.00     0.000 HD 
BRANCH  18  22
HETATM   22  C   UNL     1      -7.488   8.320  70.073  1.00  0.00    -0.064 A  
HETATM   23  C   UNL     1      -7.288   7.691  68.833  1.00  0.00    -0.090 A  
HETATM   24  C   UNL     1      -6.140   7.944  68.079  1.00  0.00    -0.046 A  
HETATM   25  C   UNL     1      -5.179   8.836  68.548  1.00  0.00    -0.037 A  
HETATM   26  C   UNL     1      -5.370   9.486  69.764  1.00  0.00    -0.033 A  
HETATM   27  C   UNL     1      -6.520   9.236  70.519  1.00  0.00    -0.067 A  
ENDBRANCH  18  22
ENDBRANCH  16  18
ENDBRANCH  13  14
TORSDOF 3
ENDMDL
MODEL      123
REMARK 921   NORMALIZED FREE ENERGY PREDICTED BY IDOCK:   -4.42 KCAL/MOL
REMARK 922        TOTAL FREE ENERGY PREDICTED BY IDOCK:   -5.90 KCAL/MOL
REMARK 923 INTER-LIGAND FREE ENERGY PREDICTED BY IDOCK:   -5.24 KCAL/MOL
REMARK 924 INTRA-LIGAND FREE ENERGY PREDICTED BY IDOCK:   -0.65 KCAL/MOL
REMARK 927      BINDING AFFINITY PREDICTED BY RF-SCORE:    0.00 PKD
ROOT
HETATM    1  C   UNL     1      -7.959  10.229  67.818  1.00  0.00    -0.102 C  
HETATM    2  S   UNL     1      -9.679   9.988  67.306  1.00  0.00    -0.174 SA 
HETATM    3  C   UNL     1      -9.248   8.789  66.022  1.00  0.00    -0.222 C  
HETATM    4  C   UNL     1      -8.092   9.210  65.140  1.00  0.00    -0.130 C  
HETATM    5 CL   UNL     1      -8.181   8.349  63.622  1.00  0.00    -0.140 Cl 
HETATM    6  CA  UNL     1      -7.144  10.136  65.454  1.00  0.00    -0.143 C  
HETATM    7  N   UNL     1      -7.194  10.729  66.688  1.00  0.00    -0.127 N  
HETATM    8  C   UNL     1      -6.080  10.520  64.440  1.00  0.00    -0.025 C  
HETATM    9  C   UNL     1      -6.663  11.791  67.332  1.00  0.00    -0.120 C  
HETATM   10  O   UNL     1      -5.129  11.387  64.842  1.00  0.00    -0.158 OA 
HETATM   11  OXT UNL     1      -5.996  10.045  63.318  1.00  0.00    -0.112 OA 
HETATM   12  O   UNL     1      -5.817  12.569  66.964  1.00  0.00    -0.304 OA 
HETATM   13  CA  UNL     1      -7.648  11.582  68.536  1.00  0.00    -0.130 C  
ENDROOT
BRANCH  13  14
HETATM   14  N   UNL     1      -8.767  12.543  68.605  1.00  0.00    -0.373 N  
HETATM   15  H   UNL     1      -9.709  12.187  68.443  1.00  0.00     0.000 HD 
HETATM   16  C   UNL     1      -8.627  13.886  68.872  1.00  0.00     0.098 C  
HETATM   17  O   UNL     1      -7.546  14.408  69.124  1.00  0.00    -0.126 OA 
BRANCH  16  18
HETATM   18  CA  UNL     1      -9.971  14.655  68.821  1.00  0.00    -0.235 C  
HETATM   19  H2  UNL     1     -10.372  14.305  70.855  1.00  0.00     0.000 HD 
HETATM   20  N   UNL     1     -10.837  14.211  69.951  1.00  0.00    -0.459 NA 
HETATM   21  H1  UNL     1     -11.722  14.716  69.917  1.00  0.00     0.000 HD 
BRANCH  18  22
HETATM   22  C   UNL     1     -10.660  14.486  67.480  1.00  0.00    -0.262 A  
HETATM   23  C   UNL     1      -9.993  14.881  66.309  1.00  0.00    -0.300 A  
HETATM   24  C   UNL     1     -10.603  14.749  65.059  1.00  0.00    -0.452 A  
HETATM   25  C   UNL     1     -11.884  14.213  64.961  1.00  0.00    -0.390 A  
HETATM   26  C   UNL     1     -12.552  13.795  66.108  1.00  0.00    -0.423 A  
HETATM   27  C   UNL     1     -11.942  13.923  67.359  1.00  0.00    -0.436 A  
ENDBRANCH  18  22
ENDBRANCH  16  18
ENDBRANCH  13  14
TORSDOF 3
ENDMDL
MODEL      124
REMARK 921   NORMALIZED FREE ENERGY PREDICTED BY IDOCK:   -4.42 KCAL/MOL
REMARK 922        TOTAL FREE ENERGY PREDICTED BY IDOCK:   -5.90 KCAL/MOL
REMARK 923 INTER-LIGAND FREE ENERGY PREDICTED BY IDOCK:   -5.49 KCAL/MOL
REMARK 924 INTRA-LIGAND FREE ENERGY PREDICTED BY IDOCK:   -0.40 KCAL/MOL
REMARK 927      BINDING AFFINITY PREDICTED BY RF-SCORE:    0.00 PKD
ROOT
HETATM    1  C   UNL     1      -8.860   7.134  67.086  1.00  0.00    -0.121 C  
HETATM    2  S   UNL     1     -10.612   6.694  66.960  1.00  0.00    -0.347 SA 
HETATM    3  C   UNL     1     -10.280   4.916  66.933  1.00  0.00    -0.211 C  
HETATM    4  C   UNL     1      -9.172   4.503  65.987  1.00  0.00    -0.141 C  
HETATM    5 CL   UNL     1      -9.368   2.817  65.570  1.00  0.00    -0.110 Cl 
HETATM    6  CA  UNL     1      -8.191   5.314  65.503  1.00  0.00    -0.124 C  
HETATM    7  N   UNL     1      -8.156   6.618  65.923  1.00  0.00    -0.119 N  
HETATM    8  C   UNL     1      -7.184   4.786  64.496  1.00  0.00    -0.062 C  
HETATM    9  C   UNL     1      -7.569   7.785  65.581  1.00  0.00    -0.085 C  
HETATM   10  O   UNL     1      -6.196   5.620  64.116  1.00  0.00    -0.024 OA 
HETATM   11  OXT UNL     1      -7.176   3.643  64.067  1.00  0.00    -0.049 OA 
HETATM   12  O   UNL     1      -6.734   8.008  64.739  1.00  0.00    -0.057 OA 
HETATM   13  CA  UNL     1      -8.483   8.567  66.590  1.00  0.00    -0.113 C  
ENDROOT
BRANCH  13  14
HETATM   14  N   UNL     1      -9.579   9.341  65.973  1.00  0.00    -0.251 N  
HETATM   15  H   UNL     1     -10.536   9.067  66.195  1.00  0.00     0.000 HD 
HETATM   16  C   UNL     1      -9.398  10.406  65.120  1.00  0.00    -0.222 C  
HETATM   17  O   UNL     1      -8.292  10.844  64.823  1.00  0.00    -0.061 OA 
BRANCH  16  18
HETATM   18  CA  UNL     1     -10.733  10.983  64.584  1.00  0.00    -0.248 C  
HETATM   19  H2  UNL     1     -10.503  10.062  62.709  1.00  0.00     0.000 HD 
HETATM   20  N   UNL     1     -10.707  10.986  63.094  1.00  0.00    -0.789 NA 
HETATM   21  H1  UNL     1     -11.585  11.366  62.741  1.00  0.00     0.000 HD 
BRANCH  18  22
HETATM   22  C   UNL     1     -11.009  12.365  65.148  1.00  0.00    -0.339 A  
HETATM   23  C   UNL     1     -11.746  12.488  66.337  1.00  0.00    -0.458 A  
HETATM   24  C   UNL     1     -12.027  13.746  66.877  1.00  0.00    -0.460 A  
HETATM   25  C   UNL     1     -11.568  14.897  66.241  1.00  0.00    -0.233 A  
HETATM   26  C   UNL     1     -10.818  14.793  65.074  1.00  0.00    -0.440 A  
HETATM   27  C   UNL     1     -10.532  13.535  64.534  1.00  0.00    -0.426 A  
ENDBRANCH  18  22
ENDBRANCH  16  18
ENDBRANCH  13  14
TORSDOF 3
ENDMDL
MODEL      125
REMARK 921   NORMALIZED FREE ENERGY PREDICTED BY IDOCK:   -4.41 KCAL/MOL
REMARK 922        TOTAL FREE ENERGY PREDICTED BY IDOCK:   -5.89 KCAL/MOL
REMARK 923 INTER-LIGAND FREE ENERGY PREDICTED BY IDOCK:   -5.59 KCAL/MOL
REMARK 924 INTRA-LIGAND FREE ENERGY PREDICTED BY IDOCK:   -0.29 KCAL/MOL
REMARK 927      BINDING AFFINITY PREDICTED BY RF-SCORE:    0.00 PKD
ROOT
HETATM    1  C   UNL     1     -11.953  12.601  68.103  1.00  0.00    -0.222 C  
HETATM    2  S   UNL     1     -11.041  13.282  69.511  1.00  0.00     0.065 SA 
HETATM    3  C   UNL     1     -11.397  14.997  69.058  1.00  0.00    -0.290 C  
HETATM    4  C   UNL     1     -11.172  15.314  67.594  1.00  0.00    -0.320 C  
HETATM    5 CL   UNL     1     -10.922  17.034  67.409  1.00  0.00    -0.150 Cl 
HETATM    6  CA  UNL     1     -11.135  14.409  66.578  1.00  0.00    -0.331 C  
HETATM    7  N   UNL     1     -11.356  13.089  66.870  1.00  0.00    -0.296 N  
HETATM    8  C   UNL     1     -10.822  14.858  65.161  1.00  0.00    -0.414 C  
HETATM    9  C   UNL     1     -11.205  11.877  66.294  1.00  0.00    -0.337 C  
HETATM   10  O   UNL     1     -10.875  13.923  64.191  1.00  0.00    -0.255 OA 
HETATM   11  OXT UNL     1     -10.594  16.015  64.840  1.00  0.00    -0.587 OA 
HETATM   12  O   UNL     1     -10.859  11.597  65.172  1.00  0.00    -0.290 OA 
HETATM   13  CA  UNL     1     -11.534  11.165  67.653  1.00  0.00    -0.250 C  
ENDROOT
BRANCH  13  14
HETATM   14  N   UNL     1     -10.371  10.587  68.356  1.00  0.00    -0.168 N  
HETATM   15  H   UNL     1      -9.465  10.631  67.890  1.00  0.00     0.000 HD 
HETATM   16  C   UNL     1     -10.425   9.994  69.598  1.00  0.00    -0.248 C  
HETATM   17  O   UNL     1     -11.454   9.929  70.263  1.00  0.00    -0.260 OA 
BRANCH  16  18
HETATM   18  CA  UNL     1      -9.058   9.427  70.056  1.00  0.00    -0.220 C  
HETATM   19  H2  UNL     1      -8.419  11.283  70.808  1.00  0.00     0.000 HD 
HETATM   20  N   UNL     1      -8.080  10.545  70.190  1.00  0.00    -0.359 NA 
HETATM   21  H1  UNL     1      -7.180  10.171  70.491  1.00  0.00     0.000 HD 
BRANCH  18  22
HETATM   22  C   UNL     1      -8.558   8.347  69.114  1.00  0.00    -0.134 A  
HETATM   23  C   UNL     1      -9.207   7.102  69.088  1.00  0.00    -0.139 A  
HETATM   24  C   UNL     1      -8.766   6.083  68.240  1.00  0.00    -0.113 A  
HETATM   25  C   UNL     1      -7.676   6.296  67.401  1.00  0.00    -0.097 A  
HETATM   26  C   UNL     1      -7.034   7.531  67.397  1.00  0.00    -0.083 A  
HETATM   27  C   UNL     1      -7.476   8.553  68.242  1.00  0.00    -0.096 A  
ENDBRANCH  18  22
ENDBRANCH  16  18
ENDBRANCH  13  14
TORSDOF 3
ENDMDL
MODEL      126
REMARK 921   NORMALIZED FREE ENERGY PREDICTED BY IDOCK:   -4.39 KCAL/MOL
REMARK 922        TOTAL FREE ENERGY PREDICTED BY IDOCK:   -5.86 KCAL/MOL
REMARK 923 INTER-LIGAND FREE ENERGY PREDICTED BY IDOCK:   -7.09 KCAL/MOL
REMARK 924 INTRA-LIGAND FREE ENERGY PREDICTED BY IDOCK:    1.23 KCAL/MOL
REMARK 927      BINDING AFFINITY PREDICTED BY RF-SCORE:    0.00 PKD
ROOT
HETATM    1  C   UNL     1      -9.863  16.199  68.430  1.00  0.00    -0.222 C  
HETATM    2  S   UNL     1      -9.165  14.562  68.767  1.00  0.00    -0.119 SA 
HETATM    3  C   UNL     1      -7.529  15.218  69.173  1.00  0.00    -0.179 C  
HETATM    4  C   UNL     1      -7.005  16.240  68.187  1.00  0.00    -0.128 C  
HETATM    5 CL   UNL     1      -5.262  16.311  68.302  1.00  0.00    -0.098 Cl 
HETATM    6  CA  UNL     1      -7.757  16.972  67.319  1.00  0.00    -0.171 C  
HETATM    7  N   UNL     1      -9.119  16.817  67.345  1.00  0.00    -0.215 N  
HETATM    8  C   UNL     1      -7.091  17.909  66.327  1.00  0.00    -0.286 C  
HETATM    9  C   UNL     1     -10.194  17.119  66.586  1.00  0.00    -0.319 C  
HETATM   10  O   UNL     1      -7.898  18.658  65.549  1.00  0.00    -0.419 OA 
HETATM   11  OXT UNL     1      -5.884  18.073  66.240  1.00  0.00    -0.150 OA 
HETATM   12  O   UNL     1     -10.261  17.770  65.572  1.00  0.00    -0.589 OA 
HETATM   13  CA  UNL     1     -11.112  16.224  67.491  1.00  0.00    -0.140 C  
ENDROOT
BRANCH  13  14
HETATM   14  N   UNL     1     -11.499  14.926  66.904  1.00  0.00    -0.341 N  
HETATM   15  H   UNL     1     -12.330  14.466  67.274  1.00  0.00     0.000 HD 
HETATM   16  C   UNL     1     -10.814  14.294  65.890  1.00  0.00    -0.300 C  
HETATM   17  O   UNL     1      -9.830  14.780  65.344  1.00  0.00    -0.345 OA 
BRANCH  16  18
HETATM   18  CA  UNL     1     -11.421  12.917  65.520  1.00  0.00    -0.326 C  
HETATM   19  H2  UNL     1     -13.000  13.783  64.437  1.00  0.00     0.000 HD 
HETATM   20  N   UNL     1     -12.860  13.089  65.172  1.00  0.00    -0.748 NA 
HETATM   21  H1  UNL     1     -13.260  12.183  64.929  1.00  0.00     0.000 HD 
BRANCH  18  22
HETATM   22  C   UNL     1     -11.225  11.903  66.632  1.00  0.00    -0.384 A  
HETATM   23  C   UNL     1     -11.774  12.158  67.900  1.00  0.00    -0.403 A  
HETATM   24  C   UNL     1     -11.603  11.251  68.948  1.00  0.00    -0.386 A  
HETATM   25  C   UNL     1     -10.890  10.073  68.743  1.00  0.00    -0.252 A  
HETATM   26  C   UNL     1     -10.358   9.793  67.488  1.00  0.00    -0.291 A  
HETATM   27  C   UNL     1     -10.531  10.698  66.436  1.00  0.00    -0.276 A  
ENDBRANCH  18  22
ENDBRANCH  16  18
ENDBRANCH  13  14
TORSDOF 3
ENDMDL
MODEL      127
REMARK 921   NORMALIZED FREE ENERGY PREDICTED BY IDOCK:   -4.38 KCAL/MOL
REMARK 922        TOTAL FREE ENERGY PREDICTED BY IDOCK:   -5.85 KCAL/MOL
REMARK 923 INTER-LIGAND FREE ENERGY PREDICTED BY IDOCK:   -5.31 KCAL/MOL
REMARK 924 INTRA-LIGAND FREE ENERGY PREDICTED BY IDOCK:   -0.55 KCAL/MOL
REMARK 927      BINDING AFFINITY PREDICTED BY RF-SCORE:    0.00 PKD
ROOT
HETATM    1  C   UNL     1     -12.068  11.114  69.249  1.00  0.00    -0.308 C  
HETATM    2  S   UNL     1     -11.953  10.237  70.829  1.00  0.00    -0.389 SA 
HETATM    3  C   UNL     1     -13.066  11.384  71.676  1.00  0.00    -0.393 C  
HETATM    4  C   UNL     1     -12.760  12.846  71.428  1.00  0.00    -0.270 C  
HETATM    5 CL   UNL     1     -13.428  13.803  72.729  1.00  0.00    -0.604 Cl 
HETATM    6  CA  UNL     1     -12.051  13.347  70.380  1.00  0.00    -0.333 C  
HETATM    7  N   UNL     1     -11.591  12.476  69.427  1.00  0.00    -0.300 N  
HETATM    8  C   UNL     1     -11.751  14.833  70.295  1.00  0.00    -0.298 C  
HETATM    9  C   UNL     1     -10.711  12.456  68.403  1.00  0.00    -0.235 C  
HETATM   10  O   UNL     1     -11.109  15.272  69.194  1.00  0.00    -0.235 OA 
HETATM   11  OXT UNL     1     -12.113  15.656  71.122  1.00  0.00    -0.336 OA 
HETATM   12  O   UNL     1     -10.057  13.354  67.933  1.00  0.00    -0.226 OA 
HETATM   13  CA  UNL     1     -10.873  10.900  68.265  1.00  0.00    -0.225 C  
ENDROOT
BRANCH  13  14
HETATM   14  N   UNL     1      -9.745  10.104  68.790  1.00  0.00    -0.165 N  
HETATM   15  H   UNL     1      -9.894   9.583  69.654  1.00  0.00     0.000 HD 
HETATM   16  C   UNL     1      -8.508  10.016  68.193  1.00  0.00    -0.114 C  
HETATM   17  O   UNL     1      -8.237  10.566  67.131  1.00  0.00    -0.121 OA 
BRANCH  16  18
HETATM   18  CA  UNL     1      -7.507   9.154  69.004  1.00  0.00    -0.074 C  
HETATM   19  H2  UNL     1      -5.953  10.550  68.775  1.00  0.00     0.000 HD 
HETATM   20  N   UNL     1      -6.114   9.550  68.650  1.00  0.00    -0.043 NA 
HETATM   21  H1  UNL     1      -5.456   8.982  69.183  1.00  0.00     0.000 HD 
BRANCH  18  22
HETATM   22  C   UNL     1      -7.746   7.671  68.788  1.00  0.00    -0.118 A  
HETATM   23  C   UNL     1      -7.717   7.151  67.484  1.00  0.00    -0.111 A  
HETATM   24  C   UNL     1      -7.943   5.793  67.250  1.00  0.00    -0.102 A  
HETATM   25  C   UNL     1      -8.194   4.933  68.315  1.00  0.00    -0.085 A  
HETATM   26  C   UNL     1      -8.205   5.426  69.617  1.00  0.00    -0.100 A  
HETATM   27  C   UNL     1      -7.975   6.784  69.854  1.00  0.00    -0.120 A  
ENDBRANCH  18  22
ENDBRANCH  16  18
ENDBRANCH  13  14
TORSDOF 3
ENDMDL
MODEL      128
REMARK 921   NORMALIZED FREE ENERGY PREDICTED BY IDOCK:   -4.38 KCAL/MOL
REMARK 922        TOTAL FREE ENERGY PREDICTED BY IDOCK:   -5.85 KCAL/MOL
REMARK 923 INTER-LIGAND FREE ENERGY PREDICTED BY IDOCK:   -5.35 KCAL/MOL
REMARK 924 INTRA-LIGAND FREE ENERGY PREDICTED BY IDOCK:   -0.50 KCAL/MOL
REMARK 927      BINDING AFFINITY PREDICTED BY RF-SCORE:    0.00 PKD
ROOT
HETATM    1  C   UNL     1      -6.994  12.438  67.398  1.00  0.00    -0.149 C  
HETATM    2  S   UNL     1      -7.598  14.023  68.032  1.00  0.00    -0.163 SA 
HETATM    3  C   UNL     1      -6.288  14.155  69.272  1.00  0.00    -0.112 C  
HETATM    4  C   UNL     1      -6.056  12.890  70.071  1.00  0.00    -0.110 C  
HETATM    5 CL   UNL     1      -5.283  13.297  71.585  1.00  0.00    -0.178 Cl 
HETATM    6  CA  UNL     1      -6.417  11.632  69.696  1.00  0.00    -0.124 C  
HETATM    7  N   UNL     1      -7.011  11.460  68.474  1.00  0.00    -0.074 N  
HETATM    8  C   UNL     1      -6.193  10.457  70.633  1.00  0.00    -0.083 C  
HETATM    9  C   UNL     1      -7.707  10.518  67.801  1.00  0.00    -0.093 C  
HETATM   10  O   UNL     1      -6.504   9.231  70.170  1.00  0.00    -0.041 OA 
HETATM   11  OXT UNL     1      -5.689  10.549  71.742  1.00  0.00    -0.315 OA 
HETATM   12  O   UNL     1      -7.960   9.380  68.112  1.00  0.00    -0.091 OA 
HETATM   13  CA  UNL     1      -8.054  11.550  66.670  1.00  0.00    -0.139 C  
ENDROOT
BRANCH  13  14
HETATM   14  N   UNL     1      -9.440  12.060  66.690  1.00  0.00    -0.211 N  
HETATM   15  H   UNL     1      -9.584  13.031  66.967  1.00  0.00     0.000 HD 
HETATM   16  C   UNL     1     -10.550  11.315  66.361  1.00  0.00    -0.266 C  
HETATM   17  O   UNL     1     -10.485  10.154  65.973  1.00  0.00    -0.194 OA 
BRANCH  16  18
HETATM   18  CA  UNL     1     -11.875  12.100  66.531  1.00  0.00    -0.246 C  
HETATM   19  H2  UNL     1     -12.441  11.790  64.531  1.00  0.00     0.000 HD 
HETATM   20  N   UNL     1     -12.352  12.560  65.196  1.00  0.00    -0.573 NA 
HETATM   21  H1  UNL     1     -13.223  13.077  65.308  1.00  0.00     0.000 HD 
BRANCH  18  22
HETATM   22  C   UNL     1     -11.719  13.254  67.505  1.00  0.00    -0.410 A  
HETATM   23  C   UNL     1     -11.836  13.012  68.883  1.00  0.00    -0.358 A  
HETATM   24  C   UNL     1     -11.708  14.054  69.805  1.00  0.00    -0.375 A  
HETATM   25  C   UNL     1     -11.452  15.350  69.364  1.00  0.00    -0.335 A  
HETATM   26  C   UNL     1     -11.311  15.604  68.003  1.00  0.00    -0.324 A  
HETATM   27  C   UNL     1     -11.435  14.562  67.079  1.00  0.00    -0.383 A  
ENDBRANCH  18  22
ENDBRANCH  16  18
ENDBRANCH  13  14
TORSDOF 3
ENDMDL
MODEL      129
REMARK 921   NORMALIZED FREE ENERGY PREDICTED BY IDOCK:   -4.37 KCAL/MOL
REMARK 922        TOTAL FREE ENERGY PREDICTED BY IDOCK:   -5.84 KCAL/MOL
REMARK 923 INTER-LIGAND FREE ENERGY PREDICTED BY IDOCK:   -5.44 KCAL/MOL
REMARK 924 INTRA-LIGAND FREE ENERGY PREDICTED BY IDOCK:   -0.40 KCAL/MOL
REMARK 927      BINDING AFFINITY PREDICTED BY RF-SCORE:    0.00 PKD
ROOT
HETATM    1  C   UNL     1     -10.166  12.274  65.419  1.00  0.00    -0.270 C  
HETATM    2  S   UNL     1     -11.869  12.319  66.033  1.00  0.00    -0.248 SA 
HETATM    3  C   UNL     1     -11.820  14.095  66.374  1.00  0.00    -0.423 C  
HETATM    4  C   UNL     1     -10.580  14.554  67.110  1.00  0.00    -0.274 C  
HETATM    5 CL   UNL     1     -10.917  16.066  67.920  1.00  0.00    -0.335 Cl 
HETATM    6  CA  UNL     1      -9.393  13.890  67.169  1.00  0.00    -0.243 C  
HETATM    7  N   UNL     1      -9.269  12.713  66.476  1.00  0.00    -0.226 N  
HETATM    8  C   UNL     1      -8.251  14.429  68.012  1.00  0.00    -0.149 C  
HETATM    9  C   UNL     1      -8.440  11.650  66.412  1.00  0.00    -0.114 C  
HETATM   10  O   UNL     1      -7.081  13.761  67.966  1.00  0.00    -0.100 OA 
HETATM   11  OXT UNL     1      -8.307  15.457  68.668  1.00  0.00    -0.149 OA 
HETATM   12  O   UNL     1      -7.388  11.460  66.973  1.00  0.00    -0.129 OA 
HETATM   13  CA  UNL     1      -9.454  10.885  65.491  1.00  0.00    -0.211 C  
ENDROOT
BRANCH  13  14
HETATM   14  N   UNL     1     -10.216   9.809  66.155  1.00  0.00    -0.242 N  
HETATM   15  H   UNL     1     -11.175  10.011  66.439  1.00  0.00     0.000 HD 
HETATM   16  C   UNL     1      -9.722   8.551  66.417  1.00  0.00    -0.258 C  
HETATM   17  O   UNL     1      -8.600   8.189  66.079  1.00  0.00    -0.131 OA 
BRANCH  16  18
HETATM   18  CA  UNL     1     -10.731   7.653  67.177  1.00  0.00    -0.290 C  
HETATM   19  H2  UNL     1     -11.301   9.205  68.473  1.00  0.00     0.000 HD 
HETATM   20  N   UNL     1     -10.992   8.234  68.524  1.00  0.00    -0.426 NA 
HETATM   21  H1  UNL     1     -11.655   7.643  69.025  1.00  0.00     0.000 HD 
BRANCH  18  22
HETATM   22  C   UNL     1     -10.245   6.218  67.264  1.00  0.00    -0.237 A  
HETATM   23  C   UNL     1     -10.255   5.416  66.110  1.00  0.00    -0.181 A  
HETATM   24  C   UNL     1      -9.824   4.088  66.158  1.00  0.00    -0.176 A  
HETATM   25  C   UNL     1      -9.370   3.545  67.357  1.00  0.00    -0.246 A  
HETATM   26  C   UNL     1      -9.333   4.330  68.505  1.00  0.00    -0.209 A  
HETATM   27  C   UNL     1      -9.759   5.660  68.458  1.00  0.00    -0.172 A  
ENDBRANCH  18  22
ENDBRANCH  16  18
ENDBRANCH  13  14
TORSDOF 3
ENDMDL
MODEL      130
REMARK 921   NORMALIZED FREE ENERGY PREDICTED BY IDOCK:   -4.36 KCAL/MOL
REMARK 922        TOTAL FREE ENERGY PREDICTED BY IDOCK:   -5.82 KCAL/MOL
REMARK 923 INTER-LIGAND FREE ENERGY PREDICTED BY IDOCK:   -5.32 KCAL/MOL
REMARK 924 INTRA-LIGAND FREE ENERGY PREDICTED BY IDOCK:   -0.50 KCAL/MOL
REMARK 927      BINDING AFFINITY PREDICTED BY RF-SCORE:    0.00 PKD
ROOT
HETATM    1  C   UNL     1      -8.082   4.861  69.559  1.00  0.00    -0.074 C  
HETATM    2  S   UNL     1      -9.537   3.797  69.726  1.00  0.00    -0.131 SA 
HETATM    3  C   UNL     1      -9.323   3.055  68.090  1.00  0.00    -0.198 C  
HETATM    4  C   UNL     1      -9.054   4.052  66.984  1.00  0.00    -0.149 C  
HETATM    5 CL   UNL     1      -9.494   3.343  65.448  1.00  0.00    -0.156 Cl 
HETATM    6  CA  UNL     1      -8.575   5.316  67.147  1.00  0.00    -0.105 C  
HETATM    7  N   UNL     1      -8.265   5.738  68.414  1.00  0.00    -0.107 N  
HETATM    8  C   UNL     1      -8.424   6.241  65.952  1.00  0.00    -0.146 C  
HETATM    9  C   UNL     1      -8.000   6.888  69.070  1.00  0.00    -0.116 C  
HETATM   10  O   UNL     1      -7.875   7.452  66.174  1.00  0.00    -0.100 OA 
HETATM   11  OXT UNL     1      -8.704   5.933  64.804  1.00  0.00    -0.066 OA 
HETATM   12  O   UNL     1      -7.869   8.008  68.637  1.00  0.00    -0.113 OA 
HETATM   13  CA  UNL     1      -8.073   6.144  70.450  1.00  0.00    -0.112 C  
ENDROOT
BRANCH  13  14
HETATM   14  N   UNL     1      -9.302   6.390  71.231  1.00  0.00    -0.156 N  
HETATM   15  H   UNL     1     -10.180   6.023  70.863  1.00  0.00     0.000 HD 
HETATM   16  C   UNL     1      -9.344   7.080  72.422  1.00  0.00    -0.135 C  
HETATM   17  O   UNL     1      -8.343   7.524  72.973  1.00  0.00    -0.114 OA 
BRANCH  16  18
HETATM   18  CA  UNL     1     -10.782   7.230  72.981  1.00  0.00    -0.339 C  
HETATM   19  H2  UNL     1     -10.990   5.163  73.296  1.00  0.00     0.000 HD 
HETATM   20  N   UNL     1     -11.499   5.929  72.854  1.00  0.00    -0.476 NA 
HETATM   21  H1  UNL     1     -12.445   6.028  73.221  1.00  0.00     0.000 HD 
BRANCH  18  22
HETATM   22  C   UNL     1     -11.532   8.358  72.297  1.00  0.00    -0.454 A  
HETATM   23  C   UNL     1     -12.928   8.440  72.434  1.00  0.00    -0.297 A  
HETATM   24  C   UNL     1     -13.649   9.460  71.809  1.00  0.00    -0.461 A  
HETATM   25  C   UNL     1     -12.986  10.417  71.046  1.00  0.00    -0.490 A  
HETATM   26  C   UNL     1     -11.601  10.365  70.917  1.00  0.00    -0.428 A  
HETATM   27  C   UNL     1     -10.877   9.348  71.544  1.00  0.00    -0.398 A  
ENDBRANCH  18  22
ENDBRANCH  16  18
ENDBRANCH  13  14
TORSDOF 3
ENDMDL
MODEL      131
REMARK 921   NORMALIZED FREE ENERGY PREDICTED BY IDOCK:   -4.32 KCAL/MOL
REMARK 922        TOTAL FREE ENERGY PREDICTED BY IDOCK:   -5.78 KCAL/MOL
REMARK 923 INTER-LIGAND FREE ENERGY PREDICTED BY IDOCK:   -5.48 KCAL/MOL
REMARK 924 INTRA-LIGAND FREE ENERGY PREDICTED BY IDOCK:   -0.30 KCAL/MOL
REMARK 927      BINDING AFFINITY PREDICTED BY RF-SCORE:    0.00 PKD
ROOT
HETATM    1  C   UNL     1      -7.835   7.432  68.421  1.00  0.00    -0.122 C  
HETATM    2  S   UNL     1      -7.047   8.973  68.953  1.00  0.00    -0.069 SA 
HETATM    3  C   UNL     1      -7.320   8.639  70.710  1.00  0.00    -0.070 C  
HETATM    4  C   UNL     1      -8.722   8.176  71.046  1.00  0.00    -0.139 C  
HETATM    5 CL   UNL     1      -9.047   8.499  72.733  1.00  0.00    -0.286 Cl 
HETATM    6  CA  UNL     1      -9.611   7.624  70.175  1.00  0.00    -0.168 C  
HETATM    7  N   UNL     1      -9.215   7.423  68.878  1.00  0.00    -0.143 N  
HETATM    8  C   UNL     1     -11.017   7.275  70.630  1.00  0.00    -0.256 C  
HETATM    9  C   UNL     1      -9.764   7.145  67.676  1.00  0.00    -0.143 C  
HETATM   10  O   UNL     1     -11.821   6.664  69.738  1.00  0.00    -0.299 OA 
HETATM   11  OXT UNL     1     -11.436   7.451  71.764  1.00  0.00    -0.252 OA 
HETATM   12  O   UNL     1     -10.908   6.883  67.394  1.00  0.00    -0.287 OA 
HETATM   13  CA  UNL     1      -8.394   7.424  66.962  1.00  0.00    -0.121 C  
ENDROOT
BRANCH  13  14
HETATM   14  N   UNL     1      -8.313   8.708  66.238  1.00  0.00    -0.118 N  
HETATM   15  H   UNL     1      -8.163   9.554  66.787  1.00  0.00     0.000 HD 
HETATM   16  C   UNL     1      -8.428   8.842  64.872  1.00  0.00    -0.178 C  
HETATM   17  O   UNL     1      -8.566   7.887  64.116  1.00  0.00     0.086 OA 
BRANCH  16  18
HETATM   18  CA  UNL     1      -8.361  10.318  64.404  1.00  0.00    -0.166 C  
HETATM   19  H2  UNL     1      -6.294  10.449  64.758  1.00  0.00     0.000 HD 
HETATM   20  N   UNL     1      -7.147  10.964  64.979  1.00  0.00    -0.341 NA 
HETATM   21  H1  UNL     1      -7.103  11.935  64.671  1.00  0.00     0.000 HD 
BRANCH  18  22
HETATM   22  C   UNL     1      -9.627  11.074  64.760  1.00  0.00    -0.292 A  
HETATM   23  C   UNL     1     -10.439  11.581  63.732  1.00  0.00    -0.459 A  
HETATM   24  C   UNL     1     -11.606  12.291  64.026  1.00  0.00    -0.495 A  
HETATM   25  C   UNL     1     -11.983  12.497  65.350  1.00  0.00    -0.492 A  
HETATM   26  C   UNL     1     -11.203  11.983  66.382  1.00  0.00    -0.389 A  
HETATM   27  C   UNL     1     -10.037  11.269  66.090  1.00  0.00    -0.279 A  
ENDBRANCH  18  22
ENDBRANCH  16  18
ENDBRANCH  13  14
TORSDOF 3
ENDMDL
MODEL      132
REMARK 921   NORMALIZED FREE ENERGY PREDICTED BY IDOCK:   -4.29 KCAL/MOL
REMARK 922        TOTAL FREE ENERGY PREDICTED BY IDOCK:   -5.75 KCAL/MOL
REMARK 923 INTER-LIGAND FREE ENERGY PREDICTED BY IDOCK:   -5.37 KCAL/MOL
REMARK 924 INTRA-LIGAND FREE ENERGY PREDICTED BY IDOCK:   -0.37 KCAL/MOL
REMARK 927      BINDING AFFINITY PREDICTED BY RF-SCORE:    0.00 PKD
ROOT
HETATM    1  C   UNL     1     -10.616  10.594  67.164  1.00  0.00    -0.260 C  
HETATM    2  S   UNL     1      -9.254  10.749  65.982  1.00  0.00    -0.195 SA 
HETATM    3  C   UNL     1      -9.299   8.999  65.526  1.00  0.00    -0.187 C  
HETATM    4  C   UNL     1      -9.372   8.050  66.704  1.00  0.00    -0.197 C  
HETATM    5 CL   UNL     1      -8.780   6.480  66.217  1.00  0.00    -0.140 Cl 
HETATM    6  CA  UNL     1      -9.798   8.365  67.958  1.00  0.00    -0.169 C  
HETATM    7  N   UNL     1     -10.242   9.640  68.196  1.00  0.00    -0.180 N  
HETATM    8  C   UNL     1      -9.746   7.332  69.070  1.00  0.00    -0.152 C  
HETATM    9  C   UNL     1     -10.525  10.443  69.244  1.00  0.00    -0.234 C  
HETATM   10  O   UNL     1     -10.252   7.687  70.267  1.00  0.00    -0.200 OA 
HETATM   11  OXT UNL     1      -9.340   6.188  68.927  1.00  0.00    -0.124 OA 
HETATM   12  O   UNL     1     -10.540  10.190  70.424  1.00  0.00    -0.290 OA 
HETATM   13  CA  UNL     1     -10.668  11.679  68.287  1.00  0.00    -0.213 C  
ENDROOT
BRANCH  13  14
HETATM   14  N   UNL     1      -9.536  12.627  68.314  1.00  0.00    -0.225 N  
HETATM   15  H   UNL     1      -8.616  12.261  68.558  1.00  0.00     0.000 HD 
HETATM   16  C   UNL     1      -9.638  13.971  68.033  1.00  0.00    -0.217 C  
HETATM   17  O   UNL     1     -10.686  14.504  67.687  1.00  0.00    -0.250 OA 
BRANCH  16  18
HETATM   18  CA  UNL     1      -8.294  14.725  68.200  1.00  0.00    -0.144 C  
HETATM   19  H2  UNL     1      -7.702  13.531  69.824  1.00  0.00     0.000 HD 
HETATM   20  N   UNL     1      -7.781  14.520  69.584  1.00  0.00    -0.384 NA 
HETATM   21  H1  UNL     1      -6.897  15.017  69.694  1.00  0.00     0.000 HD 
BRANCH  18  22
HETATM   22  C   UNL     1      -8.435  16.198  67.861  1.00  0.00    -0.166 A  
HETATM   23  C   UNL     1      -7.993  16.662  66.611  1.00  0.00    -0.315 A  
HETATM   24  C   UNL     1      -8.099  18.013  66.272  1.00  0.00    -0.259 A  
HETATM   25  C   UNL     1      -8.655  18.917  67.172  1.00  0.00    -0.295 A  
HETATM   26  C   UNL     1      -9.118  18.472  68.407  1.00  0.00    -0.345 A  
HETATM   27  C   UNL     1      -9.017  17.120  68.746  1.00  0.00    -0.233 A  
ENDBRANCH  18  22
ENDBRANCH  16  18
ENDBRANCH  13  14
TORSDOF 3
ENDMDL
MODEL      133
REMARK 921   NORMALIZED FREE ENERGY PREDICTED BY IDOCK:   -4.29 KCAL/MOL
REMARK 922        TOTAL FREE ENERGY PREDICTED BY IDOCK:   -5.74 KCAL/MOL
REMARK 923 INTER-LIGAND FREE ENERGY PREDICTED BY IDOCK:   -5.34 KCAL/MOL
REMARK 924 INTRA-LIGAND FREE ENERGY PREDICTED BY IDOCK:   -0.41 KCAL/MOL
REMARK 927      BINDING AFFINITY PREDICTED BY RF-SCORE:    0.00 PKD
ROOT
HETATM    1  C   UNL     1      -8.807  13.955  68.336  1.00  0.00    -0.177 C  
HETATM    2  S   UNL     1      -7.207  13.515  67.610  1.00  0.00    -0.159 SA 
HETATM    3  C   UNL     1      -6.600  15.219  67.634  1.00  0.00    -0.171 C  
HETATM    4  C   UNL     1      -7.584  16.239  67.103  1.00  0.00    -0.195 C  
HETATM    5 CL   UNL     1      -6.716  17.664  66.585  1.00  0.00    -0.222 Cl 
HETATM    6  CA  UNL     1      -8.933  16.073  67.008  1.00  0.00    -0.214 C  
HETATM    7  N   UNL     1      -9.480  14.901  67.461  1.00  0.00    -0.198 N  
HETATM    8  C   UNL     1      -9.797  17.153  66.381  1.00  0.00    -0.300 C  
HETATM    9  C   UNL     1     -10.642  14.219  67.378  1.00  0.00    -0.276 C  
HETATM   10  O   UNL     1     -11.130  16.956  66.386  1.00  0.00     0.089 OA 
HETATM   11  OXT UNL     1      -9.368  18.208  65.939  1.00  0.00    -0.517 OA 
HETATM   12  O   UNL     1     -11.690  14.543  66.875  1.00  0.00    -0.372 OA 
HETATM   13  CA  UNL     1      -9.979  12.963  68.046  1.00  0.00    -0.236 C  
ENDROOT
BRANCH  13  14
HETATM   14  N   UNL     1      -9.666  11.853  67.124  1.00  0.00    -0.184 N  
HETATM   15  H   UNL     1      -9.476  12.085  66.149  1.00  0.00     0.000 HD 
HETATM   16  C   UNL     1      -9.612  10.527  67.490  1.00  0.00    -0.160 C  
HETATM   17  O   UNL     1      -9.780  10.144  68.642  1.00  0.00    -0.153 OA 
BRANCH  16  18
HETATM   18  CA  UNL     1      -9.318   9.584  66.295  1.00  0.00    -0.188 C  
HETATM   19  H2  UNL     1     -10.183  10.901  64.904  1.00  0.00     0.000 HD 
HETATM   20  N   UNL     1     -10.235   9.916  65.167  1.00  0.00    -0.275 NA 
HETATM   21  H1  UNL     1     -10.042   9.295  64.381  1.00  0.00     0.000 HD 
BRANCH  18  22
HETATM   22  C   UNL     1      -9.422   8.124  66.698  1.00  0.00    -0.274 A  
HETATM   23  C   UNL     1      -8.250   7.400  66.969  1.00  0.00    -0.121 A  
HETATM   24  C   UNL     1      -8.310   6.052  67.331  1.00  0.00    -0.105 A  
HETATM   25  C   UNL     1      -9.541   5.412  67.438  1.00  0.00    -0.139 A  
HETATM   26  C   UNL     1     -10.715   6.120  67.195  1.00  0.00    -0.422 A  
HETATM   27  C   UNL     1     -10.657   7.469  66.836  1.00  0.00    -0.367 A  
ENDBRANCH  18  22
ENDBRANCH  16  18
ENDBRANCH  13  14
TORSDOF 3
ENDMDL
MODEL      134
REMARK 921   NORMALIZED FREE ENERGY PREDICTED BY IDOCK:   -4.29 KCAL/MOL
REMARK 922        TOTAL FREE ENERGY PREDICTED BY IDOCK:   -5.74 KCAL/MOL
REMARK 923 INTER-LIGAND FREE ENERGY PREDICTED BY IDOCK:   -5.22 KCAL/MOL
REMARK 924 INTRA-LIGAND FREE ENERGY PREDICTED BY IDOCK:   -0.52 KCAL/MOL
REMARK 927      BINDING AFFINITY PREDICTED BY RF-SCORE:    0.00 PKD
ROOT
HETATM    1  C   UNL     1     -11.160   9.912  67.455  1.00  0.00    -0.071 C  
HETATM    2  S   UNL     1     -10.952  10.874  68.976  1.00  0.00    -0.256 SA 
HETATM    3  C   UNL     1     -11.856  12.302  68.331  1.00  0.00    -0.304 C  
HETATM    4  C   UNL     1     -11.447  12.718  66.934  1.00  0.00    -0.340 C  
HETATM    5 CL   UNL     1     -11.878  14.394  66.682  1.00  0.00    -0.417 Cl 
HETATM    6  CA  UNL     1     -10.815  11.933  66.019  1.00  0.00    -0.299 C  
HETATM    7  N   UNL     1     -10.544  10.632  66.352  1.00  0.00    -0.210 N  
HETATM    8  C   UNL     1     -10.392  12.505  64.677  1.00  0.00    -0.317 C  
HETATM    9  C   UNL     1      -9.788   9.602  65.913  1.00  0.00    -0.288 C  
HETATM   10  O   UNL     1      -9.837  11.654  63.791  1.00  0.00    -0.292 OA 
HETATM   11  OXT UNL     1     -10.584  13.660  64.330  1.00  0.00    -0.423 OA 
HETATM   12  O   UNL     1      -9.109   9.515  64.919  1.00  0.00    -0.212 OA 
HETATM   13  CA  UNL     1     -10.105   8.785  67.215  1.00  0.00    -0.236 C  
ENDROOT
BRANCH  13  14
HETATM   14  N   UNL     1      -9.004   8.718  68.198  1.00  0.00    -0.141 N  
HETATM   15  H   UNL     1      -8.388   9.528  68.276  1.00  0.00     0.000 HD 
HETATM   16  C   UNL     1      -8.752   7.639  69.015  1.00  0.00    -0.136 C  
HETATM   17  O   UNL     1      -9.456   6.635  69.032  1.00  0.00    -0.133 OA 
BRANCH  16  18
HETATM   18  CA  UNL     1      -7.495   7.834  69.900  1.00  0.00    -0.081 C  
HETATM   19  H2  UNL     1      -6.198   7.144  68.397  1.00  0.00     0.000 HD 
HETATM   20  N   UNL     1      -6.391   6.975  69.385  1.00  0.00    -0.034 NA 
HETATM   21  H1  UNL     1      -5.564   7.102  69.968  1.00  0.00     0.000 HD 
BRANCH  18  22
HETATM   22  C   UNL     1      -7.794   7.556  71.362  1.00  0.00    -0.093 A  
HETATM   23  C   UNL     1      -7.134   6.499  72.010  1.00  0.00    -0.081 A  
HETATM   24  C   UNL     1      -7.394   6.210  73.352  1.00  0.00    -0.088 A  
HETATM   25  C   UNL     1      -8.309   6.977  74.067  1.00  0.00    -0.167 A  
HETATM   26  C   UNL     1      -8.956   8.043  73.447  1.00  0.00    -0.341 A  
HETATM   27  C   UNL     1      -8.694   8.336  72.106  1.00  0.00    -0.259 A  
ENDBRANCH  18  22
ENDBRANCH  16  18
ENDBRANCH  13  14
TORSDOF 3
ENDMDL
MODEL      135
REMARK 921   NORMALIZED FREE ENERGY PREDICTED BY IDOCK:   -4.27 KCAL/MOL
REMARK 922        TOTAL FREE ENERGY PREDICTED BY IDOCK:   -5.73 KCAL/MOL
REMARK 923 INTER-LIGAND FREE ENERGY PREDICTED BY IDOCK:   -5.24 KCAL/MOL
REMARK 924 INTRA-LIGAND FREE ENERGY PREDICTED BY IDOCK:   -0.49 KCAL/MOL
REMARK 927      BINDING AFFINITY PREDICTED BY RF-SCORE:    0.00 PKD
ROOT
HETATM    1  C   UNL     1      -7.985  10.360  68.259  1.00  0.00    -0.111 C  
HETATM    2  S   UNL     1      -9.660   9.831  67.818  1.00  0.00    -0.136 SA 
HETATM    3  C   UNL     1      -9.079   8.462  66.788  1.00  0.00    -0.157 C  
HETATM    4  C   UNL     1      -7.966   8.831  65.831  1.00  0.00    -0.104 C  
HETATM    5 CL   UNL     1      -7.937   7.687  64.511  1.00  0.00    -0.139 Cl 
HETATM    6  CA  UNL     1      -7.132   9.902  65.950  1.00  0.00    -0.107 C  
HETATM    7  N   UNL     1      -7.266  10.714  67.046  1.00  0.00    -0.097 N  
HETATM    8  C   UNL     1      -6.105  10.199  64.872  1.00  0.00    -0.125 C  
HETATM    9  C   UNL     1      -6.866  11.934  67.466  1.00  0.00    -0.124 C  
HETATM   10  O   UNL     1      -5.263  11.229  65.089  1.00  0.00    -0.242 OA 
HETATM   11  OXT UNL     1      -5.952   9.527  63.864  1.00  0.00    -0.086 OA 
HETATM   12  O   UNL     1      -6.108  12.716  66.946  1.00  0.00    -0.235 OA 
HETATM   13  CA  UNL     1      -7.838  11.853  68.696  1.00  0.00    -0.104 C  
ENDROOT
BRANCH  13  14
HETATM   14  N   UNL     1      -9.059  12.676  68.586  1.00  0.00    -0.397 N  
HETATM   15  H   UNL     1      -9.928  12.206  68.334  1.00  0.00     0.000 HD 
HETATM   16  C   UNL     1      -9.105  14.036  68.801  1.00  0.00    -0.033 C  
HETATM   17  O   UNL     1      -8.129  14.690  69.151  1.00  0.00    -0.142 OA 
BRANCH  16  18
HETATM   18  CA  UNL     1     -10.512  14.637  68.556  1.00  0.00    -0.247 C  
HETATM   19  H2  UNL     1      -9.771  16.113  67.255  1.00  0.00     0.000 HD 
HETATM   20  N   UNL     1     -10.371  16.043  68.078  1.00  0.00    -0.259 NA 
HETATM   21  H1  UNL     1     -11.297  16.439  67.917  1.00  0.00     0.000 HD 
BRANCH  18  22
HETATM   22  C   UNL     1     -11.382  14.545  69.795  1.00  0.00    -0.305 A  
HETATM   23  C   UNL     1     -12.084  13.357  70.057  1.00  0.00    -0.404 A  
HETATM   24  C   UNL     1     -12.902  13.243  71.183  1.00  0.00    -0.363 A  
HETATM   25  C   UNL     1     -13.024  14.310  72.069  1.00  0.00    -0.437 A  
HETATM   26  C   UNL     1     -12.319  15.487  71.838  1.00  0.00    -0.472 A  
HETATM   27  C   UNL     1     -11.497  15.602  70.713  1.00  0.00    -0.409 A  
ENDBRANCH  18  22
ENDBRANCH  16  18
ENDBRANCH  13  14
TORSDOF 3
ENDMDL
MODEL      136
REMARK 921   NORMALIZED FREE ENERGY PREDICTED BY IDOCK:   -4.24 KCAL/MOL
REMARK 922        TOTAL FREE ENERGY PREDICTED BY IDOCK:   -5.68 KCAL/MOL
REMARK 923 INTER-LIGAND FREE ENERGY PREDICTED BY IDOCK:   -6.53 KCAL/MOL
REMARK 924 INTRA-LIGAND FREE ENERGY PREDICTED BY IDOCK:    0.85 KCAL/MOL
REMARK 927      BINDING AFFINITY PREDICTED BY RF-SCORE:    0.00 PKD
ROOT
HETATM    1  C   UNL     1     -11.119  10.961  67.422  1.00  0.00    -0.307 C  
HETATM    2  S   UNL     1     -11.881  11.369  69.013  1.00  0.00    -0.331 SA 
HETATM    3  C   UNL     1     -11.506  13.133  68.868  1.00  0.00    -0.298 C  
HETATM    4  C   UNL     1     -10.086  13.436  68.441  1.00  0.00    -0.244 C  
HETATM    5 CL   UNL     1      -9.665  15.056  68.942  1.00  0.00    -0.218 Cl 
HETATM    6  CA  UNL     1      -9.246  12.579  67.796  1.00  0.00    -0.198 C  
HETATM    7  N   UNL     1      -9.715  11.337  67.458  1.00  0.00    -0.176 N  
HETATM    8  C   UNL     1      -7.815  12.988  67.494  1.00  0.00    -0.178 C  
HETATM    9  C   UNL     1      -9.236  10.141  67.051  1.00  0.00    -0.146 C  
HETATM   10  O   UNL     1      -7.062  12.121  66.789  1.00  0.00    -0.053 OA 
HETATM   11  OXT UNL     1      -7.332  14.070  67.790  1.00  0.00    -0.133 OA 
HETATM   12  O   UNL     1      -8.109   9.824  66.758  1.00  0.00    -0.118 OA 
HETATM   13  CA  UNL     1     -10.646   9.482  67.255  1.00  0.00    -0.248 C  
ENDROOT
BRANCH  13  14
HETATM   14  N   UNL     1     -10.772   8.630  68.455  1.00  0.00    -0.427 N  
HETATM   15  H   UNL     1     -11.543   7.963  68.484  1.00  0.00     0.000 HD 
HETATM   16  C   UNL     1      -9.920   8.674  69.536  1.00  0.00    -0.196 C  
HETATM   17  O   UNL     1      -8.938   9.406  69.584  1.00  0.00    -0.148 OA 
BRANCH  16  18
HETATM   18  CA  UNL     1     -10.337   7.705  70.671  1.00  0.00    -0.205 C  
HETATM   19  H2  UNL     1      -9.295   6.090  69.821  1.00  0.00     0.000 HD 
HETATM   20  N   UNL     1     -10.224   6.299  70.186  1.00  0.00    -0.182 NA 
HETATM   21  H1  UNL     1     -10.499   5.661  70.933  1.00  0.00     0.000 HD 
BRANCH  18  22
HETATM   22  C   UNL     1     -11.730   8.015  71.187  1.00  0.00    -0.307 A  
HETATM   23  C   UNL     1     -12.002   9.292  71.707  1.00  0.00    -0.455 A  
HETATM   24  C   UNL     1     -13.271   9.607  72.200  1.00  0.00    -0.535 A  
HETATM   25  C   UNL     1     -14.287   8.655  72.173  1.00  0.00    -0.518 A  
HETATM   26  C   UNL     1     -14.041   7.393  71.641  1.00  0.00    -0.552 A  
HETATM   27  C   UNL     1     -12.774   7.076  71.144  1.00  0.00    -0.361 A  
ENDBRANCH  18  22
ENDBRANCH  16  18
ENDBRANCH  13  14
TORSDOF 3
ENDMDL
MODEL      137
REMARK 921   NORMALIZED FREE ENERGY PREDICTED BY IDOCK:   -4.22 KCAL/MOL
REMARK 922        TOTAL FREE ENERGY PREDICTED BY IDOCK:   -5.66 KCAL/MOL
REMARK 923 INTER-LIGAND FREE ENERGY PREDICTED BY IDOCK:   -5.47 KCAL/MOL
REMARK 924 INTRA-LIGAND FREE ENERGY PREDICTED BY IDOCK:   -0.19 KCAL/MOL
REMARK 927      BINDING AFFINITY PREDICTED BY RF-SCORE:    0.00 PKD
ROOT
HETATM    1  C   UNL     1      -8.471  10.822  67.834  1.00  0.00    -0.122 C  
HETATM    2  S   UNL     1      -9.925  11.226  68.835  1.00  0.00    -0.104 SA 
HETATM    3  C   UNL     1      -9.985   9.594  69.613  1.00  0.00    -0.221 C  
HETATM    4  C   UNL     1      -9.845   8.438  68.645  1.00  0.00    -0.170 C  
HETATM    5 CL   UNL     1     -10.535   7.001  69.361  1.00  0.00    -0.217 Cl 
HETATM    6  CA  UNL     1      -9.300   8.501  67.399  1.00  0.00    -0.148 C  
HETATM    7  N   UNL     1      -8.789   9.697  66.970  1.00  0.00    -0.131 N  
HETATM    8  C   UNL     1      -9.293   7.276  66.501  1.00  0.00    -0.170 C  
HETATM    9  C   UNL     1      -8.386  10.281  65.821  1.00  0.00    -0.152 C  
HETATM   10  O   UNL     1      -8.672   7.387  65.310  1.00  0.00    -0.058 OA 
HETATM   11  OXT UNL     1      -9.752   6.189  66.817  1.00  0.00    -0.147 OA 
HETATM   12  O   UNL     1      -8.277   9.809  64.715  1.00  0.00    -0.132 OA 
HETATM   13  CA  UNL     1      -8.281  11.673  66.538  1.00  0.00    -0.101 C  
ENDROOT
BRANCH  13  14
HETATM   14  N   UNL     1      -9.370  12.622  66.229  1.00  0.00    -0.368 N  
HETATM   15  H   UNL     1     -10.239  12.241  65.856  1.00  0.00     0.000 HD 
HETATM   16  C   UNL     1      -9.292  13.984  66.410  1.00  0.00    -0.221 C  
HETATM   17  O   UNL     1      -8.311  14.540  66.893  1.00  0.00    -0.194 OA 
BRANCH  16  18
HETATM   18  CA  UNL     1     -10.568  14.729  65.943  1.00  0.00    -0.314 C  
HETATM   19  H2  UNL     1     -10.702  13.608  64.170  1.00  0.00     0.000 HD 
HETATM   20  N   UNL     1     -10.710  14.585  64.466  1.00  0.00    -0.618 NA 
HETATM   21  H1  UNL     1     -11.550  15.075  64.158  1.00  0.00     0.000 HD 
BRANCH  18  22
HETATM   22  C   UNL     1     -10.554  16.184  66.372  1.00  0.00    -0.269 A  
HETATM   23  C   UNL     1     -10.466  16.499  67.738  1.00  0.00    -0.308 A  
HETATM   24  C   UNL     1     -10.461  17.828  68.166  1.00  0.00    -0.382 A  
HETATM   25  C   UNL     1     -10.535  18.862  67.237  1.00  0.00    -0.510 A  
HETATM   26  C   UNL     1     -10.600  18.570  65.877  1.00  0.00    -0.336 A  
HETATM   27  C   UNL     1     -10.602  17.240  65.446  1.00  0.00    -0.083 A  
ENDBRANCH  18  22
ENDBRANCH  16  18
ENDBRANCH  13  14
TORSDOF 3
ENDMDL
MODEL      138
REMARK 921   NORMALIZED FREE ENERGY PREDICTED BY IDOCK:   -4.21 KCAL/MOL
REMARK 922        TOTAL FREE ENERGY PREDICTED BY IDOCK:   -5.65 KCAL/MOL
REMARK 923 INTER-LIGAND FREE ENERGY PREDICTED BY IDOCK:   -5.15 KCAL/MOL
REMARK 924 INTRA-LIGAND FREE ENERGY PREDICTED BY IDOCK:   -0.50 KCAL/MOL
REMARK 927      BINDING AFFINITY PREDICTED BY RF-SCORE:    0.00 PKD
ROOT
HETATM    1  C   UNL     1      -8.596   8.596  67.894  1.00  0.00    -0.137 C  
HETATM    2  S   UNL     1     -10.250   7.942  68.229  1.00  0.00    -0.201 SA 
HETATM    3  C   UNL     1      -9.845   6.289  67.615  1.00  0.00    -0.121 C  
HETATM    4  C   UNL     1      -9.120   6.279  66.286  1.00  0.00    -0.153 C  
HETATM    5 CL   UNL     1      -9.351   4.728  65.515  1.00  0.00    -0.157 Cl 
HETATM    6  CA  UNL     1      -8.422   7.318  65.749  1.00  0.00    -0.143 C  
HETATM    7  N   UNL     1      -8.318   8.477  66.471  1.00  0.00    -0.110 N  
HETATM    8  C   UNL     1      -7.806   7.196  64.366  1.00  0.00    -0.115 C  
HETATM    9  C   UNL     1      -7.959   9.766  66.286  1.00  0.00    -0.109 C  
HETATM   10  O   UNL     1      -7.067   8.233  63.926  1.00  0.00    -0.083 OA 
HETATM   11  OXT UNL     1      -7.883   6.199  63.664  1.00  0.00    -0.103 OA 
HETATM   12  O   UNL     1      -7.489  10.301  65.312  1.00  0.00    -0.141 OA 
HETATM   13  CA  UNL     1      -8.503  10.145  67.709  1.00  0.00    -0.114 C  
ENDROOT
BRANCH  13  14
HETATM   14  N   UNL     1      -9.790  10.869  67.717  1.00  0.00    -0.173 N  
HETATM   15  H   UNL     1     -10.638  10.332  67.539  1.00  0.00     0.000 HD 
HETATM   16  C   UNL     1      -9.923  12.220  67.948  1.00  0.00    -0.202 C  
HETATM   17  O   UNL     1      -8.975  12.950  68.216  1.00  0.00    -0.194 OA 
BRANCH  16  18
HETATM   18  CA  UNL     1     -11.389  12.709  67.835  1.00  0.00    -0.288 C  
HETATM   19  H2  UNL     1     -11.179  13.208  65.804  1.00  0.00     0.000 HD 
HETATM   20  N   UNL     1     -11.513  13.632  66.670  1.00  0.00    -0.329 NA 
HETATM   21  H1  UNL     1     -12.478  13.955  66.596  1.00  0.00     0.000 HD 
BRANCH  18  22
HETATM   22  C   UNL     1     -11.863  13.357  69.123  1.00  0.00    -0.383 A  
HETATM   23  C   UNL     1     -12.184  12.546  70.224  1.00  0.00    -0.345 A  
HETATM   24  C   UNL     1     -12.633  13.109  71.420  1.00  0.00    -0.352 A  
HETATM   25  C   UNL     1     -12.758  14.491  71.538  1.00  0.00    -0.409 A  
HETATM   26  C   UNL     1     -12.423  15.312  70.465  1.00  0.00    -0.454 A  
HETATM   27  C   UNL     1     -11.970  14.750  69.268  1.00  0.00    -0.329 A  
ENDBRANCH  18  22
ENDBRANCH  16  18
ENDBRANCH  13  14
TORSDOF 3
ENDMDL
MODEL      139
REMARK 921   NORMALIZED FREE ENERGY PREDICTED BY IDOCK:   -4.20 KCAL/MOL
REMARK 922        TOTAL FREE ENERGY PREDICTED BY IDOCK:   -5.64 KCAL/MOL
REMARK 923 INTER-LIGAND FREE ENERGY PREDICTED BY IDOCK:   -5.20 KCAL/MOL
REMARK 924 INTRA-LIGAND FREE ENERGY PREDICTED BY IDOCK:   -0.44 KCAL/MOL
REMARK 927      BINDING AFFINITY PREDICTED BY RF-SCORE:    0.00 PKD
ROOT
HETATM    1  C   UNL     1     -11.375  11.877  68.676  1.00  0.00    -0.276 C  
HETATM    2  S   UNL     1     -12.071  12.257  70.304  1.00  0.00    -0.215 SA 
HETATM    3  C   UNL     1     -12.390  13.988  69.890  1.00  0.00    -0.310 C  
HETATM    4  C   UNL     1     -11.232  14.691  69.214  1.00  0.00    -0.282 C  
HETATM    5 CL   UNL     1     -11.391  16.417  69.443  1.00  0.00    -0.267 Cl 
HETATM    6  CA  UNL     1     -10.204  14.086  68.557  1.00  0.00    -0.237 C  
HETATM    7  N   UNL     1     -10.212  12.720  68.449  1.00  0.00    -0.239 N  
HETATM    8  C   UNL     1      -9.062  14.912  67.991  1.00  0.00    -0.180 C  
HETATM    9  C   UNL     1      -9.369  11.718  68.122  1.00  0.00    -0.190 C  
HETATM   10  O   UNL     1      -8.116  14.258  67.288  1.00  0.00    -0.188 OA 
HETATM   11  OXT UNL     1      -8.986  16.128  68.074  1.00  0.00    -0.183 OA 
HETATM   12  O   UNL     1      -8.240  11.770  67.699  1.00  0.00    -0.131 OA 
HETATM   13  CA  UNL     1     -10.408  10.651  68.620  1.00  0.00    -0.186 C  
ENDROOT
BRANCH  13  14
HETATM   14  N   UNL     1     -10.091  10.025  69.919  1.00  0.00    -0.256 N  
HETATM   15  H   UNL     1      -9.725  10.625  70.658  1.00  0.00     0.000 HD 
HETATM   16  C   UNL     1     -10.255   8.688  70.201  1.00  0.00    -0.192 C  
HETATM   17  O   UNL     1     -10.728   7.889  69.400  1.00  0.00    -0.228 OA 
BRANCH  16  18
HETATM   18  CA  UNL     1      -9.783   8.310  71.628  1.00  0.00    -0.197 C  
HETATM   19  H2  UNL     1      -8.556  10.009  71.787  1.00  0.00     0.000 HD 
HETATM   20  N   UNL     1      -8.493   8.999  71.919  1.00  0.00    -0.346 NA 
HETATM   21  H1  UNL     1      -8.182   8.750  72.858  1.00  0.00     0.000 HD 
BRANCH  18  22
HETATM   22  C   UNL     1      -9.673   6.807  71.800  1.00  0.00    -0.164 A  
HETATM   23  C   UNL     1      -8.507   6.148  71.375  1.00  0.00    -0.128 A  
HETATM   24  C   UNL     1      -8.379   4.764  71.509  1.00  0.00    -0.109 A  
HETATM   25  C   UNL     1      -9.409   4.019  72.077  1.00  0.00    -0.187 A  
HETATM   26  C   UNL     1     -10.562   4.657  72.524  1.00  0.00    -0.243 A  
HETATM   27  C   UNL     1     -10.691   6.042  72.394  1.00  0.00    -0.267 A  
ENDBRANCH  18  22
ENDBRANCH  16  18
ENDBRANCH  13  14
TORSDOF 3
ENDMDL
MODEL      140
REMARK 921   NORMALIZED FREE ENERGY PREDICTED BY IDOCK:   -4.19 KCAL/MOL
REMARK 922        TOTAL FREE ENERGY PREDICTED BY IDOCK:   -5.63 KCAL/MOL
REMARK 923 INTER-LIGAND FREE ENERGY PREDICTED BY IDOCK:   -5.01 KCAL/MOL
REMARK 924 INTRA-LIGAND FREE ENERGY PREDICTED BY IDOCK:   -0.62 KCAL/MOL
REMARK 927      BINDING AFFINITY PREDICTED BY RF-SCORE:    0.00 PKD
ROOT
HETATM    1  C   UNL     1     -10.777   7.375  67.137  1.00  0.00    -0.330 C  
HETATM    2  S   UNL     1     -10.123   9.063  67.196  1.00  0.00    -0.266 SA 
HETATM    3  C   UNL     1      -9.069   8.827  65.744  1.00  0.00    -0.212 C  
HETATM    4  C   UNL     1      -8.266   7.544  65.760  1.00  0.00    -0.137 C  
HETATM    5 CL   UNL     1      -6.880   7.719  64.709  1.00  0.00    -0.050 Cl 
HETATM    6  CA  UNL     1      -8.548   6.434  66.496  1.00  0.00    -0.125 C  
HETATM    7  N   UNL     1      -9.676   6.435  67.274  1.00  0.00    -0.125 N  
HETATM    8  C   UNL     1      -7.609   5.239  66.475  1.00  0.00    -0.088 C  
HETATM    9  C   UNL     1     -10.220   5.722  68.283  1.00  0.00    -0.187 C  
HETATM   10  O   UNL     1      -7.986   4.146  67.168  1.00  0.00    -0.095 OA 
HETATM   11  OXT UNL     1      -6.579   5.186  65.821  1.00  0.00    -0.042 OA 
HETATM   12  O   UNL     1      -9.840   4.696  68.792  1.00  0.00    -0.167 OA 
HETATM   13  CA  UNL     1     -11.330   6.814  68.486  1.00  0.00     0.034 C  
ENDROOT
BRANCH  13  14
HETATM   14  N   UNL     1     -11.146   7.684  69.665  1.00  0.00    -0.435 N  
HETATM   15  H   UNL     1     -10.421   8.399  69.619  1.00  0.00     0.000 HD 
HETATM   16  C   UNL     1     -11.887   7.595  70.822  1.00  0.00    -0.205 C  
HETATM   17  O   UNL     1     -12.810   6.802  70.966  1.00  0.00    -0.290 OA 
BRANCH  16  18
HETATM   18  CA  UNL     1     -11.429   8.601  71.909  1.00  0.00    -0.348 C  
HETATM   19  H2  UNL     1     -11.609  10.247  70.615  1.00  0.00     0.000 HD 
HETATM   20  N   UNL     1     -10.924   9.841  71.253  1.00  0.00    -0.326 NA 
HETATM   21  H1  UNL     1     -10.622  10.502  71.968  1.00  0.00     0.000 HD 
BRANCH  18  22
HETATM   22  C   UNL     1     -10.394   7.989  72.835  1.00  0.00    -0.397 A  
HETATM   23  C   UNL     1      -9.080   8.483  72.821  1.00  0.00    -0.218 A  
HETATM   24  C   UNL     1      -8.101   7.935  73.654  1.00  0.00    -0.248 A  
HETATM   25  C   UNL     1      -8.423   6.892  74.517  1.00  0.00    -0.195 A  
HETATM   26  C   UNL     1      -9.725   6.403  74.560  1.00  0.00    -0.329 A  
HETATM   27  C   UNL     1     -10.707   6.953  73.731  1.00  0.00    -0.231 A  
ENDBRANCH  18  22
ENDBRANCH  16  18
ENDBRANCH  13  14
TORSDOF 3
ENDMDL
MODEL      141
REMARK 921   NORMALIZED FREE ENERGY PREDICTED BY IDOCK:   -4.19 KCAL/MOL
REMARK 922        TOTAL FREE ENERGY PREDICTED BY IDOCK:   -5.63 KCAL/MOL
REMARK 923 INTER-LIGAND FREE ENERGY PREDICTED BY IDOCK:   -6.26 KCAL/MOL
REMARK 924 INTRA-LIGAND FREE ENERGY PREDICTED BY IDOCK:    0.63 KCAL/MOL
REMARK 927      BINDING AFFINITY PREDICTED BY RF-SCORE:    0.00 PKD
ROOT
HETATM    1  C   UNL     1      -7.942  14.212  67.229  1.00  0.00    -0.150 C  
HETATM    2  S   UNL     1      -7.509  15.230  68.662  1.00  0.00    -0.135 SA 
HETATM    3  C   UNL     1      -6.171  14.129  69.182  1.00  0.00    -0.101 C  
HETATM    4  C   UNL     1      -6.540  12.661  69.193  1.00  0.00    -0.099 C  
HETATM    5 CL   UNL     1      -5.464  11.804  70.271  1.00  0.00    -0.112 Cl 
HETATM    6  CA  UNL     1      -7.566  12.090  68.503  1.00  0.00    -0.126 C  
HETATM    7  N   UNL     1      -8.326  12.887  67.688  1.00  0.00    -0.163 N  
HETATM    8  C   UNL     1      -7.874  10.612  68.667  1.00  0.00    -0.121 C  
HETATM    9  C   UNL     1      -9.504  12.842  67.029  1.00  0.00    -0.235 C  
HETATM   10  O   UNL     1      -8.854  10.097  67.899  1.00  0.00    -0.125 OA 
HETATM   11  OXT UNL     1      -7.248   9.856  69.395  1.00  0.00    -0.067 OA 
HETATM   12  O   UNL     1     -10.279  11.926  66.899  1.00  0.00    -0.205 OA 
HETATM   13  CA  UNL     1      -9.403  14.373  66.698  1.00  0.00    -0.278 C  
ENDROOT
BRANCH  13  14
HETATM   14  N   UNL     1     -10.282  15.248  67.499  1.00  0.00    -0.237 N  
HETATM   15  H   UNL     1     -10.242  16.252  67.323  1.00  0.00     0.000 HD 
HETATM   16  C   UNL     1     -11.154  14.802  68.468  1.00  0.00    -0.264 C  
HETATM   17  O   UNL     1     -11.313  13.614  68.727  1.00  0.00    -0.253 OA 
BRANCH  16  18
HETATM   18  CA  UNL     1     -11.903  15.955  69.182  1.00  0.00    -0.330 C  
HETATM   19  H2  UNL     1     -10.762  17.435  68.220  1.00  0.00     0.000 HD 
HETATM   20  N   UNL     1     -11.054  17.180  69.165  1.00  0.00    -0.225 NA 
HETATM   21  H1  UNL     1     -11.546  17.939  69.636  1.00  0.00     0.000 HD 
BRANCH  18  22
HETATM   22  C   UNL     1     -12.309  15.567  70.592  1.00  0.00    -0.462 A  
HETATM   23  C   UNL     1     -11.347  15.588  71.616  1.00  0.00    -0.462 A  
HETATM   24  C   UNL     1     -11.685  15.227  72.922  1.00  0.00    -0.478 A  
HETATM   25  C   UNL     1     -12.990  14.849  73.226  1.00  0.00    -0.635 A  
HETATM   26  C   UNL     1     -13.962  14.844  72.229  1.00  0.00    -0.602 A  
HETATM   27  C   UNL     1     -13.626  15.208  70.922  1.00  0.00    -0.397 A  
ENDBRANCH  18  22
ENDBRANCH  16  18
ENDBRANCH  13  14
TORSDOF 3
ENDMDL
MODEL      142
REMARK 921   NORMALIZED FREE ENERGY PREDICTED BY IDOCK:   -4.17 KCAL/MOL
REMARK 922        TOTAL FREE ENERGY PREDICTED BY IDOCK:   -5.61 KCAL/MOL
REMARK 923 INTER-LIGAND FREE ENERGY PREDICTED BY IDOCK:   -4.98 KCAL/MOL
REMARK 924 INTRA-LIGAND FREE ENERGY PREDICTED BY IDOCK:   -0.63 KCAL/MOL
REMARK 927      BINDING AFFINITY PREDICTED BY RF-SCORE:    0.00 PKD
ROOT
HETATM    1  C   UNL     1     -11.454  10.750  68.123  1.00  0.00    -0.271 C  
HETATM    2  S   UNL     1     -10.941  10.393  69.823  1.00  0.00    -0.309 SA 
HETATM    3  C   UNL     1     -11.966  11.705  70.529  1.00  0.00    -0.319 C  
HETATM    4  C   UNL     1     -11.858  13.034  69.812  1.00  0.00    -0.311 C  
HETATM    5 CL   UNL     1     -12.340  14.316  70.897  1.00  0.00    -0.406 Cl 
HETATM    6  CA  UNL     1     -11.424  13.219  68.534  1.00  0.00    -0.312 C  
HETATM    7  N   UNL     1     -11.084  12.117  67.794  1.00  0.00    -0.235 N  
HETATM    8  C   UNL     1     -11.292  14.621  67.963  1.00  0.00    -0.311 C  
HETATM    9  C   UNL     1     -10.430  11.818  66.652  1.00  0.00    -0.224 C  
HETATM   10  O   UNL     1     -10.929  14.728  66.670  1.00  0.00    -0.314 OA 
HETATM   11  OXT UNL     1     -11.557  15.642  68.579  1.00  0.00    -0.360 OA 
HETATM   12  O   UNL     1      -9.972  12.555  65.812  1.00  0.00    -0.261 OA 
HETATM   13  CA  UNL     1     -10.466  10.289  67.005  1.00  0.00    -0.244 C  
ENDROOT
BRANCH  13  14
HETATM   14  N   UNL     1      -9.185   9.724  67.474  1.00  0.00    -0.130 N  
HETATM   15  H   UNL     1      -8.518  10.358  67.912  1.00  0.00     0.000 HD 
HETATM   16  C   UNL     1      -8.830   8.398  67.362  1.00  0.00    -0.134 C  
HETATM   17  O   UNL     1      -9.575   7.544  66.893  1.00  0.00    -0.164 OA 
BRANCH  16  18
HETATM   18  CA  UNL     1      -7.402   8.109  67.890  1.00  0.00    -0.096 C  
HETATM   19  H2  UNL     1      -6.888   6.978  66.195  1.00  0.00     0.000 HD 
HETATM   20  N   UNL     1      -6.861   6.897  67.212  1.00  0.00    -0.070 NA 
HETATM   21  H1  UNL     1      -5.921   6.706  67.560  1.00  0.00     0.000 HD 
BRANCH  18  22
HETATM   22  C   UNL     1      -7.383   7.970  69.401  1.00  0.00    -0.080 A  
HETATM   23  C   UNL     1      -6.798   8.982  70.179  1.00  0.00    -0.045 A  
HETATM   24  C   UNL     1      -6.755   8.879  71.571  1.00  0.00    -0.081 A  
HETATM   25  C   UNL     1      -7.304   7.768  72.206  1.00  0.00    -0.090 A  
HETATM   26  C   UNL     1      -7.908   6.766  71.453  1.00  0.00    -0.098 A  
HETATM   27  C   UNL     1      -7.955   6.869  70.060  1.00  0.00    -0.116 A  
ENDBRANCH  18  22
ENDBRANCH  16  18
ENDBRANCH  13  14
TORSDOF 3
ENDMDL
MODEL      143
REMARK 921   NORMALIZED FREE ENERGY PREDICTED BY IDOCK:   -4.13 KCAL/MOL
REMARK 922        TOTAL FREE ENERGY PREDICTED BY IDOCK:   -5.55 KCAL/MOL
REMARK 923 INTER-LIGAND FREE ENERGY PREDICTED BY IDOCK:   -4.93 KCAL/MOL
REMARK 924 INTRA-LIGAND FREE ENERGY PREDICTED BY IDOCK:   -0.62 KCAL/MOL
REMARK 927      BINDING AFFINITY PREDICTED BY RF-SCORE:    0.00 PKD
ROOT
HETATM    1  C   UNL     1      -9.129  10.381  69.602  1.00  0.00    -0.047 C  
HETATM    2  S   UNL     1     -10.358  10.990  68.419  1.00  0.00    -0.193 SA 
HETATM    3  C   UNL     1     -11.504  11.526  69.712  1.00  0.00    -0.286 C  
HETATM    4  C   UNL     1     -11.730  10.505  70.807  1.00  0.00    -0.356 C  
HETATM    5 CL   UNL     1     -13.255  10.833  71.596  1.00  0.00    -0.508 Cl 
HETATM    6  CA  UNL     1     -10.902   9.469  71.116  1.00  0.00    -0.355 C  
HETATM    7  N   UNL     1      -9.732   9.337  70.415  1.00  0.00    -0.226 N  
HETATM    8  C   UNL     1     -11.291   8.469  72.192  1.00  0.00    -0.372 C  
HETATM    9  C   UNL     1      -8.766   8.417  70.207  1.00  0.00    -0.140 C  
HETATM   10  O   UNL     1     -10.392   7.513  72.499  1.00  0.00    -0.207 OA 
HETATM   11  OXT UNL     1     -12.328   8.520  72.835  1.00  0.00    -0.275 OA 
HETATM   12  O   UNL     1      -8.611   7.335  70.718  1.00  0.00    -0.141 OA 
HETATM   13  CA  UNL     1      -8.147   9.293  69.061  1.00  0.00    -0.106 C  
ENDROOT
BRANCH  13  14
HETATM   14  N   UNL     1      -8.414   8.814  67.690  1.00  0.00    -0.124 N  
HETATM   15  H   UNL     1      -9.256   9.153  67.224  1.00  0.00     0.000 HD 
HETATM   16  C   UNL     1      -7.605   7.941  66.998  1.00  0.00    -0.100 C  
HETATM   17  O   UNL     1      -6.549   7.509  67.447  1.00  0.00    -0.058 OA 
BRANCH  16  18
HETATM   18  CA  UNL     1      -8.171   7.572  65.603  1.00  0.00    -0.133 C  
HETATM   19  H2  UNL     1      -8.915   9.510  65.274  1.00  0.00     0.000 HD 
HETATM   20  N   UNL     1      -9.239   8.544  65.231  1.00  0.00    -0.430 NA 
HETATM   21  H1  UNL     1      -9.612   8.301  64.313  1.00  0.00     0.000 HD 
BRANCH  18  22
HETATM   22  C   UNL     1      -8.669   6.140  65.564  1.00  0.00    -0.105 A  
HETATM   23  C   UNL     1      -9.672   5.735  66.460  1.00  0.00    -0.185 A  
HETATM   24  C   UNL     1     -10.146   4.421  66.457  1.00  0.00    -0.217 A  
HETATM   25  C   UNL     1      -9.631   3.495  65.554  1.00  0.00    -0.125 A  
HETATM   26  C   UNL     1      -8.653   3.884  64.643  1.00  0.00    -0.110 A  
HETATM   27  C   UNL     1      -8.180   5.199  64.642  1.00  0.00    -0.132 A  
ENDBRANCH  18  22
ENDBRANCH  16  18
ENDBRANCH  13  14
TORSDOF 3
ENDMDL
MODEL      144
REMARK 921   NORMALIZED FREE ENERGY PREDICTED BY IDOCK:   -4.11 KCAL/MOL
REMARK 922        TOTAL FREE ENERGY PREDICTED BY IDOCK:   -5.54 KCAL/MOL
REMARK 923 INTER-LIGAND FREE ENERGY PREDICTED BY IDOCK:   -5.13 KCAL/MOL
REMARK 924 INTRA-LIGAND FREE ENERGY PREDICTED BY IDOCK:   -0.41 KCAL/MOL
REMARK 927      BINDING AFFINITY PREDICTED BY RF-SCORE:    0.00 PKD
ROOT
HETATM    1  C   UNL     1      -8.001  10.361  68.215  1.00  0.00    -0.111 C  
HETATM    2  S   UNL     1      -9.657   9.838  67.701  1.00  0.00    -0.148 SA 
HETATM    3  C   UNL     1      -9.038   8.455  66.713  1.00  0.00    -0.157 C  
HETATM    4  C   UNL     1      -7.878   8.807  65.806  1.00  0.00    -0.099 C  
HETATM    5 CL   UNL     1      -7.795   7.649  64.500  1.00  0.00    -0.129 Cl 
HETATM    6  CA  UNL     1      -7.044   9.873  65.954  1.00  0.00    -0.107 C  
HETATM    7  N   UNL     1      -7.223  10.698  67.034  1.00  0.00    -0.097 N  
HETATM    8  C   UNL     1      -5.965  10.153  64.922  1.00  0.00    -0.124 C  
HETATM    9  C   UNL     1      -6.835  11.919  67.460  1.00  0.00    -0.124 C  
HETATM   10  O   UNL     1      -5.127  11.180  65.168  1.00  0.00    -0.265 OA 
HETATM   11  OXT UNL     1      -5.769   9.470  63.929  1.00  0.00    -0.076 OA 
HETATM   12  O   UNL     1      -6.049  12.691  66.969  1.00  0.00    -0.281 OA 
HETATM   13  CA  UNL     1      -7.864  11.857  68.644  1.00  0.00    -0.104 C  
ENDROOT
BRANCH  13  14
HETATM   14  N   UNL     1      -9.073  12.687  68.468  1.00  0.00    -0.370 N  
HETATM   15  H   UNL     1      -9.970  12.208  68.385  1.00  0.00     0.000 HD 
HETATM   16  C   UNL     1      -9.073  14.062  68.410  1.00  0.00    -0.191 C  
HETATM   17  O   UNL     1      -8.058  14.737  68.544  1.00  0.00    -0.133 OA 
BRANCH  16  18
HETATM   18  CA  UNL     1     -10.483  14.655  68.161  1.00  0.00    -0.237 C  
HETATM   19  H2  UNL     1     -11.192  12.881  67.286  1.00  0.00     0.000 HD 
HETATM   20  N   UNL     1     -11.161  13.881  67.083  1.00  0.00    -0.294 NA 
HETATM   21  H1  UNL     1     -12.089  14.271  66.918  1.00  0.00     0.000 HD 
BRANCH  18  22
HETATM   22  C   UNL     1     -10.417  16.137  67.838  1.00  0.00    -0.290 A  
HETATM   23  C   UNL     1     -10.404  17.070  68.888  1.00  0.00    -0.337 A  
HETATM   24  C   UNL     1     -10.354  18.441  68.625  1.00  0.00    -0.286 A  
HETATM   25  C   UNL     1     -10.307  18.899  67.311  1.00  0.00    -0.486 A  
HETATM   26  C   UNL     1     -10.296  17.988  66.258  1.00  0.00    -0.384 A  
HETATM   27  C   UNL     1     -10.342  16.615  66.520  1.00  0.00    -0.300 A  
ENDBRANCH  18  22
ENDBRANCH  16  18
ENDBRANCH  13  14
TORSDOF 3
ENDMDL
MODEL      145
REMARK 921   NORMALIZED FREE ENERGY PREDICTED BY IDOCK:   -4.11 KCAL/MOL
REMARK 922        TOTAL FREE ENERGY PREDICTED BY IDOCK:   -5.53 KCAL/MOL
REMARK 923 INTER-LIGAND FREE ENERGY PREDICTED BY IDOCK:   -4.87 KCAL/MOL
REMARK 924 INTRA-LIGAND FREE ENERGY PREDICTED BY IDOCK:   -0.66 KCAL/MOL
REMARK 927      BINDING AFFINITY PREDICTED BY RF-SCORE:    0.00 PKD
ROOT
HETATM    1  C   UNL     1      -9.680   8.924  69.345  1.00  0.00    -0.169 C  
HETATM    2  S   UNL     1      -8.064   9.179  70.121  1.00  0.00    -0.159 SA 
HETATM    3  C   UNL     1      -7.202   9.339  68.539  1.00  0.00    -0.072 C  
HETATM    4  C   UNL     1      -7.561   8.275  67.524  1.00  0.00    -0.098 C  
HETATM    5 CL   UNL     1      -6.271   8.138  66.352  1.00  0.00    -0.045 Cl 
HETATM    6  CA  UNL     1      -8.690   7.514  67.529  1.00  0.00    -0.125 C  
HETATM    7  N   UNL     1      -9.622   7.735  68.509  1.00  0.00    -0.148 N  
HETATM    8  C   UNL     1      -8.886   6.424  66.490  1.00  0.00    -0.136 C  
HETATM    9  C   UNL     1     -10.709   7.134  69.038  1.00  0.00    -0.184 C  
HETATM   10  O   UNL     1     -10.058   5.759  66.507  1.00  0.00    -0.170 OA 
HETATM   11  OXT UNL     1      -8.084   6.163  65.607  1.00  0.00    -0.114 OA 
HETATM   12  O   UNL     1     -11.281   6.131  68.685  1.00  0.00    -0.356 OA 
HETATM   13  CA  UNL     1     -10.740   8.173  70.214  1.00  0.00    -0.235 C  
ENDROOT
BRANCH  13  14
HETATM   14  N   UNL     1     -10.258   7.664  71.513  1.00  0.00    -0.185 N  
HETATM   15  H   UNL     1      -9.313   7.284  71.553  1.00  0.00     0.000 HD 
HETATM   16  C   UNL     1     -10.997   7.668  72.675  1.00  0.00    -0.351 C  
HETATM   17  O   UNL     1     -12.126   8.142  72.748  1.00  0.00    -0.337 OA 
BRANCH  16  18
HETATM   18  CA  UNL     1     -10.251   7.016  73.867  1.00  0.00    -0.350 C  
HETATM   19  H2  UNL     1      -9.098   8.737  74.225  1.00  0.00     0.000 HD 
HETATM   20  N   UNL     1      -8.964   7.733  74.095  1.00  0.00    -0.413 NA 
HETATM   21  H1  UNL     1      -8.472   7.304  74.879  1.00  0.00     0.000 HD 
BRANCH  18  22
HETATM   22  C   UNL     1     -10.040   5.530  73.647  1.00  0.00    -0.209 A  
HETATM   23  C   UNL     1     -11.155   4.696  73.463  1.00  0.00    -0.412 A  
HETATM   24  C   UNL     1     -10.996   3.322  73.269  1.00  0.00    -0.263 A  
HETATM   25  C   UNL     1      -9.721   2.763  73.247  1.00  0.00    -0.149 A  
HETATM   26  C   UNL     1      -8.603   3.577  73.406  1.00  0.00    -0.086 A  
HETATM   27  C   UNL     1      -8.760   4.953  73.597  1.00  0.00    -0.103 A  
ENDBRANCH  18  22
ENDBRANCH  16  18
ENDBRANCH  13  14
TORSDOF 3
ENDMDL
MODEL      146
REMARK 921   NORMALIZED FREE ENERGY PREDICTED BY IDOCK:   -4.10 KCAL/MOL
REMARK 922        TOTAL FREE ENERGY PREDICTED BY IDOCK:   -5.52 KCAL/MOL
REMARK 923 INTER-LIGAND FREE ENERGY PREDICTED BY IDOCK:   -5.05 KCAL/MOL
REMARK 924 INTRA-LIGAND FREE ENERGY PREDICTED BY IDOCK:   -0.47 KCAL/MOL
REMARK 927      BINDING AFFINITY PREDICTED BY RF-SCORE:    0.00 PKD
ROOT
HETATM    1  C   UNL     1     -12.181   8.712  70.580  1.00  0.00     0.094 C  
HETATM    2  S   UNL     1     -12.453   9.465  72.204  1.00  0.00    -0.281 SA 
HETATM    3  C   UNL     1     -12.944  11.061  71.509  1.00  0.00    -0.448 C  
HETATM    4  C   UNL     1     -12.029  11.572  70.416  1.00  0.00    -0.368 C  
HETATM    5 CL   UNL     1     -12.201  13.307  70.285  1.00  0.00    -0.410 Cl 
HETATM    6  CA  UNL     1     -11.178  10.817  69.669  1.00  0.00    -0.291 C  
HETATM    7  N   UNL     1     -11.153   9.463  69.877  1.00  0.00    -0.228 N  
HETATM    8  C   UNL     1     -10.256  11.473  68.655  1.00  0.00    -0.208 C  
HETATM    9  C   UNL     1     -10.378   8.398  69.576  1.00  0.00    -0.219 C  
HETATM   10  O   UNL     1      -9.494  10.660  67.897  1.00  0.00    -0.155 OA 
HETATM   11  OXT UNL     1     -10.215  12.675  68.440  1.00  0.00    -0.230 OA 
HETATM   12  O   UNL     1      -9.398   8.334  68.875  1.00  0.00    -0.147 OA 
HETATM   13  CA  UNL     1     -11.207   7.491  70.553  1.00  0.00    -0.269 C  
ENDROOT
BRANCH  13  14
HETATM   14  N   UNL     1     -10.541   7.174  71.832  1.00  0.00    -0.212 N  
HETATM   15  H   UNL     1      -9.687   7.681  72.061  1.00  0.00     0.000 HD 
HETATM   16  C   UNL     1     -10.995   6.240  72.737  1.00  0.00    -0.260 C  
HETATM   17  O   UNL     1     -12.034   5.608  72.581  1.00  0.00    -0.252 OA 
BRANCH  16  18
HETATM   18  CA  UNL     1     -10.058   6.082  73.961  1.00  0.00    -0.260 C  
HETATM   19  H2  UNL     1     -10.277   8.095  74.524  1.00  0.00     0.000 HD 
HETATM   20  N   UNL     1      -9.531   7.420  74.355  1.00  0.00    -0.413 NA 
HETATM   21  H1  UNL     1      -8.913   7.316  75.160  1.00  0.00     0.000 HD 
BRANCH  18  22
HETATM   22  C   UNL     1      -8.941   5.093  73.685  1.00  0.00    -0.121 A  
HETATM   23  C   UNL     1      -9.261   3.801  73.236  1.00  0.00    -0.115 A  
HETATM   24  C   UNL     1      -8.258   2.863  72.982  1.00  0.00    -0.071 A  
HETATM   25  C   UNL     1      -6.921   3.204  73.165  1.00  0.00    -0.039 A  
HETATM   26  C   UNL     1      -6.583   4.487  73.587  1.00  0.00    -0.057 A  
HETATM   27  C   UNL     1      -7.585   5.428  73.838  1.00  0.00    -0.094 A  
ENDBRANCH  18  22
ENDBRANCH  16  18
ENDBRANCH  13  14
TORSDOF 3
ENDMDL
MODEL      147
REMARK 921   NORMALIZED FREE ENERGY PREDICTED BY IDOCK:   -4.09 KCAL/MOL
REMARK 922        TOTAL FREE ENERGY PREDICTED BY IDOCK:   -5.51 KCAL/MOL
REMARK 923 INTER-LIGAND FREE ENERGY PREDICTED BY IDOCK:   -4.83 KCAL/MOL
REMARK 924 INTRA-LIGAND FREE ENERGY PREDICTED BY IDOCK:   -0.68 KCAL/MOL
REMARK 927      BINDING AFFINITY PREDICTED BY RF-SCORE:    0.00 PKD
ROOT
HETATM    1  C   UNL     1     -10.871   9.899  67.394  1.00  0.00    -0.227 C  
HETATM    2  S   UNL     1     -10.576  11.087  68.729  1.00  0.00    -0.213 SA 
HETATM    3  C   UNL     1     -11.822  12.249  68.124  1.00  0.00    -0.311 C  
HETATM    4  C   UNL     1     -11.749  12.523  66.636  1.00  0.00    -0.387 C  
HETATM    5 CL   UNL     1     -12.514  14.057  66.293  1.00  0.00    -0.486 Cl 
HETATM    6  CA  UNL     1     -11.156  11.725  65.706  1.00  0.00    -0.297 C  
HETATM    7  N   UNL     1     -10.600  10.542  66.119  1.00  0.00    -0.162 N  
HETATM    8  C   UNL     1     -11.088  12.160  64.252  1.00  0.00    -0.346 C  
HETATM    9  C   UNL     1      -9.760   9.593  65.654  1.00  0.00    -0.293 C  
HETATM   10  O   UNL     1     -10.554  11.289  63.372  1.00  0.00    -0.375 OA 
HETATM   11  OXT UNL     1     -11.544  13.210  63.826  1.00  0.00    -0.426 OA 
HETATM   12  O   UNL     1      -9.264   9.474  64.561  1.00  0.00    -0.238 OA 
HETATM   13  CA  UNL     1      -9.689   8.929  67.075  1.00  0.00    -0.190 C  
ENDROOT
BRANCH  13  14
HETATM   14  N   UNL     1      -8.438   9.176  67.821  1.00  0.00    -0.117 N  
HETATM   15  H   UNL     1      -8.478   9.813  68.616  1.00  0.00     0.000 HD 
HETATM   16  C   UNL     1      -7.223   8.604  67.517  1.00  0.00    -0.081 C  
HETATM   17  O   UNL     1      -7.074   7.792  66.610  1.00  0.00    -0.075 OA 
BRANCH  16  18
HETATM   18  CA  UNL     1      -6.078   9.096  68.438  1.00  0.00    -0.045 C  
HETATM   19  H2  UNL     1      -6.272   7.454  69.735  1.00  0.00     0.000 HD 
HETATM   20  N   UNL     1      -6.225   8.472  69.784  1.00  0.00    -0.035 NA 
HETATM   21  H1  UNL     1      -5.472   8.796  70.391  1.00  0.00     0.000 HD 
BRANCH  18  22
HETATM   22  C   UNL     1      -6.038  10.611  68.518  1.00  0.00    -0.046 A  
HETATM   23  C   UNL     1      -6.255  11.241  69.754  1.00  0.00    -0.124 A  
HETATM   24  C   UNL     1      -6.235  12.634  69.860  1.00  0.00    -0.088 A  
HETATM   25  C   UNL     1      -5.989  13.416  68.735  1.00  0.00    -0.084 A  
HETATM   26  C   UNL     1      -5.749  12.809  67.506  1.00  0.00    -0.116 A  
HETATM   27  C   UNL     1      -5.765  11.415  67.399  1.00  0.00    -0.064 A  
ENDBRANCH  18  22
ENDBRANCH  16  18
ENDBRANCH  13  14
TORSDOF 3
ENDMDL
MODEL      148
REMARK 921   NORMALIZED FREE ENERGY PREDICTED BY IDOCK:   -4.05 KCAL/MOL
REMARK 922        TOTAL FREE ENERGY PREDICTED BY IDOCK:   -5.47 KCAL/MOL
REMARK 923 INTER-LIGAND FREE ENERGY PREDICTED BY IDOCK:   -4.95 KCAL/MOL
REMARK 924 INTRA-LIGAND FREE ENERGY PREDICTED BY IDOCK:   -0.52 KCAL/MOL
REMARK 927      BINDING AFFINITY PREDICTED BY RF-SCORE:    0.00 PKD
ROOT
HETATM    1  C   UNL     1      -9.616  12.404  66.113  1.00  0.00    -0.233 C  
HETATM    2  S   UNL     1     -11.301  11.893  66.533  1.00  0.00    -0.305 SA 
HETATM    3  C   UNL     1     -11.834  13.574  66.935  1.00  0.00    -0.407 C  
HETATM    4  C   UNL     1     -10.872  14.337  67.821  1.00  0.00    -0.253 C  
HETATM    5 CL   UNL     1     -11.734  15.621  68.636  1.00  0.00    -0.384 Cl 
HETATM    6  CA  UNL     1      -9.550  14.059  67.990  1.00  0.00    -0.217 C  
HETATM    7  N   UNL     1      -9.004  13.023  67.277  1.00  0.00    -0.203 N  
HETATM    8  C   UNL     1      -8.715  14.862  68.973  1.00  0.00    -0.177 C  
HETATM    9  C   UNL     1      -7.886  12.267  67.272  1.00  0.00    -0.171 C  
HETATM   10  O   UNL     1      -7.398  14.583  69.036  1.00  0.00    -0.122 OA 
HETATM   11  OXT UNL     1      -9.148  15.780  69.652  1.00  0.00    -0.251 OA 
HETATM   12  O   UNL     1      -6.886  12.367  67.941  1.00  0.00    -0.078 OA 
HETATM   13  CA  UNL     1      -8.523  11.293  66.218  1.00  0.00    -0.156 C  
ENDROOT
BRANCH  13  14
HETATM   14  N   UNL     1      -8.978   9.996  66.757  1.00  0.00    -0.135 N  
HETATM   15  H   UNL     1      -9.421   9.993  67.676  1.00  0.00     0.000 HD 
HETATM   16  C   UNL     1      -8.846   8.791  66.104  1.00  0.00    -0.168 C  
HETATM   17  O   UNL     1      -8.370   8.688  64.979  1.00  0.00    -0.155 OA 
BRANCH  16  18
HETATM   18  CA  UNL     1      -9.362   7.592  66.941  1.00  0.00    -0.161 C  
HETATM   19  H2  UNL     1     -11.063   7.343  65.732  1.00  0.00     0.000 HD 
HETATM   20  N   UNL     1     -10.828   7.432  66.721  1.00  0.00    -0.521 NA 
HETATM   21  H1  UNL     1     -11.168   6.644  67.272  1.00  0.00     0.000 HD 
BRANCH  18  22
HETATM   22  C   UNL     1      -9.025   7.752  68.412  1.00  0.00    -0.132 A  
HETATM   23  C   UNL     1     -10.065   7.854  69.350  1.00  0.00    -0.196 A  
HETATM   24  C   UNL     1      -9.789   8.012  70.710  1.00  0.00    -0.197 A  
HETATM   25  C   UNL     1      -8.470   8.062  71.153  1.00  0.00    -0.134 A  
HETATM   26  C   UNL     1      -7.426   7.940  70.241  1.00  0.00    -0.077 A  
HETATM   27  C   UNL     1      -7.700   7.778  68.880  1.00  0.00    -0.113 A  
ENDBRANCH  18  22
ENDBRANCH  16  18
ENDBRANCH  13  14
TORSDOF 3
ENDMDL
MODEL      149
REMARK 921   NORMALIZED FREE ENERGY PREDICTED BY IDOCK:   -4.02 KCAL/MOL
REMARK 922        TOTAL FREE ENERGY PREDICTED BY IDOCK:   -5.42 KCAL/MOL
REMARK 923 INTER-LIGAND FREE ENERGY PREDICTED BY IDOCK:   -4.72 KCAL/MOL
REMARK 924 INTRA-LIGAND FREE ENERGY PREDICTED BY IDOCK:   -0.71 KCAL/MOL
REMARK 927      BINDING AFFINITY PREDICTED BY RF-SCORE:    0.00 PKD
ROOT
HETATM    1  C   UNL     1      -9.023   8.692  71.302  1.00  0.00    -0.210 C  
HETATM    2  S   UNL     1      -8.819   8.764  69.505  1.00  0.00    -0.146 SA 
HETATM    3  C   UNL     1      -9.632  10.374  69.363  1.00  0.00    -0.192 C  
HETATM    4  C   UNL     1     -10.931  10.485  70.132  1.00  0.00    -0.270 C  
HETATM    5 CL   UNL     1     -11.903  11.763  69.440  1.00  0.00    -0.380 Cl 
HETATM    6  CA  UNL     1     -11.310   9.700  71.178  1.00  0.00    -0.386 C  
HETATM    7  N   UNL     1     -10.440   8.738  71.621  1.00  0.00    -0.289 N  
HETATM    8  C   UNL     1     -12.681   9.871  71.811  1.00  0.00    -0.428 C  
HETATM    9  C   UNL     1     -10.447   7.643  72.410  1.00  0.00    -0.248 C  
HETATM   10  O   UNL     1     -12.962   9.113  72.888  1.00  0.00    -0.294 OA 
HETATM   11  OXT UNL     1     -13.508  10.694  71.447  1.00  0.00    -0.248 OA 
HETATM   12  O   UNL     1     -11.330   7.198  73.101  1.00  0.00    -0.233 OA 
HETATM   13  CA  UNL     1      -9.001   7.262  71.931  1.00  0.00    -0.126 C  
ENDROOT
BRANCH  13  14
HETATM   14  N   UNL     1      -8.934   6.141  70.971  1.00  0.00    -0.143 N  
HETATM   15  H   UNL     1      -9.755   5.960  70.394  1.00  0.00     0.000 HD 
HETATM   16  C   UNL     1      -7.838   5.324  70.802  1.00  0.00    -0.093 C  
HETATM   17  O   UNL     1      -6.786   5.482  71.412  1.00  0.00    -0.057 OA 
BRANCH  16  18
HETATM   18  CA  UNL     1      -8.081   4.198  69.765  1.00  0.00    -0.055 C  
HETATM   19  H2  UNL     1      -6.693   2.911  70.679  1.00  0.00     0.000 HD 
HETATM   20  N   UNL     1      -6.907   3.279  69.752  1.00  0.00    -0.034 NA 
HETATM   21  H1  UNL     1      -7.066   2.538  69.069  1.00  0.00     0.000 HD 
BRANCH  18  22
HETATM   22  C   UNL     1      -8.375   4.762  68.388  1.00  0.00    -0.090 A  
HETATM   23  C   UNL     1      -9.645   4.566  67.821  1.00  0.00    -0.208 A  
HETATM   24  C   UNL     1      -9.944   5.063  66.550  1.00  0.00    -0.249 A  
HETATM   25  C   UNL     1      -8.983   5.769  65.831  1.00  0.00    -0.158 A  
HETATM   26  C   UNL     1      -7.726   5.991  66.386  1.00  0.00    -0.102 A  
HETATM   27  C   UNL     1      -7.426   5.498  67.659  1.00  0.00    -0.081 A  
ENDBRANCH  18  22
ENDBRANCH  16  18
ENDBRANCH  13  14
TORSDOF 3
ENDMDL
MODEL      150
REMARK 921   NORMALIZED FREE ENERGY PREDICTED BY IDOCK:   -3.99 KCAL/MOL
REMARK 922        TOTAL FREE ENERGY PREDICTED BY IDOCK:   -5.39 KCAL/MOL
REMARK 923 INTER-LIGAND FREE ENERGY PREDICTED BY IDOCK:   -4.89 KCAL/MOL
REMARK 924 INTRA-LIGAND FREE ENERGY PREDICTED BY IDOCK:   -0.50 KCAL/MOL
REMARK 927      BINDING AFFINITY PREDICTED BY RF-SCORE:    0.00 PKD
ROOT
HETATM    1  C   UNL     1      -9.724  12.681  66.590  1.00  0.00    -0.249 C  
HETATM    2  S   UNL     1     -11.502  12.741  66.928  1.00  0.00    -0.360 SA 
HETATM    3  C   UNL     1     -11.571  14.547  66.850  1.00  0.00    -0.385 C  
HETATM    4  C   UNL     1     -10.477  15.246  67.630  1.00  0.00    -0.263 C  
HETATM    5 CL   UNL     1     -10.990  16.873  68.010  1.00  0.00    -0.329 Cl 
HETATM    6  CA  UNL     1      -9.291  14.697  68.009  1.00  0.00    -0.198 C  
HETATM    7  N   UNL     1      -9.019  13.407  67.634  1.00  0.00    -0.190 N  
HETATM    8  C   UNL     1      -8.313  15.491  68.859  1.00  0.00    -0.205 C  
HETATM    9  C   UNL     1      -8.151  12.418  67.937  1.00  0.00    -0.161 C  
HETATM   10  O   UNL     1      -7.127  14.914  69.136  1.00  0.00    -0.125 OA 
HETATM   11  OXT UNL     1      -8.507  16.633  69.244  1.00  0.00    -0.171 OA 
HETATM   12  O   UNL     1      -7.193  12.433  68.671  1.00  0.00    -0.098 OA 
HETATM   13  CA  UNL     1      -8.983  11.397  67.083  1.00  0.00    -0.162 C  
ENDROOT
BRANCH  13  14
HETATM   14  N   UNL     1      -9.799  10.445  67.863  1.00  0.00    -0.152 N  
HETATM   15  H   UNL     1     -10.208  10.775  68.737  1.00  0.00     0.000 HD 
HETATM   16  C   UNL     1     -10.047   9.143  67.491  1.00  0.00    -0.228 C  
HETATM   17  O   UNL     1      -9.641   8.659  66.440  1.00  0.00    -0.209 OA 
BRANCH  16  18
HETATM   18  CA  UNL     1     -10.887   8.367  68.536  1.00  0.00     0.081 C  
HETATM   19  H2  UNL     1     -11.851  10.108  69.213  1.00  0.00     0.000 HD 
HETATM   20  N   UNL     1     -11.347   9.308  69.597  1.00  0.00    -0.437 NA 
HETATM   21  H1  UNL     1     -11.899   8.797  70.286  1.00  0.00     0.000 HD 
BRANCH  18  22
HETATM   22  C   UNL     1     -10.115   7.195  69.114  1.00  0.00    -0.183 A  
HETATM   23  C   UNL     1     -10.174   5.948  68.472  1.00  0.00    -0.240 A  
HETATM   24  C   UNL     1      -9.483   4.847  68.984  1.00  0.00    -0.205 A  
HETATM   25  C   UNL     1      -8.718   4.978  70.139  1.00  0.00    -0.130 A  
HETATM   26  C   UNL     1      -8.631   6.212  70.777  1.00  0.00    -0.135 A  
HETATM   27  C   UNL     1      -9.318   7.316  70.265  1.00  0.00    -0.158 A  
ENDBRANCH  18  22
ENDBRANCH  16  18
ENDBRANCH  13  14
TORSDOF 3
ENDMDL
MODEL      151
REMARK 921   NORMALIZED FREE ENERGY PREDICTED BY IDOCK:   -3.98 KCAL/MOL
REMARK 922        TOTAL FREE ENERGY PREDICTED BY IDOCK:   -5.38 KCAL/MOL
REMARK 923 INTER-LIGAND FREE ENERGY PREDICTED BY IDOCK:   -4.82 KCAL/MOL
REMARK 924 INTRA-LIGAND FREE ENERGY PREDICTED BY IDOCK:   -0.57 KCAL/MOL
REMARK 927      BINDING AFFINITY PREDICTED BY RF-SCORE:    0.00 PKD
ROOT
HETATM    1  C   UNL     1      -8.258  11.249  65.544  1.00  0.00     0.199 C  
HETATM    2  S   UNL     1      -8.870   9.753  64.730  1.00  0.00    -0.223 SA 
HETATM    3  C   UNL     1      -9.968  10.669  63.621  1.00  0.00    -0.301 C  
HETATM    4  C   UNL     1     -10.801  11.731  64.307  1.00  0.00    -0.349 C  
HETATM    5 CL   UNL     1     -12.210  12.078  63.333  1.00  0.00    -0.648 Cl 
HETATM    6  CA  UNL     1     -10.524  12.311  65.508  1.00  0.00    -0.264 C  
HETATM    7  N   UNL     1      -9.376  11.946  66.160  1.00  0.00    -0.227 N  
HETATM    8  C   UNL     1     -11.490  13.312  66.118  1.00  0.00    -0.328 C  
HETATM    9  C   UNL     1      -8.821  12.053  67.386  1.00  0.00    -0.178 C  
HETATM   10  O   UNL     1     -11.119  13.902  67.271  1.00  0.00    -0.288 OA 
HETATM   11  OXT UNL     1     -12.538  13.661  65.598  1.00  0.00    -0.479 OA 
HETATM   12  O   UNL     1      -9.210  12.657  68.356  1.00  0.00    -0.195 OA 
HETATM   13  CA  UNL     1      -7.681  11.052  66.983  1.00  0.00    -0.134 C  
ENDROOT
BRANCH  13  14
HETATM   14  N   UNL     1      -7.812   9.693  67.544  1.00  0.00    -0.095 N  
HETATM   15  H   UNL     1      -8.753   9.344  67.729  1.00  0.00     0.000 HD 
HETATM   16  C   UNL     1      -6.752   8.863  67.836  1.00  0.00    -0.069 C  
HETATM   17  O   UNL     1      -5.585   9.166  67.612  1.00  0.00    -0.038 OA 
BRANCH  16  18
HETATM   18  CA  UNL     1      -7.194   7.520  68.470  1.00  0.00    -0.090 C  
HETATM   19  H2  UNL     1      -5.218   6.828  68.644  1.00  0.00     0.000 HD 
HETATM   20  N   UNL     1      -6.116   6.508  68.282  1.00  0.00    -0.027 NA 
HETATM   21  H1  UNL     1      -6.407   5.623  68.698  1.00  0.00     0.000 HD 
BRANCH  18  22
HETATM   22  C   UNL     1      -8.521   7.046  67.904  1.00  0.00    -0.124 A  
HETATM   23  C   UNL     1      -8.543   6.381  66.667  1.00  0.00    -0.121 A  
HETATM   24  C   UNL     1      -9.748   5.941  66.114  1.00  0.00    -0.084 A  
HETATM   25  C   UNL     1     -10.946   6.152  66.792  1.00  0.00    -0.322 A  
HETATM   26  C   UNL     1     -10.940   6.789  68.030  1.00  0.00    -0.289 A  
HETATM   27  C   UNL     1      -9.735   7.226  68.587  1.00  0.00    -0.146 A  
ENDBRANCH  18  22
ENDBRANCH  16  18
ENDBRANCH  13  14
TORSDOF 3
ENDMDL
MODEL      152
REMARK 921   NORMALIZED FREE ENERGY PREDICTED BY IDOCK:   -3.96 KCAL/MOL
REMARK 922        TOTAL FREE ENERGY PREDICTED BY IDOCK:   -5.35 KCAL/MOL
REMARK 923 INTER-LIGAND FREE ENERGY PREDICTED BY IDOCK:   -4.80 KCAL/MOL
REMARK 924 INTRA-LIGAND FREE ENERGY PREDICTED BY IDOCK:   -0.56 KCAL/MOL
REMARK 927      BINDING AFFINITY PREDICTED BY RF-SCORE:    0.00 PKD
ROOT
HETATM    1  C   UNL     1      -8.051  16.321  66.384  1.00  0.00    -0.299 C  
HETATM    2  S   UNL     1      -9.709  15.754  65.925  1.00  0.00    -0.354 SA 
HETATM    3  C   UNL     1     -10.347  17.433  65.710  1.00  0.00    -0.216 C  
HETATM    4  C   UNL     1      -9.994  18.383  66.835  1.00  0.00    -0.353 C  
HETATM    5 CL   UNL     1     -11.138  19.704  66.855  1.00  0.00    -0.402 Cl 
HETATM    6  CA  UNL     1      -8.971  18.228  67.720  1.00  0.00    -0.267 C  
HETATM    7  N   UNL     1      -8.145  17.143  67.580  1.00  0.00    -0.182 N  
HETATM    8  C   UNL     1      -8.777  19.221  68.852  1.00  0.00    -0.298 C  
HETATM    9  C   UNL     1      -7.209  16.476  68.287  1.00  0.00    -0.159 C  
HETATM   10  O   UNL     1      -7.701  19.050  69.646  1.00  0.00     0.084 OA 
HETATM   11  OXT UNL     1      -9.491  20.194  69.043  1.00  0.00    -0.039 OA 
HETATM   12  O   UNL     1      -6.718  16.742  69.358  1.00  0.00    -0.229 OA 
HETATM   13  CA  UNL     1      -7.200  15.318  67.228  1.00  0.00    -0.178 C  
ENDROOT
BRANCH  13  14
HETATM   14  N   UNL     1      -7.893  14.082  67.643  1.00  0.00    -0.161 N  
HETATM   15  H   UNL     1      -8.814  13.897  67.247  1.00  0.00     0.000 HD 
HETATM   16  C   UNL     1      -7.380  13.161  68.530  1.00  0.00    -0.111 C  
HETATM   17  O   UNL     1      -6.265  13.263  69.029  1.00  0.00    -0.082 OA 
BRANCH  16  18
HETATM   18  CA  UNL     1      -8.358  11.994  68.819  1.00  0.00     0.049 C  
HETATM   19  H2  UNL     1      -7.255  11.342  70.486  1.00  0.00     0.000 HD 
HETATM   20  N   UNL     1      -7.661  10.957  69.632  1.00  0.00    -0.354 NA 
HETATM   21  H1  UNL     1      -8.304  10.188  69.822  1.00  0.00     0.000 HD 
BRANCH  18  22
HETATM   22  C   UNL     1      -8.933  11.418  67.539  1.00  0.00    -0.150 A  
HETATM   23  C   UNL     1      -8.079  10.772  66.630  1.00  0.00    -0.142 A  
HETATM   24  C   UNL     1      -8.576  10.240  65.437  1.00  0.00    -0.169 A  
HETATM   25  C   UNL     1      -9.932  10.337  65.140  1.00  0.00    -0.395 A  
HETATM   26  C   UNL     1     -10.797  10.954  66.040  1.00  0.00    -0.155 A  
HETATM   27  C   UNL     1     -10.303  11.483  67.235  1.00  0.00    -0.236 A  
ENDBRANCH  18  22
ENDBRANCH  16  18
ENDBRANCH  13  14
TORSDOF 3
ENDMDL
MODEL      153
REMARK 921   NORMALIZED FREE ENERGY PREDICTED BY IDOCK:   -3.95 KCAL/MOL
REMARK 922        TOTAL FREE ENERGY PREDICTED BY IDOCK:   -5.35 KCAL/MOL
REMARK 923 INTER-LIGAND FREE ENERGY PREDICTED BY IDOCK:   -4.79 KCAL/MOL
REMARK 924 INTRA-LIGAND FREE ENERGY PREDICTED BY IDOCK:   -0.55 KCAL/MOL
REMARK 927      BINDING AFFINITY PREDICTED BY RF-SCORE:    0.00 PKD
ROOT
HETATM    1  C   UNL     1      -9.163  10.036  69.681  1.00  0.00    -0.215 C  
HETATM    2  S   UNL     1     -10.234  10.996  68.581  1.00  0.00    -0.205 SA 
HETATM    3  C   UNL     1     -11.290  11.576  69.931  1.00  0.00    -0.186 C  
HETATM    4  C   UNL     1     -11.722  10.492  70.894  1.00  0.00    -0.335 C  
HETATM    5 CL   UNL     1     -13.177  10.999  71.719  1.00  0.00    -0.541 Cl 
HETATM    6  CA  UNL     1     -11.104   9.292  71.076  1.00  0.00    -0.326 C  
HETATM    7  N   UNL     1      -9.963   9.031  70.363  1.00  0.00    -0.190 N  
HETATM    8  C   UNL     1     -11.691   8.261  72.023  1.00  0.00    -0.346 C  
HETATM    9  C   UNL     1      -9.177   7.980  70.044  1.00  0.00    -0.156 C  
HETATM   10  O   UNL     1     -10.989   7.126  72.213  1.00  0.00    -0.226 OA 
HETATM   11  OXT UNL     1     -12.715   8.424  72.669  1.00  0.00    -0.297 OA 
HETATM   12  O   UNL     1      -9.234   6.835  70.421  1.00  0.00    -0.155 OA 
HETATM   13  CA  UNL     1      -8.385   8.858  69.011  1.00  0.00    -0.124 C  
ENDROOT
BRANCH  13  14
HETATM   14  N   UNL     1      -8.706   8.602  67.593  1.00  0.00    -0.135 N  
HETATM   15  H   UNL     1      -9.342   9.248  67.126  1.00  0.00     0.000 HD 
HETATM   16  C   UNL     1      -8.205   7.551  66.857  1.00  0.00    -0.124 C  
HETATM   17  O   UNL     1      -7.400   6.744  67.307  1.00  0.00    -0.086 OA 
BRANCH  16  18
HETATM   18  CA  UNL     1      -8.765   7.506  65.413  1.00  0.00     0.015 C  
HETATM   19  H2  UNL     1      -9.118   5.436  65.501  1.00  0.00     0.000 HD 
HETATM   20  N   UNL     1      -8.664   6.114  64.888  1.00  0.00    -0.357 NA 
HETATM   21  H1  UNL     1      -9.032   6.084  63.937  1.00  0.00     0.000 HD 
BRANCH  18  22
HETATM   22  C   UNL     1      -8.063   8.503  64.510  1.00  0.00    -0.158 A  
HETATM   23  C   UNL     1      -6.661   8.590  64.539  1.00  0.00    -0.066 A  
HETATM   24  C   UNL     1      -5.985   9.505  63.729  1.00  0.00    -0.094 A  
HETATM   25  C   UNL     1      -6.698  10.340  62.872  1.00  0.00    -0.135 A  
HETATM   26  C   UNL     1      -8.086  10.253  62.814  1.00  0.00    -0.160 A  
HETATM   27  C   UNL     1      -8.764   9.335  63.622  1.00  0.00    -0.188 A  
ENDBRANCH  18  22
ENDBRANCH  16  18
ENDBRANCH  13  14
TORSDOF 3
ENDMDL
MODEL      154
REMARK 921   NORMALIZED FREE ENERGY PREDICTED BY IDOCK:   -3.89 KCAL/MOL
REMARK 922        TOTAL FREE ENERGY PREDICTED BY IDOCK:   -5.27 KCAL/MOL
REMARK 923 INTER-LIGAND FREE ENERGY PREDICTED BY IDOCK:   -4.68 KCAL/MOL
REMARK 924 INTRA-LIGAND FREE ENERGY PREDICTED BY IDOCK:   -0.59 KCAL/MOL
REMARK 927      BINDING AFFINITY PREDICTED BY RF-SCORE:    0.00 PKD
ROOT
HETATM    1  C   UNL     1     -10.586   7.636  67.429  1.00  0.00    -0.286 C  
HETATM    2  S   UNL     1      -9.610   8.610  68.602  1.00  0.00    -0.158 SA 
HETATM    3  C   UNL     1      -8.715   9.491  67.301  1.00  0.00    -0.128 C  
HETATM    4  C   UNL     1      -8.181   8.601  66.199  1.00  0.00    -0.121 C  
HETATM    5 CL   UNL     1      -6.856   9.409  65.395  1.00  0.00    -0.077 Cl 
HETATM    6  CA  UNL     1      -8.631   7.353  65.892  1.00  0.00    -0.153 C  
HETATM    7  N   UNL     1      -9.686   6.846  66.604  1.00  0.00    -0.178 N  
HETATM    8  C   UNL     1      -7.950   6.536  64.808  1.00  0.00    -0.120 C  
HETATM    9  C   UNL     1     -10.297   5.661  66.818  1.00  0.00    -0.262 C  
HETATM   10  O   UNL     1      -8.492   5.340  64.504  1.00  0.00    -0.139 OA 
HETATM   11  OXT UNL     1      -6.993   6.922  64.154  1.00  0.00    -0.048 OA 
HETATM   12  O   UNL     1     -10.097   4.588  66.302  1.00  0.00    -0.225 OA 
HETATM   13  CA  UNL     1     -11.155   6.286  67.974  1.00  0.00    -0.265 C  
ENDROOT
BRANCH  13  14
HETATM   14  N   UNL     1     -10.731   5.918  69.340  1.00  0.00    -0.306 N  
HETATM   15  H   UNL     1      -9.896   5.340  69.438  1.00  0.00     0.000 HD 
HETATM   16  C   UNL     1     -11.385   6.301  70.490  1.00  0.00    -0.361 C  
HETATM   17  O   UNL     1     -12.370   7.031  70.487  1.00  0.00    -0.267 OA 
BRANCH  16  18
HETATM   18  CA  UNL     1     -10.742   5.715  71.772  1.00  0.00    -0.244 C  
HETATM   19  H2  UNL     1     -12.607   5.247  72.622  1.00  0.00     0.000 HD 
HETATM   20  N   UNL     1     -11.744   5.729  72.877  1.00  0.00    -0.528 NA 
HETATM   21  H1  UNL     1     -11.321   5.343  73.721  1.00  0.00     0.000 HD 
BRANCH  18  22
HETATM   22  C   UNL     1      -9.473   6.456  72.150  1.00  0.00    -0.152 A  
HETATM   23  C   UNL     1      -9.539   7.829  72.441  1.00  0.00    -0.238 A  
HETATM   24  C   UNL     1      -8.388   8.543  72.781  1.00  0.00    -0.140 A  
HETATM   25  C   UNL     1      -7.157   7.896  72.844  1.00  0.00    -0.104 A  
HETATM   26  C   UNL     1      -7.076   6.531  72.581  1.00  0.00    -0.074 A  
HETATM   27  C   UNL     1      -8.227   5.814  72.244  1.00  0.00    -0.108 A  
ENDBRANCH  18  22
ENDBRANCH  16  18
ENDBRANCH  13  14
TORSDOF 3
ENDMDL
MODEL      155
REMARK 921   NORMALIZED FREE ENERGY PREDICTED BY IDOCK:   -3.76 KCAL/MOL
REMARK 922        TOTAL FREE ENERGY PREDICTED BY IDOCK:   -5.13 KCAL/MOL
REMARK 923 INTER-LIGAND FREE ENERGY PREDICTED BY IDOCK:   -4.75 KCAL/MOL
REMARK 924 INTRA-LIGAND FREE ENERGY PREDICTED BY IDOCK:   -0.38 KCAL/MOL
REMARK 927      BINDING AFFINITY PREDICTED BY RF-SCORE:    0.00 PKD
ROOT
HETATM    1  C   UNL     1      -8.445  15.057  67.213  1.00  0.00    -0.198 C  
HETATM    2  S   UNL     1      -9.959  14.792  68.171  1.00  0.00    -0.225 SA 
HETATM    3  C   UNL     1     -10.425  16.539  68.132  1.00  0.00    -0.313 C  
HETATM    4  C   UNL     1      -9.298  17.492  68.467  1.00  0.00    -0.286 C  
HETATM    5 CL   UNL     1      -9.969  19.010  69.014  1.00  0.00    -0.446 Cl 
HETATM    6  CA  UNL     1      -7.967  17.215  68.389  1.00  0.00    -0.250 C  
HETATM    7  N   UNL     1      -7.584  15.980  67.934  1.00  0.00    -0.128 N  
HETATM    8  C   UNL     1      -6.940  18.243  68.831  1.00  0.00    -0.278 C  
HETATM    9  C   UNL     1      -6.479  15.204  67.898  1.00  0.00    -0.159 C  
HETATM   10  O   UNL     1      -5.641  17.931  68.658  1.00  0.00    -0.162 OA 
HETATM   11  OXT UNL     1      -7.219  19.350  69.266  1.00  0.00    -0.349 OA 
HETATM   12  O   UNL     1      -5.349  15.459  68.236  1.00  0.00    -0.098 OA 
HETATM   13  CA  UNL     1      -7.327  13.981  67.398  1.00  0.00    -0.114 C  
ENDROOT
BRANCH  13  14
HETATM   14  N   UNL     1      -7.596  12.946  68.416  1.00  0.00    -0.128 N  
HETATM   15  H   UNL     1      -7.356  13.158  69.384  1.00  0.00     0.000 HD 
HETATM   16  C   UNL     1      -8.150  11.714  68.148  1.00  0.00    -0.148 C  
HETATM   17  O   UNL     1      -8.516  11.375  67.028  1.00  0.00    -0.147 OA 
BRANCH  16  18
HETATM   18  CA  UNL     1      -8.259  10.816  69.406  1.00  0.00    -0.023 C  
HETATM   19  H2  UNL     1      -6.658  11.781  70.366  1.00  0.00     0.000 HD 
HETATM   20  N   UNL     1      -6.961  10.833  70.139  1.00  0.00    -0.402 NA 
HETATM   21  H1  UNL     1      -7.033  10.241  70.967  1.00  0.00     0.000 HD 
BRANCH  18  22
HETATM   22  C   UNL     1      -8.689   9.405  69.049  1.00  0.00    -0.136 A  
HETATM   23  C   UNL     1      -7.725   8.481  68.612  1.00  0.00    -0.103 A  
HETATM   24  C   UNL     1      -8.088   7.178  68.266  1.00  0.00    -0.124 A  
HETATM   25  C   UNL     1      -9.418   6.776  68.358  1.00  0.00    -0.126 A  
HETATM   26  C   UNL     1     -10.384   7.671  68.810  1.00  0.00    -0.218 A  
HETATM   27  C   UNL     1     -10.021   8.974  69.161  1.00  0.00    -0.187 A  
ENDBRANCH  18  22
ENDBRANCH  16  18
ENDBRANCH  13  14
TORSDOF 3
ENDMDL
MODEL      156
REMARK 921   NORMALIZED FREE ENERGY PREDICTED BY IDOCK:   -3.75 KCAL/MOL
REMARK 922        TOTAL FREE ENERGY PREDICTED BY IDOCK:   -5.11 KCAL/MOL
REMARK 923 INTER-LIGAND FREE ENERGY PREDICTED BY IDOCK:   -4.57 KCAL/MOL
REMARK 924 INTRA-LIGAND FREE ENERGY PREDICTED BY IDOCK:   -0.54 KCAL/MOL
REMARK 927      BINDING AFFINITY PREDICTED BY RF-SCORE:    0.00 PKD
ROOT
HETATM    1  C   UNL     1     -10.181   7.519  67.078  1.00  0.00    -0.298 C  
HETATM    2  S   UNL     1      -9.037   8.699  67.840  1.00  0.00    -0.139 SA 
HETATM    3  C   UNL     1      -8.243   9.117  66.270  1.00  0.00    -0.111 C  
HETATM    4  C   UNL     1      -7.874   7.919  65.420  1.00  0.00    -0.112 C  
HETATM    5 CL   UNL     1      -6.603   8.370  64.308  1.00  0.00    -0.067 Cl 
HETATM    6  CA  UNL     1      -8.416   6.674  65.517  1.00  0.00    -0.131 C  
HETATM    7  N   UNL     1      -9.414   6.466  66.433  1.00  0.00    -0.157 N  
HETATM    8  C   UNL     1      -7.897   5.540  64.650  1.00  0.00    -0.108 C  
HETATM    9  C   UNL     1     -10.058   5.437  67.024  1.00  0.00    -0.203 C  
HETATM   10  O   UNL     1      -8.527   4.353  64.744  1.00  0.00    -0.114 OA 
HETATM   11  OXT UNL     1      -6.996   5.656  63.833  1.00  0.00    -0.047 OA 
HETATM   12  O   UNL     1      -9.968   4.251  66.815  1.00  0.00    -0.223 OA 
HETATM   13  CA  UNL     1     -10.755   6.420  68.029  1.00  0.00    -0.291 C  
ENDROOT
BRANCH  13  14
HETATM   14  N   UNL     1     -10.208   6.409  69.400  1.00  0.00    -0.182 N  
HETATM   15  H   UNL     1      -9.197   6.323  69.507  1.00  0.00     0.000 HD 
HETATM   16  C   UNL     1     -10.967   6.507  70.544  1.00  0.00    -0.294 C  
HETATM   17  O   UNL     1     -12.184   6.658  70.528  1.00  0.00    -0.364 OA 
BRANCH  16  18
HETATM   18  CA  UNL     1     -10.122   6.407  71.839  1.00  0.00    -0.183 C  
HETATM   19  H2  UNL     1      -8.675   7.755  71.127  1.00  0.00     0.000 HD 
HETATM   20  N   UNL     1      -8.721   6.826  71.548  1.00  0.00    -0.127 NA 
HETATM   21  H1  UNL     1      -8.165   6.760  72.400  1.00  0.00     0.000 HD 
BRANCH  18  22
HETATM   22  C   UNL     1     -10.184   5.015  72.440  1.00  0.00    -0.254 A  
HETATM   23  C   UNL     1      -9.395   3.992  71.888  1.00  0.00    -0.192 A  
HETATM   24  C   UNL     1      -9.437   2.697  72.411  1.00  0.00    -0.168 A  
HETATM   25  C   UNL     1     -10.258   2.408  73.497  1.00  0.00    -0.192 A  
HETATM   26  C   UNL     1     -11.029   3.415  74.071  1.00  0.00    -0.219 A  
HETATM   27  C   UNL     1     -10.987   4.712  73.552  1.00  0.00    -0.395 A  
ENDBRANCH  18  22
ENDBRANCH  16  18
ENDBRANCH  13  14
TORSDOF 3
ENDMDL
MODEL      157
REMARK 921   NORMALIZED FREE ENERGY PREDICTED BY IDOCK:   -3.71 KCAL/MOL
REMARK 922        TOTAL FREE ENERGY PREDICTED BY IDOCK:   -5.06 KCAL/MOL
REMARK 923 INTER-LIGAND FREE ENERGY PREDICTED BY IDOCK:   -4.47 KCAL/MOL
REMARK 924 INTRA-LIGAND FREE ENERGY PREDICTED BY IDOCK:   -0.59 KCAL/MOL
REMARK 927      BINDING AFFINITY PREDICTED BY RF-SCORE:    0.00 PKD
ROOT
HETATM    1  C   UNL     1      -7.871   5.533  67.485  1.00  0.00    -0.101 C  
HETATM    2  S   UNL     1      -9.265   4.680  68.264  1.00  0.00    -0.136 SA 
HETATM    3  C   UNL     1      -9.170   3.263  67.143  1.00  0.00    -0.187 C  
HETATM    4  C   UNL     1      -9.037   3.632  65.681  1.00  0.00    -0.150 C  
HETATM    5 CL   UNL     1      -9.586   2.296  64.697  1.00  0.00    -0.100 Cl 
HETATM    6  CA  UNL     1      -8.593   4.824  65.196  1.00  0.00    -0.140 C  
HETATM    7  N   UNL     1      -8.187   5.782  66.088  1.00  0.00    -0.108 N  
HETATM    8  C   UNL     1      -8.584   5.089  63.700  1.00  0.00    -0.105 C  
HETATM    9  C   UNL     1      -7.908   7.103  66.110  1.00  0.00    -0.105 C  
HETATM   10  O   UNL     1      -8.062   6.260  63.284  1.00  0.00    -0.112 OA 
HETATM   11  OXT UNL     1      -8.953   4.286  62.857  1.00  0.00    -0.111 OA 
HETATM   12  O   UNL     1      -7.857   7.893  65.199  1.00  0.00    -0.099 OA 
HETATM   13  CA  UNL     1      -7.830   7.083  67.677  1.00  0.00    -0.113 C  
ENDROOT
BRANCH  13  14
HETATM   14  N   UNL     1      -8.993   7.674  68.371  1.00  0.00    -0.129 N  
HETATM   15  H   UNL     1      -9.821   7.091  68.488  1.00  0.00     0.000 HD 
HETATM   16  C   UNL     1      -9.035   8.956  68.869  1.00  0.00    -0.137 C  
HETATM   17  O   UNL     1      -8.080   9.724  68.821  1.00  0.00    -0.096 OA 
BRANCH  16  18
HETATM   18  CA  UNL     1     -10.407   9.316  69.493  1.00  0.00    -0.216 C  
HETATM   19  H2  UNL     1     -10.223  11.349  68.993  1.00  0.00     0.000 HD 
HETATM   20  N   UNL     1     -10.440  10.773  69.807  1.00  0.00    -0.436 NA 
HETATM   21  H1  UNL     1     -11.343  11.010  70.218  1.00  0.00     0.000 HD 
BRANCH  18  22
HETATM   22  C   UNL     1     -10.705   8.467  70.715  1.00  0.00    -0.244 A  
HETATM   23  C   UNL     1      -9.920   8.624  71.870  1.00  0.00    -0.392 A  
HETATM   24  C   UNL     1     -10.161   7.850  73.008  1.00  0.00    -0.384 A  
HETATM   25  C   UNL     1     -11.193   6.916  73.012  1.00  0.00    -0.220 A  
HETATM   26  C   UNL     1     -11.995   6.763  71.884  1.00  0.00    -0.374 A  
HETATM   27  C   UNL     1     -11.758   7.538  70.746  1.00  0.00    -0.281 A  
ENDBRANCH  18  22
ENDBRANCH  16  18
ENDBRANCH  13  14
TORSDOF 3
ENDMDL
MODEL      158
REMARK 921   NORMALIZED FREE ENERGY PREDICTED BY IDOCK:   -3.70 KCAL/MOL
REMARK 922        TOTAL FREE ENERGY PREDICTED BY IDOCK:   -5.05 KCAL/MOL
REMARK 923 INTER-LIGAND FREE ENERGY PREDICTED BY IDOCK:   -5.17 KCAL/MOL
REMARK 924 INTRA-LIGAND FREE ENERGY PREDICTED BY IDOCK:    0.11 KCAL/MOL
REMARK 927      BINDING AFFINITY PREDICTED BY RF-SCORE:    0.00 PKD
ROOT
HETATM    1  C   UNL     1     -10.288  11.542  66.660  1.00  0.00    -0.226 C  
HETATM    2  S   UNL     1      -8.668  10.828  67.036  1.00  0.00    -0.137 SA 
HETATM    3  C   UNL     1      -9.362   9.497  68.046  1.00  0.00    -0.132 C  
HETATM    4  C   UNL     1     -10.404   9.952  69.045  1.00  0.00    -0.209 C  
HETATM    5 CL   UNL     1     -10.519   8.778  70.335  1.00  0.00    -0.225 Cl 
HETATM    6  CA  UNL     1     -11.123  11.107  68.979  1.00  0.00    -0.242 C  
HETATM    7  N   UNL     1     -10.934  11.933  67.903  1.00  0.00    -0.209 N  
HETATM    8  C   UNL     1     -12.084  11.478  70.095  1.00  0.00    -0.351 C  
HETATM    9  C   UNL     1     -11.214  13.200  67.527  1.00  0.00    -0.282 C  
HETATM   10  O   UNL     1     -12.818  12.597  69.931  1.00  0.00     0.305 OA 
HETATM   11  OXT UNL     1     -12.280  10.796  71.090  1.00  0.00    -0.348 OA 
HETATM   12  O   UNL     1     -11.871  14.041  68.090  1.00  0.00    -0.338 OA 
HETATM   13  CA  UNL     1     -10.289  13.054  66.267  1.00  0.00    -0.285 C  
ENDROOT
BRANCH  13  14
HETATM   14  N   UNL     1      -8.986  13.742  66.363  1.00  0.00    -0.471 N  
HETATM   15  H   UNL     1      -8.142  13.174  66.279  1.00  0.00     0.000 HD 
HETATM   16  C   UNL     1      -8.830  15.096  66.557  1.00  0.00    -0.277 C  
HETATM   17  O   UNL     1      -9.775  15.874  66.626  1.00  0.00    -0.233 OA 
BRANCH  16  18
HETATM   18  CA  UNL     1      -7.345  15.522  66.674  1.00  0.00     0.359 C  
HETATM   19  H2  UNL     1      -6.666  13.533  66.709  1.00  0.00     0.000 HD 
HETATM   20  N   UNL     1      -6.552  14.394  67.244  1.00  0.00    -0.379 NA 
HETATM   21  H1  UNL     1      -5.575  14.675  67.322  1.00  0.00     0.000 HD 
BRANCH  18  22
HETATM   22  C   UNL     1      -7.191  16.791  67.492  1.00  0.00    -0.172 A  
HETATM   23  C   UNL     1      -7.907  17.941  67.118  1.00  0.00    -0.225 A  
HETATM   24  C   UNL     1      -7.780  19.128  67.843  1.00  0.00    -0.308 A  
HETATM   25  C   UNL     1      -6.944  19.182  68.955  1.00  0.00    -0.371 A  
HETATM   26  C   UNL     1      -6.244  18.046  69.353  1.00  0.00    -0.250 A  
HETATM   27  C   UNL     1      -6.373  16.856  68.632  1.00  0.00    -0.161 A  
ENDBRANCH  18  22
ENDBRANCH  16  18
ENDBRANCH  13  14
TORSDOF 3
ENDMDL
MODEL      159
REMARK 921   NORMALIZED FREE ENERGY PREDICTED BY IDOCK:   -3.70 KCAL/MOL
REMARK 922        TOTAL FREE ENERGY PREDICTED BY IDOCK:   -5.05 KCAL/MOL
REMARK 923 INTER-LIGAND FREE ENERGY PREDICTED BY IDOCK:   -5.33 KCAL/MOL
REMARK 924 INTRA-LIGAND FREE ENERGY PREDICTED BY IDOCK:    0.27 KCAL/MOL
REMARK 927      BINDING AFFINITY PREDICTED BY RF-SCORE:    0.00 PKD
ROOT
HETATM    1  C   UNL     1      -9.323  14.275  66.263  1.00  0.00    -0.208 C  
HETATM    2  S   UNL     1      -9.482  13.409  67.846  1.00  0.00    -0.223 SA 
HETATM    3  C   UNL     1      -9.256  11.775  67.103  1.00  0.00    -0.179 C  
HETATM    4  C   UNL     1     -10.081  11.538  65.855  1.00  0.00    -0.231 C  
HETATM    5 CL   UNL     1     -10.281   9.819  65.613  1.00  0.00    -0.281 Cl 
HETATM    6  CA  UNL     1     -10.615  12.503  65.057  1.00  0.00    -0.300 C  
HETATM    7  N   UNL     1     -10.370  13.815  65.365  1.00  0.00    -0.319 N  
HETATM    8  C   UNL     1     -11.490  12.124  63.874  1.00  0.00    -0.440 C  
HETATM    9  C   UNL     1     -10.832  15.042  65.042  1.00  0.00    -0.422 C  
HETATM   10  O   UNL     1     -11.925  13.124  63.083  1.00  0.00    -0.517 OA 
HETATM   11  OXT UNL     1     -11.764  10.975  63.562  1.00  0.00     0.271 OA 
HETATM   12  O   UNL     1     -11.652  15.363  64.217  1.00  0.00    -0.324 OA 
HETATM   13  CA  UNL     1      -9.984  15.689  66.195  1.00  0.00    -0.312 C  
ENDROOT
BRANCH  13  14
HETATM   14  N   UNL     1     -10.754  16.095  67.388  1.00  0.00    -0.310 N  
HETATM   15  H   UNL     1     -11.756  15.905  67.394  1.00  0.00     0.000 HD 
HETATM   16  C   UNL     1     -10.211  16.712  68.493  1.00  0.00    -0.282 C  
HETATM   17  O   UNL     1      -9.013  16.946  68.607  1.00  0.00    -0.251 OA 
BRANCH  16  18
HETATM   18  CA  UNL     1     -11.272  17.073  69.563  1.00  0.00     0.393 C  
HETATM   19  H2  UNL     1     -10.337  18.895  70.032  1.00  0.00     0.000 HD 
HETATM   20  N   UNL     1     -10.698  18.070  70.511  1.00  0.00     0.918 NA 
HETATM   21  H1  UNL     1     -11.396  18.306  71.216  1.00  0.00     0.000 HD 
BRANCH  18  22
HETATM   22  C   UNL     1     -11.782  15.837  70.282  1.00  0.00    -0.373 A  
HETATM   23  C   UNL     1     -12.054  14.674  69.542  1.00  0.00    -0.335 A  
HETATM   24  C   UNL     1     -12.535  13.523  70.171  1.00  0.00    -0.276 A  
HETATM   25  C   UNL     1     -12.741  13.514  71.548  1.00  0.00    -0.412 A  
HETATM   26  C   UNL     1     -12.456  14.650  72.300  1.00  0.00    -0.387 A  
HETATM   27  C   UNL     1     -11.972  15.802  71.673  1.00  0.00    -0.527 A  
ENDBRANCH  18  22
ENDBRANCH  16  18
ENDBRANCH  13  14
TORSDOF 3
ENDMDL
MODEL      160
REMARK 921   NORMALIZED FREE ENERGY PREDICTED BY IDOCK:   -3.67 KCAL/MOL
REMARK 922        TOTAL FREE ENERGY PREDICTED BY IDOCK:   -5.01 KCAL/MOL
REMARK 923 INTER-LIGAND FREE ENERGY PREDICTED BY IDOCK:   -4.50 KCAL/MOL
REMARK 924 INTRA-LIGAND FREE ENERGY PREDICTED BY IDOCK:   -0.51 KCAL/MOL
REMARK 927      BINDING AFFINITY PREDICTED BY RF-SCORE:    0.00 PKD
ROOT
HETATM    1  C   UNL     1     -10.647   7.980  67.313  1.00  0.00    -0.290 C  
HETATM    2  S   UNL     1     -10.537   9.284  68.564  1.00  0.00    -0.145 SA 
HETATM    3  C   UNL     1     -10.861  10.609  67.375  1.00  0.00    -0.296 C  
HETATM    4  C   UNL     1     -10.056  10.510  66.097  1.00  0.00    -0.246 C  
HETATM    5 CL   UNL     1      -9.959  12.088  65.353  1.00  0.00    -0.276 Cl 
HETATM    6  CA  UNL     1      -9.466   9.383  65.610  1.00  0.00    -0.262 C  
HETATM    7  N   UNL     1      -9.632   8.210  66.298  1.00  0.00    -0.207 N  
HETATM    8  C   UNL     1      -8.619   9.443  64.351  1.00  0.00    -0.194 C  
HETATM    9  C   UNL     1      -9.098   6.971  66.344  1.00  0.00    -0.160 C  
HETATM   10  O   UNL     1      -8.127   8.279  63.882  1.00  0.00    -0.151 OA 
HETATM   11  OXT UNL     1      -8.415  10.461  63.707  1.00  0.00    -0.168 OA 
HETATM   12  O   UNL     1      -8.263   6.466  65.634  1.00  0.00    -0.127 OA 
HETATM   13  CA  UNL     1      -9.903   6.649  67.653  1.00  0.00    -0.126 C  
ENDROOT
BRANCH  13  14
HETATM   14  N   UNL     1      -9.107   6.659  68.897  1.00  0.00    -0.132 N  
HETATM   15  H   UNL     1      -9.275   7.414  69.562  1.00  0.00     0.000 HD 
HETATM   16  C   UNL     1      -8.154   5.719  69.222  1.00  0.00    -0.101 C  
HETATM   17  O   UNL     1      -7.906   4.748  68.516  1.00  0.00    -0.080 OA 
BRANCH  16  18
HETATM   18  CA  UNL     1      -7.441   6.022  70.564  1.00  0.00    -0.090 C  
HETATM   19  H2  UNL     1      -5.947   4.585  70.218  1.00  0.00     0.000 HD 
HETATM   20  N   UNL     1      -6.604   4.852  70.953  1.00  0.00    -0.033 NA 
HETATM   21  H1  UNL     1      -6.135   5.051  71.837  1.00  0.00     0.000 HD 
BRANCH  18  22
HETATM   22  C   UNL     1      -8.433   6.395  71.650  1.00  0.00    -0.128 A  
HETATM   23  C   UNL     1      -9.318   5.420  72.139  1.00  0.00    -0.161 A  
HETATM   24  C   UNL     1     -10.250   5.733  73.131  1.00  0.00    -0.212 A  
HETATM   25  C   UNL     1     -10.305   7.021  73.656  1.00  0.00    -0.412 A  
HETATM   26  C   UNL     1      -9.421   7.995  73.200  1.00  0.00    -0.349 A  
HETATM   27  C   UNL     1      -8.485   7.683  72.210  1.00  0.00    -0.153 A  
ENDBRANCH  18  22
ENDBRANCH  16  18
ENDBRANCH  13  14
TORSDOF 3
ENDMDL
MODEL      161
REMARK 921   NORMALIZED FREE ENERGY PREDICTED BY IDOCK:   -3.62 KCAL/MOL
REMARK 922        TOTAL FREE ENERGY PREDICTED BY IDOCK:   -4.95 KCAL/MOL
REMARK 923 INTER-LIGAND FREE ENERGY PREDICTED BY IDOCK:   -5.95 KCAL/MOL
REMARK 924 INTRA-LIGAND FREE ENERGY PREDICTED BY IDOCK:    1.00 KCAL/MOL
REMARK 927      BINDING AFFINITY PREDICTED BY RF-SCORE:    0.00 PKD
ROOT
HETATM    1  C   UNL     1     -11.224  10.628  66.945  1.00  0.00     0.027 C  
HETATM    2  S   UNL     1     -11.503  11.967  65.758  1.00  0.00    -0.188 SA 
HETATM    3  C   UNL     1     -10.381  11.262  64.526  1.00  0.00    -0.322 C  
HETATM    4  C   UNL     1      -9.048  10.810  65.084  1.00  0.00    -0.203 C  
HETATM    5 CL   UNL     1      -7.869  10.762  63.795  1.00  0.00     0.134 Cl 
HETATM    6  CA  UNL     1      -8.786  10.515  66.387  1.00  0.00    -0.153 C  
HETATM    7  N   UNL     1      -9.813  10.589  67.292  1.00  0.00    -0.172 N  
HETATM    8  C   UNL     1      -7.379  10.146  66.824  1.00  0.00    -0.104 C  
HETATM    9  C   UNL     1      -9.993  10.617  68.630  1.00  0.00    -0.181 C  
HETATM   10  O   UNL     1      -7.205   9.794  68.113  1.00  0.00    -0.078 OA 
HETATM   11  OXT UNL     1      -6.419  10.085  66.071  1.00  0.00    -0.081 OA 
HETATM   12  O   UNL     1      -9.186  10.485  69.518  1.00  0.00    -0.158 OA 
HETATM   13  CA  UNL     1     -11.509  10.976  68.441  1.00  0.00    -0.308 C  
ENDROOT
BRANCH  13  14
HETATM   14  N   UNL     1     -11.859  12.385  68.715  1.00  0.00    -0.322 N  
HETATM   15  H   UNL     1     -12.837  12.602  68.904  1.00  0.00     0.000 HD 
HETATM   16  C   UNL     1     -10.956  13.424  68.733  1.00  0.00    -0.257 C  
HETATM   17  O   UNL     1      -9.752  13.266  68.563  1.00  0.00    -0.215 OA 
BRANCH  16  18
HETATM   18  CA  UNL     1     -11.623  14.798  68.991  1.00  0.00    -0.297 C  
HETATM   19  H2  UNL     1     -10.326  15.796  67.673  1.00  0.00     0.000 HD 
HETATM   20  N   UNL     1     -10.669  15.885  68.630  1.00  0.00    -0.260 NA 
HETATM   21  H1  UNL     1     -11.108  16.790  68.801  1.00  0.00     0.000 HD 
BRANCH  18  22
HETATM   22  C   UNL     1     -12.108  14.923  70.424  1.00  0.00    -0.386 A  
HETATM   23  C   UNL     1     -13.356  14.385  70.778  1.00  0.00    -0.208 A  
HETATM   24  C   UNL     1     -13.836  14.492  72.085  1.00  0.00    -0.574 A  
HETATM   25  C   UNL     1     -13.072  15.130  73.059  1.00  0.00    -0.605 A  
HETATM   26  C   UNL     1     -11.823  15.649  72.732  1.00  0.00    -0.580 A  
HETATM   27  C   UNL     1     -11.339  15.540  71.425  1.00  0.00    -0.458 A  
ENDBRANCH  18  22
ENDBRANCH  16  18
ENDBRANCH  13  14
TORSDOF 3
ENDMDL
MODEL      162
REMARK 921   NORMALIZED FREE ENERGY PREDICTED BY IDOCK:   -3.61 KCAL/MOL
REMARK 922        TOTAL FREE ENERGY PREDICTED BY IDOCK:   -4.94 KCAL/MOL
REMARK 923 INTER-LIGAND FREE ENERGY PREDICTED BY IDOCK:   -4.41 KCAL/MOL
REMARK 924 INTRA-LIGAND FREE ENERGY PREDICTED BY IDOCK:   -0.53 KCAL/MOL
REMARK 927      BINDING AFFINITY PREDICTED BY RF-SCORE:    0.00 PKD
ROOT
HETATM    1  C   UNL     1     -10.850   7.099  67.327  1.00  0.00    -0.312 C  
HETATM    2  S   UNL     1     -10.701   8.057  68.856  1.00  0.00     0.013 SA 
HETATM    3  C   UNL     1     -10.739   9.649  67.997  1.00  0.00    -0.232 C  
HETATM    4  C   UNL     1      -9.830   9.726  66.789  1.00  0.00    -0.208 C  
HETATM    5 CL   UNL     1      -9.464  11.401  66.448  1.00  0.00    -0.214 Cl 
HETATM    6  CA  UNL     1      -9.341   8.666  66.088  1.00  0.00    -0.226 C  
HETATM    7  N   UNL     1      -9.720   7.404  66.465  1.00  0.00    -0.184 N  
HETATM    8  C   UNL     1      -8.373   8.885  64.938  1.00  0.00    -0.172 C  
HETATM    9  C   UNL     1      -9.352   6.122  66.251  1.00  0.00    -0.134 C  
HETATM   10  O   UNL     1      -7.987   7.799  64.241  1.00  0.00    -0.134 OA 
HETATM   11  OXT UNL     1      -7.981   9.982  64.569  1.00  0.00    -0.139 OA 
HETATM   12  O   UNL     1      -8.521   5.676  65.499  1.00  0.00    -0.135 OA 
HETATM   13  CA  UNL     1     -10.315   5.633  67.390  1.00  0.00    -0.230 C  
ENDROOT
BRANCH  13  14
HETATM   14  N   UNL     1      -9.651   5.247  68.651  1.00  0.00    -0.128 N  
HETATM   15  H   UNL     1      -9.419   5.988  69.312  1.00  0.00     0.000 HD 
HETATM   16  C   UNL     1      -9.324   3.954  68.996  1.00  0.00    -0.169 C  
HETATM   17  O   UNL     1      -9.597   2.986  68.296  1.00  0.00    -0.180 OA 
BRANCH  16  18
HETATM   18  CA  UNL     1      -8.581   3.862  70.353  1.00  0.00    -0.072 C  
HETATM   19  H2  UNL     1      -6.839   3.087  69.470  1.00  0.00     0.000 HD 
HETATM   20  N   UNL     1      -7.471   2.874  70.243  1.00  0.00    -0.043 NA 
HETATM   21  H1  UNL     1      -6.983   2.813  71.136  1.00  0.00     0.000 HD 
BRANCH  18  22
HETATM   22  C   UNL     1      -9.531   3.522  71.487  1.00  0.00    -0.222 A  
HETATM   23  C   UNL     1      -9.744   2.176  71.827  1.00  0.00    -0.214 A  
HETATM   24  C   UNL     1     -10.619   1.828  72.858  1.00  0.00    -0.233 A  
HETATM   25  C   UNL     1     -11.288   2.820  73.570  1.00  0.00    -0.272 A  
HETATM   26  C   UNL     1     -11.073   4.160  73.262  1.00  0.00    -0.318 A  
HETATM   27  C   UNL     1     -10.195   4.511  72.233  1.00  0.00    -0.257 A  
ENDBRANCH  18  22
ENDBRANCH  16  18
ENDBRANCH  13  14
TORSDOF 3
ENDMDL
MODEL      163
REMARK 921   NORMALIZED FREE ENERGY PREDICTED BY IDOCK:   -3.59 KCAL/MOL
REMARK 922        TOTAL FREE ENERGY PREDICTED BY IDOCK:   -4.92 KCAL/MOL
REMARK 923 INTER-LIGAND FREE ENERGY PREDICTED BY IDOCK:   -4.44 KCAL/MOL
REMARK 924 INTRA-LIGAND FREE ENERGY PREDICTED BY IDOCK:   -0.48 KCAL/MOL
REMARK 927      BINDING AFFINITY PREDICTED BY RF-SCORE:    0.00 PKD
ROOT
HETATM    1  C   UNL     1      -7.228  12.165  67.876  1.00  0.00    -0.102 C  
HETATM    2  S   UNL     1      -8.981  12.003  67.456  1.00  0.00    -0.183 SA 
HETATM    3  C   UNL     1      -9.046  13.604  66.617  1.00  0.00    -0.174 C  
HETATM    4  C   UNL     1      -8.400  14.737  67.387  1.00  0.00    -0.200 C  
HETATM    5 CL   UNL     1      -9.057  16.259  66.833  1.00  0.00    -0.228 Cl 
HETATM    6  CA  UNL     1      -7.477  14.604  68.379  1.00  0.00    -0.117 C  
HETATM    7  N   UNL     1      -7.046  13.345  68.705  1.00  0.00    -0.102 N  
HETATM    8  C   UNL     1      -6.968  15.826  69.123  1.00  0.00    -0.174 C  
HETATM    9  C   UNL     1      -6.370  12.723  69.695  1.00  0.00    -0.091 C  
HETATM   10  O   UNL     1      -6.001  15.631  70.041  1.00  0.00    -0.151 OA 
HETATM   11  OXT UNL     1      -7.329  16.971  68.895  1.00  0.00    -0.229 OA 
HETATM   12  O   UNL     1      -5.815  13.190  70.659  1.00  0.00    -0.184 OA 
HETATM   13  CA  UNL     1      -6.741  11.320  69.097  1.00  0.00    -0.099 C  
ENDROOT
BRANCH  13  14
HETATM   14  N   UNL     1      -7.793  10.584  69.827  1.00  0.00    -0.348 N  
HETATM   15  H   UNL     1      -8.639  11.093  70.080  1.00  0.00     0.000 HD 
HETATM   16  C   UNL     1      -7.709   9.258  70.189  1.00  0.00    -0.120 C  
HETATM   17  O   UNL     1      -6.756   8.544  69.895  1.00  0.00    -0.041 OA 
BRANCH  16  18
HETATM   18  CA  UNL     1      -8.940   8.775  70.997  1.00  0.00    -0.217 C  
HETATM   19  H2  UNL     1      -8.171   9.509  72.810  1.00  0.00     0.000 HD 
HETATM   20  N   UNL     1      -8.566   8.646  72.435  1.00  0.00    -0.391 NA 
HETATM   21  H1  UNL     1      -9.376   8.328  72.967  1.00  0.00     0.000 HD 
BRANCH  18  22
HETATM   22  C   UNL     1      -9.500   7.480  70.439  1.00  0.00    -0.161 A  
HETATM   23  C   UNL     1      -9.129   6.259  71.028  1.00  0.00    -0.156 A  
HETATM   24  C   UNL     1      -9.619   5.049  70.533  1.00  0.00    -0.252 A  
HETATM   25  C   UNL     1     -10.492   5.040  69.448  1.00  0.00    -0.114 A  
HETATM   26  C   UNL     1     -10.888   6.241  68.866  1.00  0.00    -0.396 A  
HETATM   27  C   UNL     1     -10.402   7.453  69.363  1.00  0.00    -0.211 A  
ENDBRANCH  18  22
ENDBRANCH  16  18
ENDBRANCH  13  14
TORSDOF 3
ENDMDL
MODEL      164
REMARK 921   NORMALIZED FREE ENERGY PREDICTED BY IDOCK:   -3.56 KCAL/MOL
REMARK 922        TOTAL FREE ENERGY PREDICTED BY IDOCK:   -4.89 KCAL/MOL
REMARK 923 INTER-LIGAND FREE ENERGY PREDICTED BY IDOCK:   -4.32 KCAL/MOL
REMARK 924 INTRA-LIGAND FREE ENERGY PREDICTED BY IDOCK:   -0.57 KCAL/MOL
REMARK 927      BINDING AFFINITY PREDICTED BY RF-SCORE:    0.00 PKD
ROOT
HETATM    1  C   UNL     1      -8.037   6.368  66.771  1.00  0.00    -0.109 C  
HETATM    2  S   UNL     1      -9.608   5.884  67.531  1.00  0.00    -0.116 SA 
HETATM    3  C   UNL     1      -9.620   4.257  66.740  1.00  0.00    -0.202 C  
HETATM    4  C   UNL     1      -9.299   4.281  65.261  1.00  0.00    -0.165 C  
HETATM    5 CL   UNL     1      -9.945   2.842  64.508  1.00  0.00    -0.054 Cl 
HETATM    6  CA  UNL     1      -8.641   5.274  64.602  1.00  0.00    -0.125 C  
HETATM    7  N   UNL     1      -8.183   6.345  65.325  1.00  0.00    -0.136 N  
HETATM    8  C   UNL     1      -8.455   5.205  63.096  1.00  0.00    -0.114 C  
HETATM    9  C   UNL     1      -7.716   7.594  65.112  1.00  0.00    -0.110 C  
HETATM   10  O   UNL     1      -7.731   6.184  62.519  1.00  0.00    -0.069 OA 
HETATM   11  OXT UNL     1      -8.859   4.290  62.395  1.00  0.00    -0.092 OA 
HETATM   12  O   UNL     1      -7.465   8.155  64.074  1.00  0.00    -0.100 OA 
HETATM   13  CA  UNL     1      -7.787   7.906  66.649  1.00  0.00    -0.102 C  
ENDROOT
BRANCH  13  14
HETATM   14  N   UNL     1      -8.910   8.772  67.062  1.00  0.00    -0.126 N  
HETATM   15  H   UNL     1      -9.856   8.408  66.951  1.00  0.00     0.000 HD 
HETATM   16  C   UNL     1      -8.767  10.037  67.587  1.00  0.00    -0.121 C  
HETATM   17  O   UNL     1      -7.675  10.551  67.804  1.00  0.00    -0.092 OA 
BRANCH  16  18
HETATM   18  CA  UNL     1     -10.124  10.728  67.872  1.00  0.00    -0.172 C  
HETATM   19  H2  UNL     1     -11.053   8.922  68.414  1.00  0.00     0.000 HD 
HETATM   20  N   UNL     1     -11.218   9.718  67.797  1.00  0.00    -0.476 NA 
HETATM   21  H1  UNL     1     -12.111  10.173  67.984  1.00  0.00     0.000 HD 
BRANCH  18  22
HETATM   22  C   UNL     1     -10.364  11.894  66.932  1.00  0.00    -0.238 A  
HETATM   23  C   UNL     1     -10.425  11.662  65.548  1.00  0.00    -0.321 A  
HETATM   24  C   UNL     1     -10.635  12.715  64.655  1.00  0.00    -0.357 A  
HETATM   25  C   UNL     1     -10.795  14.013  65.131  1.00  0.00    -0.376 A  
HETATM   26  C   UNL     1     -10.759  14.260  66.500  1.00  0.00    -0.297 A  
HETATM   27  C   UNL     1     -10.554  13.207  67.396  1.00  0.00    -0.247 A  
ENDBRANCH  18  22
ENDBRANCH  16  18
ENDBRANCH  13  14
TORSDOF 3
ENDMDL
MODEL      165
REMARK 921   NORMALIZED FREE ENERGY PREDICTED BY IDOCK:   -3.55 KCAL/MOL
REMARK 922        TOTAL FREE ENERGY PREDICTED BY IDOCK:   -4.87 KCAL/MOL
REMARK 923 INTER-LIGAND FREE ENERGY PREDICTED BY IDOCK:   -4.76 KCAL/MOL
REMARK 924 INTRA-LIGAND FREE ENERGY PREDICTED BY IDOCK:   -0.12 KCAL/MOL
REMARK 927      BINDING AFFINITY PREDICTED BY RF-SCORE:    0.00 PKD
ROOT
HETATM    1  C   UNL     1     -10.397   8.663  70.347  1.00  0.00    -0.200 C  
HETATM    2  S   UNL     1      -9.008   9.824  70.390  1.00  0.00     0.043 SA 
HETATM    3  C   UNL     1      -7.793   8.534  70.750  1.00  0.00    -0.097 C  
HETATM    4  C   UNL     1      -8.207   7.577  71.848  1.00  0.00    -0.106 C  
HETATM    5 CL   UNL     1      -6.781   6.828  72.527  1.00  0.00    -0.062 Cl 
HETATM    6  CA  UNL     1      -9.481   7.350  72.271  1.00  0.00    -0.146 C  
HETATM    7  N   UNL     1     -10.505   8.005  71.639  1.00  0.00    -0.211 N  
HETATM    8  C   UNL     1      -9.747   6.417  73.440  1.00  0.00    -0.165 C  
HETATM    9  C   UNL     1     -11.815   8.273  71.828  1.00  0.00    -0.306 C  
HETATM   10  O   UNL     1     -11.035   6.180  73.758  1.00  0.00    -0.144 OA 
HETATM   11  OXT UNL     1      -8.877   5.822  74.057  1.00  0.00    -0.123 OA 
HETATM   12  O   UNL     1     -12.563   7.883  72.691  1.00  0.00    -0.117 OA 
HETATM   13  CA  UNL     1     -11.806   9.278  70.623  1.00  0.00    -0.192 C  
ENDROOT
BRANCH  13  14
HETATM   14  N   UNL     1     -11.819  10.707  70.998  1.00  0.00    -0.327 N  
HETATM   15  H   UNL     1     -10.978  11.253  70.813  1.00  0.00     0.000 HD 
HETATM   16  C   UNL     1     -12.888  11.351  71.578  1.00  0.00    -0.403 C  
HETATM   17  O   UNL     1     -13.960  10.800  71.801  1.00  0.00     0.204 OA 
BRANCH  16  18
HETATM   18  CA  UNL     1     -12.588  12.835  71.912  1.00  0.00     0.047 C  
HETATM   19  H2  UNL     1     -14.111  12.928  73.358  1.00  0.00     0.000 HD 
HETATM   20  N   UNL     1     -13.791  13.451  72.542  1.00  0.00    -0.738 NA 
HETATM   21  H1  UNL     1     -13.594  14.428  72.761  1.00  0.00     0.000 HD 
BRANCH  18  22
HETATM   22  C   UNL     1     -12.136  13.603  70.685  1.00  0.00    -0.398 A  
HETATM   23  C   UNL     1     -11.429  14.806  70.847  1.00  0.00    -0.265 A  
HETATM   24  C   UNL     1     -11.007  15.543  69.738  1.00  0.00    -0.299 A  
HETATM   25  C   UNL     1     -11.277  15.084  68.451  1.00  0.00    -0.303 A  
HETATM   26  C   UNL     1     -11.956  13.883  68.271  1.00  0.00    -0.392 A  
HETATM   27  C   UNL     1     -12.376  13.142  69.379  1.00  0.00    -0.053 A  
ENDBRANCH  18  22
ENDBRANCH  16  18
ENDBRANCH  13  14
TORSDOF 3
ENDMDL
MODEL      166
REMARK 921   NORMALIZED FREE ENERGY PREDICTED BY IDOCK:   -3.54 KCAL/MOL
REMARK 922        TOTAL FREE ENERGY PREDICTED BY IDOCK:   -4.86 KCAL/MOL
REMARK 923 INTER-LIGAND FREE ENERGY PREDICTED BY IDOCK:   -4.44 KCAL/MOL
REMARK 924 INTRA-LIGAND FREE ENERGY PREDICTED BY IDOCK:   -0.42 KCAL/MOL
REMARK 927      BINDING AFFINITY PREDICTED BY RF-SCORE:    0.00 PKD
ROOT
HETATM    1  C   UNL     1      -8.957   8.329  70.014  1.00  0.00    -0.142 C  
HETATM    2  S   UNL     1      -9.100   8.984  68.333  1.00  0.00    -0.132 SA 
HETATM    3  C   UNL     1      -9.813  10.553  68.883  1.00  0.00    -0.201 C  
HETATM    4  C   UNL     1     -10.929  10.409  69.896  1.00  0.00    -0.305 C  
HETATM    5 CL   UNL     1     -11.926  11.843  69.863  1.00  0.00    -0.399 Cl 
HETATM    6  CA  UNL     1     -11.151   9.326  70.690  1.00  0.00    -0.276 C  
HETATM    7  N   UNL     1     -10.280   8.271  70.614  1.00  0.00    -0.191 N  
HETATM    8  C   UNL     1     -12.359   9.283  71.611  1.00  0.00    -0.372 C  
HETATM    9  C   UNL     1     -10.208   6.977  70.996  1.00  0.00    -0.196 C  
HETATM   10  O   UNL     1     -12.478   8.214  72.423  1.00  0.00    -0.322 OA 
HETATM   11  OXT UNL     1     -13.182  10.180  71.707  1.00  0.00    -0.409 OA 
HETATM   12  O   UNL     1     -10.970   6.332  71.674  1.00  0.00    -0.241 OA 
HETATM   13  CA  UNL     1      -8.912   6.772  70.135  1.00  0.00    -0.149 C  
ENDROOT
BRANCH  13  14
HETATM   14  N   UNL     1      -9.108   6.026  68.875  1.00  0.00    -0.122 N  
HETATM   15  H   UNL     1      -9.221   6.565  68.017  1.00  0.00     0.000 HD 
HETATM   16  C   UNL     1      -9.147   4.653  68.780  1.00  0.00    -0.116 C  
HETATM   17  O   UNL     1      -8.978   3.911  69.741  1.00  0.00    -0.084 OA 
BRANCH  16  18
HETATM   18  CA  UNL     1      -9.425   4.157  67.338  1.00  0.00    -0.187 C  
HETATM   19  H2  UNL     1     -10.715   2.634  67.995  1.00  0.00     0.000 HD 
HETATM   20  N   UNL     1      -9.905   2.746  67.385  1.00  0.00    -0.214 NA 
HETATM   21  H1  UNL     1     -10.087   2.419  66.436  1.00  0.00     0.000 HD 
BRANCH  18  22
HETATM   22  C   UNL     1      -8.203   4.309  66.450  1.00  0.00    -0.102 A  
HETATM   23  C   UNL     1      -7.947   5.548  65.839  1.00  0.00    -0.106 A  
HETATM   24  C   UNL     1      -6.837   5.718  65.008  1.00  0.00    -0.051 A  
HETATM   25  C   UNL     1      -5.963   4.658  64.783  1.00  0.00    -0.021 A  
HETATM   26  C   UNL     1      -6.189   3.430  65.398  1.00  0.00    -0.028 A  
HETATM   27  C   UNL     1      -7.297   3.258  66.233  1.00  0.00    -0.072 A  
ENDBRANCH  18  22
ENDBRANCH  16  18
ENDBRANCH  13  14
TORSDOF 3
ENDMDL
MODEL      167
REMARK 921   NORMALIZED FREE ENERGY PREDICTED BY IDOCK:   -3.53 KCAL/MOL
REMARK 922        TOTAL FREE ENERGY PREDICTED BY IDOCK:   -4.85 KCAL/MOL
REMARK 923 INTER-LIGAND FREE ENERGY PREDICTED BY IDOCK:   -5.68 KCAL/MOL
REMARK 924 INTRA-LIGAND FREE ENERGY PREDICTED BY IDOCK:    0.83 KCAL/MOL
REMARK 927      BINDING AFFINITY PREDICTED BY RF-SCORE:    0.00 PKD
ROOT
HETATM    1  C   UNL     1      -8.867  16.157  65.865  1.00  0.00    -0.161 C  
HETATM    2  S   UNL     1     -10.640  16.500  65.733  1.00  0.00    -0.229 SA 
HETATM    3  C   UNL     1     -10.408  18.294  65.731  1.00  0.00    -0.181 C  
HETATM    4  C   UNL     1      -9.465  18.801  66.801  1.00  0.00    -0.319 C  
HETATM    5 CL   UNL     1      -9.804  20.487  67.116  1.00  0.00    -0.606 Cl 
HETATM    6  CA  UNL     1      -8.519  18.065  67.447  1.00  0.00    -0.240 C  
HETATM    7  N   UNL     1      -8.359  16.752  67.090  1.00  0.00    -0.176 N  
HETATM    8  C   UNL     1      -7.691  18.684  68.559  1.00  0.00    -0.316 C  
HETATM    9  C   UNL     1      -7.764  15.633  67.558  1.00  0.00    -0.168 C  
HETATM   10  O   UNL     1      -6.722  17.922  69.104  1.00  0.00    -0.245 OA 
HETATM   11  OXT UNL     1      -7.802  19.840  68.937  1.00  0.00    -0.303 OA 
HETATM   12  O   UNL     1      -7.043  15.488  68.514  1.00  0.00    -0.110 OA 
HETATM   13  CA  UNL     1      -8.487  14.766  66.467  1.00  0.00     0.059 C  
ENDROOT
BRANCH  13  14
HETATM   14  N   UNL     1      -9.616  13.952  66.961  1.00  0.00    -0.245 N  
HETATM   15  H   UNL     1     -10.080  13.331  66.297  1.00  0.00     0.000 HD 
HETATM   16  C   UNL     1     -10.086  13.973  68.255  1.00  0.00    -0.246 C  
HETATM   17  O   UNL     1      -9.574  14.647  69.141  1.00  0.00    -0.181 OA 
BRANCH  16  18
HETATM   18  CA  UNL     1     -11.319  13.056  68.464  1.00  0.00    -0.288 C  
HETATM   19  H2  UNL     1     -12.083  14.257  70.010  1.00  0.00     0.000 HD 
HETATM   20  N   UNL     1     -11.870  13.275  69.832  1.00  0.00    -0.401 NA 
HETATM   21  H1  UNL     1     -12.680  12.672  69.969  1.00  0.00     0.000 HD 
BRANCH  18  22
HETATM   22  C   UNL     1     -10.978  11.598  68.217  1.00  0.00    -0.273 A  
HETATM   23  C   UNL     1     -10.420  10.836  69.256  1.00  0.00    -0.243 A  
HETATM   24  C   UNL     1     -10.086   9.494  69.059  1.00  0.00    -0.201 A  
HETATM   25  C   UNL     1     -10.312   8.893  67.824  1.00  0.00    -0.301 A  
HETATM   26  C   UNL     1     -10.885   9.626  66.789  1.00  0.00    -0.051 A  
HETATM   27  C   UNL     1     -11.223  10.968  66.985  1.00  0.00    -0.255 A  
ENDBRANCH  18  22
ENDBRANCH  16  18
ENDBRANCH  13  14
TORSDOF 3
ENDMDL
MODEL      168
REMARK 921   NORMALIZED FREE ENERGY PREDICTED BY IDOCK:   -3.48 KCAL/MOL
REMARK 922        TOTAL FREE ENERGY PREDICTED BY IDOCK:   -4.80 KCAL/MOL
REMARK 923 INTER-LIGAND FREE ENERGY PREDICTED BY IDOCK:   -4.72 KCAL/MOL
REMARK 924 INTRA-LIGAND FREE ENERGY PREDICTED BY IDOCK:   -0.07 KCAL/MOL
REMARK 927      BINDING AFFINITY PREDICTED BY RF-SCORE:    0.00 PKD
ROOT
HETATM    1  C   UNL     1      -9.584  14.065  68.366  1.00  0.00    -0.222 C  
HETATM    2  S   UNL     1     -10.317  14.401  66.745  1.00  0.00    -0.276 SA 
HETATM    3  C   UNL     1     -10.152  12.687  66.189  1.00  0.00    -0.257 C  
HETATM    4  C   UNL     1      -8.795  12.073  66.460  1.00  0.00    -0.172 C  
HETATM    5 CL   UNL     1      -8.539  10.734  65.365  1.00  0.00    -0.177 Cl 
HETATM    6  CA  UNL     1      -7.892  12.504  67.383  1.00  0.00    -0.175 C  
HETATM    7  N   UNL     1      -8.231  13.566  68.181  1.00  0.00    -0.154 N  
HETATM    8  C   UNL     1      -6.531  11.840  67.496  1.00  0.00    -0.095 C  
HETATM    9  C   UNL     1      -7.637  14.443  69.019  1.00  0.00    -0.106 C  
HETATM   10  O   UNL     1      -5.715  12.268  68.480  1.00  0.00    -0.052 OA 
HETATM   11  OXT UNL     1      -6.161  10.907  66.800  1.00  0.00    -0.072 OA 
HETATM   12  O   UNL     1      -6.495  14.482  69.408  1.00  0.00    -0.113 OA 
HETATM   13  CA  UNL     1      -8.953  15.296  69.094  1.00  0.00    -0.233 C  
ENDROOT
BRANCH  13  14
HETATM   14  N   UNL     1      -8.930  16.554  68.321  1.00  0.00    -0.207 N  
HETATM   15  H   UNL     1      -8.078  16.780  67.807  1.00  0.00     0.000 HD 
HETATM   16  C   UNL     1      -9.978  17.443  68.247  1.00  0.00    -0.320 C  
HETATM   17  O   UNL     1     -11.060  17.247  68.790  1.00  0.00    -0.150 OA 
BRANCH  16  18
HETATM   18  CA  UNL     1      -9.642  18.703  67.410  1.00  0.00    -0.296 C  
HETATM   19  H2  UNL     1     -11.560  18.776  66.553  1.00  0.00     0.000 HD 
HETATM   20  N   UNL     1     -10.583  18.795  66.257  1.00  0.00    -0.412 NA 
HETATM   21  H1  UNL     1     -10.362  19.624  65.706  1.00  0.00     0.000 HD 
BRANCH  18  22
HETATM   22  C   UNL     1      -8.194  18.704  66.959  1.00  0.00    -0.259 A  
HETATM   23  C   UNL     1      -7.248  19.451  67.681  1.00  0.00    -0.263 A  
HETATM   24  C   UNL     1      -5.909  19.482  67.287  1.00  0.00    -0.183 A  
HETATM   25  C   UNL     1      -5.492  18.759  66.172  1.00  0.00    -0.183 A  
HETATM   26  C   UNL     1      -6.411  17.995  65.458  1.00  0.00    -0.203 A  
HETATM   27  C   UNL     1      -7.751  17.960  65.853  1.00  0.00    -0.141 A  
ENDBRANCH  18  22
ENDBRANCH  16  18
ENDBRANCH  13  14
TORSDOF 3
ENDMDL
MODEL      169
REMARK 921   NORMALIZED FREE ENERGY PREDICTED BY IDOCK:   -3.47 KCAL/MOL
REMARK 922        TOTAL FREE ENERGY PREDICTED BY IDOCK:   -4.78 KCAL/MOL
REMARK 923 INTER-LIGAND FREE ENERGY PREDICTED BY IDOCK:   -5.48 KCAL/MOL
REMARK 924 INTRA-LIGAND FREE ENERGY PREDICTED BY IDOCK:    0.70 KCAL/MOL
REMARK 927      BINDING AFFINITY PREDICTED BY RF-SCORE:    0.00 PKD
ROOT
HETATM    1  C   UNL     1      -8.672  11.745  67.461  1.00  0.00    -0.159 C  
HETATM    2  S   UNL     1      -7.770  10.297  68.067  1.00  0.00    -0.089 SA 
HETATM    3  C   UNL     1      -6.897  10.044  66.503  1.00  0.00    -0.087 C  
HETATM    4  C   UNL     1      -7.783  10.110  65.278  1.00  0.00    -0.144 C  
HETATM    5 CL   UNL     1      -7.014   9.253  63.963  1.00  0.00    -0.090 Cl 
HETATM    6  CA  UNL     1      -9.002  10.712  65.205  1.00  0.00    -0.198 C  
HETATM    7  N   UNL     1      -9.480  11.355  66.317  1.00  0.00    -0.202 N  
HETATM    8  C   UNL     1      -9.822  10.636  63.928  1.00  0.00    -0.338 C  
HETATM    9  C   UNL     1     -10.642  11.862  66.781  1.00  0.00    -0.229 C  
HETATM   10  O   UNL     1     -10.985  11.315  63.901  1.00  0.00    -0.386 OA 
HETATM   11  OXT UNL     1      -9.461  10.059  62.914  1.00  0.00    -0.294 OA 
HETATM   12  O   UNL     1     -11.709  11.970  66.229  1.00  0.00    -0.504 OA 
HETATM   13  CA  UNL     1     -10.008  12.072  68.202  1.00  0.00    -0.203 C  
ENDROOT
BRANCH  13  14
HETATM   14  N   UNL     1     -10.427  11.096  69.227  1.00  0.00    -0.369 N  
HETATM   15  H   UNL     1     -10.348  11.372  70.206  1.00  0.00     0.000 HD 
HETATM   16  C   UNL     1     -10.919   9.839  68.953  1.00  0.00    -0.150 C  
HETATM   17  O   UNL     1     -11.096   9.425  67.813  1.00  0.00    -0.148 OA 
BRANCH  16  18
HETATM   18  CA  UNL     1     -11.220   9.018  70.232  1.00  0.00    -0.205 C  
HETATM   19  H2  UNL     1     -11.318  10.734  71.441  1.00  0.00     0.000 HD 
HETATM   20  N   UNL     1     -10.858   9.823  71.433  1.00  0.00    -0.236 NA 
HETATM   21  H1  UNL     1     -11.055   9.282  72.275  1.00  0.00     0.000 HD 
BRANCH  18  22
HETATM   22  C   UNL     1     -10.510   7.677  70.214  1.00  0.00    -0.224 A  
HETATM   23  C   UNL     1     -11.231   6.520  69.873  1.00  0.00    -0.456 A  
HETATM   24  C   UNL     1     -10.610   5.269  69.858  1.00  0.00    -0.292 A  
HETATM   25  C   UNL     1      -9.259   5.156  70.173  1.00  0.00    -0.188 A  
HETATM   26  C   UNL     1      -8.523   6.294  70.491  1.00  0.00    -0.138 A  
HETATM   27  C   UNL     1      -9.142   7.548  70.504  1.00  0.00    -0.156 A  
ENDBRANCH  18  22
ENDBRANCH  16  18
ENDBRANCH  13  14
TORSDOF 3
ENDMDL
MODEL      170
REMARK 921   NORMALIZED FREE ENERGY PREDICTED BY IDOCK:   -3.46 KCAL/MOL
REMARK 922        TOTAL FREE ENERGY PREDICTED BY IDOCK:   -4.76 KCAL/MOL
REMARK 923 INTER-LIGAND FREE ENERGY PREDICTED BY IDOCK:   -4.20 KCAL/MOL
REMARK 924 INTRA-LIGAND FREE ENERGY PREDICTED BY IDOCK:   -0.57 KCAL/MOL
REMARK 927      BINDING AFFINITY PREDICTED BY RF-SCORE:    0.00 PKD
ROOT
HETATM    1  C   UNL     1      -6.861   5.557  69.491  1.00  0.00    -0.061 C  
HETATM    2  S   UNL     1      -7.560   4.336  70.631  1.00  0.00    -0.052 SA 
HETATM    3  C   UNL     1      -7.851   3.117  69.326  1.00  0.00    -0.049 C  
HETATM    4  C   UNL     1      -8.511   3.679  68.085  1.00  0.00    -0.093 C  
HETATM    5 CL   UNL     1      -9.298   2.384  67.214  1.00  0.00    -0.144 Cl 
HETATM    6  CA  UNL     1      -8.526   4.988  67.711  1.00  0.00    -0.104 C  
HETATM    7  N   UNL     1      -7.859   5.897  68.490  1.00  0.00    -0.101 N  
HETATM    8  C   UNL     1      -9.296   5.426  66.477  1.00  0.00    -0.145 C  
HETATM    9  C   UNL     1      -7.781   7.235  68.656  1.00  0.00    -0.120 C  
HETATM   10  O   UNL     1      -9.208   6.723  66.123  1.00  0.00    -0.154 OA 
HETATM   11  OXT UNL     1      -9.927   4.669  65.756  1.00  0.00    -0.195 OA 
HETATM   12  O   UNL     1      -8.292   8.121  68.016  1.00  0.00    -0.127 OA 
HETATM   13  CA  UNL     1      -6.932   7.045  69.963  1.00  0.00    -0.062 C  
ENDROOT
BRANCH  13  14
HETATM   14  N   UNL     1      -7.662   7.283  71.225  1.00  0.00    -0.087 N  
HETATM   15  H   UNL     1      -7.882   6.474  71.806  1.00  0.00     0.000 HD 
HETATM   16  C   UNL     1      -8.066   8.521  71.671  1.00  0.00    -0.150 C  
HETATM   17  O   UNL     1      -7.815   9.562  71.073  1.00  0.00    -0.316 OA 
BRANCH  16  18
HETATM   18  CA  UNL     1      -8.863   8.453  72.999  1.00  0.00    -0.163 C  
HETATM   19  H2  UNL     1      -7.248   9.183  74.129  1.00  0.00     0.000 HD 
HETATM   20  N   UNL     1      -7.910   8.406  74.144  1.00  0.00    -0.353 NA 
HETATM   21  H1  UNL     1      -8.434   8.360  75.018  1.00  0.00     0.000 HD 
BRANCH  18  22
HETATM   22  C   UNL     1      -9.824   7.279  73.013  1.00  0.00    -0.254 A  
HETATM   23  C   UNL     1     -10.853   7.220  72.058  1.00  0.00    -0.264 A  
HETATM   24  C   UNL     1     -11.761   6.159  72.051  1.00  0.00    -0.354 A  
HETATM   25  C   UNL     1     -11.650   5.138  72.990  1.00  0.00    -0.301 A  
HETATM   26  C   UNL     1     -10.623   5.168  73.930  1.00  0.00    -0.340 A  
HETATM   27  C   UNL     1      -9.711   6.227  73.937  1.00  0.00    -0.209 A  
ENDBRANCH  18  22
ENDBRANCH  16  18
ENDBRANCH  13  14
TORSDOF 3
ENDMDL
MODEL      171
REMARK 921   NORMALIZED FREE ENERGY PREDICTED BY IDOCK:   -3.39 KCAL/MOL
REMARK 922        TOTAL FREE ENERGY PREDICTED BY IDOCK:   -4.69 KCAL/MOL
REMARK 923 INTER-LIGAND FREE ENERGY PREDICTED BY IDOCK:   -5.27 KCAL/MOL
REMARK 924 INTRA-LIGAND FREE ENERGY PREDICTED BY IDOCK:    0.58 KCAL/MOL
REMARK 927      BINDING AFFINITY PREDICTED BY RF-SCORE:    0.00 PKD
ROOT
HETATM    1  C   UNL     1      -8.868  11.672  67.203  1.00  0.00    -0.172 C  
HETATM    2  S   UNL     1      -8.560   9.893  67.060  1.00  0.00    -0.128 SA 
HETATM    3  C   UNL     1      -8.292   9.968  65.273  1.00  0.00    -0.154 C  
HETATM    4  C   UNL     1      -9.333  10.769  64.520  1.00  0.00    -0.236 C  
HETATM    5 CL   UNL     1      -9.355  10.260  62.848  1.00  0.00    -0.314 Cl 
HETATM    6  CA  UNL     1     -10.151  11.717  65.054  1.00  0.00    -0.263 C  
HETATM    7  N   UNL     1     -10.017  12.021  66.384  1.00  0.00    -0.214 N  
HETATM    8  C   UNL     1     -11.208  12.392  64.197  1.00  0.00    -0.376 C  
HETATM    9  C   UNL     1     -10.695  12.669  67.356  1.00  0.00    -0.229 C  
HETATM   10  O   UNL     1     -11.933  13.373  64.769  1.00  0.00    -0.359 OA 
HETATM   11  OXT UNL     1     -11.391  12.150  63.014  1.00  0.00    -0.238 OA 
HETATM   12  O   UNL     1     -11.711  13.316  67.284  1.00  0.00    -0.336 OA 
HETATM   13  CA  UNL     1      -9.707  12.118  68.443  1.00  0.00    -0.193 C  
ENDROOT
BRANCH  13  14
HETATM   14  N   UNL     1     -10.241  11.026  69.282  1.00  0.00    -0.384 N  
HETATM   15  H   UNL     1      -9.681  10.722  70.078  1.00  0.00     0.000 HD 
HETATM   16  C   UNL     1     -11.443  10.391  69.062  1.00  0.00    -0.193 C  
HETATM   17  O   UNL     1     -12.212  10.709  68.162  1.00  0.00    -0.265 OA 
BRANCH  16  18
HETATM   18  CA  UNL     1     -11.712   9.246  70.071  1.00  0.00     0.112 C  
HETATM   19  H2  UNL     1     -12.193  10.579  71.622  1.00  0.00     0.000 HD 
HETATM   20  N   UNL     1     -11.590   9.772  71.460  1.00  0.00    -0.379 NA 
HETATM   21  H1  UNL     1     -11.766   9.018  72.124  1.00  0.00     0.000 HD 
BRANCH  18  22
HETATM   22  C   UNL     1     -10.792   8.063  69.831  1.00  0.00    -0.217 A  
HETATM   23  C   UNL     1     -11.026   7.221  68.731  1.00  0.00    -0.045 A  
HETATM   24  C   UNL     1     -10.204   6.118  68.487  1.00  0.00    -0.221 A  
HETATM   25  C   UNL     1      -9.133   5.846  69.333  1.00  0.00    -0.134 A  
HETATM   26  C   UNL     1      -8.872   6.682  70.415  1.00  0.00    -0.152 A  
HETATM   27  C   UNL     1      -9.691   7.788  70.658  1.00  0.00    -0.177 A  
ENDBRANCH  18  22
ENDBRANCH  16  18
ENDBRANCH  13  14
TORSDOF 3
ENDMDL
MODEL      172
REMARK 921   NORMALIZED FREE ENERGY PREDICTED BY IDOCK:   -3.35 KCAL/MOL
REMARK 922        TOTAL FREE ENERGY PREDICTED BY IDOCK:   -4.64 KCAL/MOL
REMARK 923 INTER-LIGAND FREE ENERGY PREDICTED BY IDOCK:   -4.33 KCAL/MOL
REMARK 924 INTRA-LIGAND FREE ENERGY PREDICTED BY IDOCK:   -0.32 KCAL/MOL
REMARK 927      BINDING AFFINITY PREDICTED BY RF-SCORE:    0.00 PKD
ROOT
HETATM    1  C   UNL     1     -10.320   9.075  68.197  1.00  0.00    -0.214 C  
HETATM    2  S   UNL     1     -11.280   9.484  69.677  1.00  0.00    -0.037 SA 
HETATM    3  C   UNL     1     -11.743  11.121  69.062  1.00  0.00    -0.339 C  
HETATM    4  C   UNL     1     -10.594  11.916  68.480  1.00  0.00    -0.222 C  
HETATM    5 CL   UNL     1     -10.991  13.618  68.522  1.00  0.00    -0.275 Cl 
HETATM    6  CA  UNL     1      -9.418  11.404  68.024  1.00  0.00    -0.181 C  
HETATM    7  N   UNL     1      -9.247  10.044  68.046  1.00  0.00    -0.134 N  
HETATM    8  C   UNL     1      -8.316  12.327  67.536  1.00  0.00    -0.170 C  
HETATM    9  C   UNL     1      -8.251   9.140  67.928  1.00  0.00    -0.112 C  
HETATM   10  O   UNL     1      -7.208  11.751  67.028  1.00  0.00    -0.140 OA 
HETATM   11  OXT UNL     1      -8.399  13.545  67.512  1.00  0.00    -0.161 OA 
HETATM   12  O   UNL     1      -7.088   9.308  67.654  1.00  0.00    -0.080 OA 
HETATM   13  CA  UNL     1      -9.214   7.987  68.385  1.00  0.00    -0.135 C  
ENDROOT
BRANCH  13  14
HETATM   14  N   UNL     1      -9.011   7.512  69.768  1.00  0.00    -0.141 N  
HETATM   15  H   UNL     1      -8.383   8.047  70.367  1.00  0.00     0.000 HD 
HETATM   16  C   UNL     1      -9.613   6.395  70.305  1.00  0.00    -0.164 C  
HETATM   17  O   UNL     1     -10.418   5.707  69.687  1.00  0.00    -0.249 OA 
BRANCH  16  18
HETATM   18  CA  UNL     1      -9.165   6.110  71.761  1.00  0.00    -0.144 C  
HETATM   19  H2  UNL     1      -7.377   7.193  71.536  1.00  0.00     0.000 HD 
HETATM   20  N   UNL     1      -7.687   6.277  71.864  1.00  0.00    -0.096 NA 
HETATM   21  H1  UNL     1      -7.391   6.089  72.821  1.00  0.00     0.000 HD 
BRANCH  18  22
HETATM   22  C   UNL     1      -9.613   4.736  72.224  1.00  0.00    -0.195 A  
HETATM   23  C   UNL     1      -8.975   3.595  71.711  1.00  0.00    -0.153 A  
HETATM   24  C   UNL     1      -9.370   2.316  72.109  1.00  0.00    -0.156 A  
HETATM   25  C   UNL     1     -10.402   2.158  73.030  1.00  0.00    -0.223 A  
HETATM   26  C   UNL     1     -11.031   3.278  73.566  1.00  0.00    -0.324 A  
HETATM   27  C   UNL     1     -10.634   4.560  73.172  1.00  0.00    -0.284 A  
ENDBRANCH  18  22
ENDBRANCH  16  18
ENDBRANCH  13  14
TORSDOF 3
ENDMDL
MODEL      173
REMARK 921   NORMALIZED FREE ENERGY PREDICTED BY IDOCK:   -3.09 KCAL/MOL
REMARK 922        TOTAL FREE ENERGY PREDICTED BY IDOCK:   -4.33 KCAL/MOL
REMARK 923 INTER-LIGAND FREE ENERGY PREDICTED BY IDOCK:   -3.82 KCAL/MOL
REMARK 924 INTRA-LIGAND FREE ENERGY PREDICTED BY IDOCK:   -0.51 KCAL/MOL
REMARK 927      BINDING AFFINITY PREDICTED BY RF-SCORE:    0.00 PKD
ROOT
HETATM    1  C   UNL     1      -6.989   8.499  68.906  1.00  0.00    -0.062 C  
HETATM    2  S   UNL     1      -8.386   9.220  69.805  1.00  0.00    -0.159 SA 
HETATM    3  C   UNL     1      -8.255   8.048  71.177  1.00  0.00    -0.106 C  
HETATM    4  C   UNL     1      -8.102   6.604  70.750  1.00  0.00    -0.119 C  
HETATM    5 CL   UNL     1      -8.618   5.559  72.053  1.00  0.00    -0.130 Cl 
HETATM    6  CA  UNL     1      -7.664   6.172  69.535  1.00  0.00    -0.099 C  
HETATM    7  N   UNL     1      -7.285   7.107  68.608  1.00  0.00    -0.091 N  
HETATM    8  C   UNL     1      -7.633   4.688  69.212  1.00  0.00    -0.056 C  
HETATM    9  C   UNL     1      -7.022   7.184  67.285  1.00  0.00    -0.078 C  
HETATM   10  O   UNL     1      -7.119   4.326  68.020  1.00  0.00    -0.058 OA 
HETATM   11  OXT UNL     1      -7.978   3.809  69.987  1.00  0.00    -0.050 OA 
HETATM   12  O   UNL     1      -6.966   6.305  66.460  1.00  0.00    -0.063 OA 
HETATM   13  CA  UNL     1      -6.971   8.751  67.364  1.00  0.00    -0.075 C  
ENDROOT
BRANCH  13  14
HETATM   14  N   UNL     1      -8.152   9.446  66.815  1.00  0.00    -0.108 N  
HETATM   15  H   UNL     1      -9.048   9.299  67.279  1.00  0.00     0.000 HD 
HETATM   16  C   UNL     1      -8.127  10.280  65.719  1.00  0.00    -0.149 C  
HETATM   17  O   UNL     1      -7.097  10.560  65.116  1.00  0.00    -0.112 OA 
BRANCH  16  18
HETATM   18  CA  UNL     1      -9.529  10.819  65.340  1.00  0.00    -0.214 C  
HETATM   19  H2  UNL     1      -9.219  10.489  63.288  1.00  0.00     0.000 HD 
HETATM   20  N   UNL     1      -9.526  11.238  63.909  1.00  0.00    -0.345 NA 
HETATM   21  H1  UNL     1     -10.449  11.594  63.659  1.00  0.00     0.000 HD 
BRANCH  18  22
HETATM   22  C   UNL     1      -9.960  11.947  66.259  1.00  0.00    -0.245 A  
HETATM   23  C   UNL     1     -11.297  12.014  66.687  1.00  0.00    -0.399 A  
HETATM   24  C   UNL     1     -11.728  13.045  67.525  1.00  0.00    -0.421 A  
HETATM   25  C   UNL     1     -10.830  14.019  67.953  1.00  0.00    -0.255 A  
HETATM   26  C   UNL     1      -9.498  13.956  67.557  1.00  0.00    -0.216 A  
HETATM   27  C   UNL     1      -9.062  12.923  66.722  1.00  0.00    -0.211 A  
ENDBRANCH  18  22
ENDBRANCH  16  18
ENDBRANCH  13  14
TORSDOF 3
ENDMDL
MODEL      174
REMARK 921   NORMALIZED FREE ENERGY PREDICTED BY IDOCK:   -3.08 KCAL/MOL
REMARK 922        TOTAL FREE ENERGY PREDICTED BY IDOCK:   -4.33 KCAL/MOL
REMARK 923 INTER-LIGAND FREE ENERGY PREDICTED BY IDOCK:   -3.82 KCAL/MOL
REMARK 924 INTRA-LIGAND FREE ENERGY PREDICTED BY IDOCK:   -0.50 KCAL/MOL
REMARK 927      BINDING AFFINITY PREDICTED BY RF-SCORE:    0.00 PKD
ROOT
HETATM    1  C   UNL     1      -7.371   9.045  67.947  1.00  0.00    -0.084 C  
HETATM    2  S   UNL     1      -7.333   9.865  69.561  1.00  0.00    -0.118 SA 
HETATM    3  C   UNL     1      -6.908   8.347  70.449  1.00  0.00    -0.037 C  
HETATM    4  C   UNL     1      -7.745   7.145  70.064  1.00  0.00    -0.103 C  
HETATM    5 CL   UNL     1      -7.707   5.976  71.362  1.00  0.00    -0.102 Cl 
HETATM    6  CA  UNL     1      -8.448   6.999  68.907  1.00  0.00    -0.125 C  
HETATM    7  N   UNL     1      -8.380   7.998  67.971  1.00  0.00    -0.125 N  
HETATM    8  C   UNL     1      -9.311   5.770  68.682  1.00  0.00    -0.122 C  
HETATM    9  C   UNL     1      -9.028   8.397  66.856  1.00  0.00    -0.145 C  
HETATM   10  O   UNL     1      -9.920   5.654  67.486  1.00  0.00    -0.133 OA 
HETATM   11  OXT UNL     1      -9.431   4.857  69.485  1.00  0.00    -0.121 OA 
HETATM   12  O   UNL     1      -9.921   7.856  66.250  1.00  0.00    -0.166 OA 
HETATM   13  CA  UNL     1      -8.231   9.749  66.849  1.00  0.00    -0.117 C  
ENDROOT
BRANCH  13  14
HETATM   14  N   UNL     1      -8.997  10.931  67.294  1.00  0.00    -0.137 N  
HETATM   15  H   UNL     1      -9.226  11.002  68.286  1.00  0.00     0.000 HD 
HETATM   16  C   UNL     1      -9.423  11.943  66.464  1.00  0.00    -0.217 C  
HETATM   17  O   UNL     1      -9.164  11.978  65.266  1.00  0.00    -0.026 OA 
BRANCH  16  18
HETATM   18  CA  UNL     1     -10.255  13.021  67.204  1.00  0.00    -0.243 C  
HETATM   19  H2  UNL     1     -12.068  12.328  66.398  1.00  0.00     0.000 HD 
HETATM   20  N   UNL     1     -11.558  13.206  66.503  1.00  0.00    -0.339 NA 
HETATM   21  H1  UNL     1     -12.105  13.916  66.990  1.00  0.00     0.000 HD 
BRANCH  18  22
HETATM   22  C   UNL     1      -9.490  14.325  67.332  1.00  0.00    -0.211 A  
HETATM   23  C   UNL     1      -8.656  14.528  68.443  1.00  0.00    -0.172 A  
HETATM   24  C   UNL     1      -7.946  15.721  68.597  1.00  0.00    -0.155 A  
HETATM   25  C   UNL     1      -8.054  16.725  67.639  1.00  0.00    -0.188 A  
HETATM   26  C   UNL     1      -8.859  16.533  66.519  1.00  0.00    -0.317 A  
HETATM   27  C   UNL     1      -9.566  15.338  66.362  1.00  0.00    -0.317 A  
ENDBRANCH  18  22
ENDBRANCH  16  18
ENDBRANCH  13  14
TORSDOF 3
ENDMDL
MODEL      175
REMARK 921   NORMALIZED FREE ENERGY PREDICTED BY IDOCK:   -3.06 KCAL/MOL
REMARK 922        TOTAL FREE ENERGY PREDICTED BY IDOCK:   -4.30 KCAL/MOL
REMARK 923 INTER-LIGAND FREE ENERGY PREDICTED BY IDOCK:   -3.99 KCAL/MOL
REMARK 924 INTRA-LIGAND FREE ENERGY PREDICTED BY IDOCK:   -0.31 KCAL/MOL
REMARK 927      BINDING AFFINITY PREDICTED BY RF-SCORE:    0.00 PKD
ROOT
HETATM    1  C   UNL     1      -9.891   9.069  68.424  1.00  0.00    -0.166 C  
HETATM    2  S   UNL     1     -11.232   9.841  69.365  1.00  0.00    -0.049 SA 
HETATM    3  C   UNL     1     -11.172  11.376  68.410  1.00  0.00    -0.263 C  
HETATM    4  C   UNL     1      -9.777  11.927  68.204  1.00  0.00    -0.194 C  
HETATM    5 CL   UNL     1      -9.878  13.639  67.867  1.00  0.00    -0.230 Cl 
HETATM    6  CA  UNL     1      -8.617  11.220  68.296  1.00  0.00    -0.153 C  
HETATM    7  N   UNL     1      -8.690   9.878  68.560  1.00  0.00    -0.119 N  
HETATM    8  C   UNL     1      -7.277  11.918  68.141  1.00  0.00    -0.085 C  
HETATM    9  C   UNL     1      -7.881   8.869  68.948  1.00  0.00    -0.096 C  
HETATM   10  O   UNL     1      -6.172  11.147  68.169  1.00  0.00    -0.049 OA 
HETATM   11  OXT UNL     1      -7.145  13.114  67.928  1.00  0.00    -0.097 OA 
HETATM   12  O   UNL     1      -6.685   8.861  69.111  1.00  0.00    -0.049 OA 
HETATM   13  CA  UNL     1      -9.118   7.926  69.156  1.00  0.00    -0.145 C  
ENDROOT
BRANCH  13  14
HETATM   14  N   UNL     1      -9.500   7.694  70.564  1.00  0.00    -0.164 N  
HETATM   15  H   UNL     1      -9.006   8.221  71.283  1.00  0.00     0.000 HD 
HETATM   16  C   UNL     1     -10.479   6.815  70.971  1.00  0.00    -0.212 C  
HETATM   17  O   UNL     1     -11.163   6.166  70.188  1.00  0.00    -0.351 OA 
BRANCH  16  18
HETATM   18  CA  UNL     1     -10.617   6.741  72.513  1.00  0.00    -0.221 C  
HETATM   19  H2  UNL     1     -12.230   8.088  72.541  1.00  0.00     0.000 HD 
HETATM   20  N   UNL     1     -11.331   7.954  73.004  1.00  0.00    -0.519 NA 
HETATM   21  H1  UNL     1     -11.421   7.906  74.018  1.00  0.00     0.000 HD 
BRANCH  18  22
HETATM   22  C   UNL     1      -9.269   6.565  73.187  1.00  0.00    -0.138 A  
HETATM   23  C   UNL     1      -8.568   7.699  73.629  1.00  0.00    -0.263 A  
HETATM   24  C   UNL     1      -7.320   7.574  74.244  1.00  0.00    -0.143 A  
HETATM   25  C   UNL     1      -6.758   6.314  74.433  1.00  0.00    -0.082 A  
HETATM   26  C   UNL     1      -7.449   5.177  74.021  1.00  0.00    -0.087 A  
HETATM   27  C   UNL     1      -8.699   5.301  73.410  1.00  0.00    -0.115 A  
ENDBRANCH  18  22
ENDBRANCH  16  18
ENDBRANCH  13  14
TORSDOF 3
ENDMDL
MODEL      176
REMARK 921   NORMALIZED FREE ENERGY PREDICTED BY IDOCK:   -2.97 KCAL/MOL
REMARK 922        TOTAL FREE ENERGY PREDICTED BY IDOCK:   -4.20 KCAL/MOL
REMARK 923 INTER-LIGAND FREE ENERGY PREDICTED BY IDOCK:   -5.08 KCAL/MOL
REMARK 924 INTRA-LIGAND FREE ENERGY PREDICTED BY IDOCK:    0.89 KCAL/MOL
REMARK 927      BINDING AFFINITY PREDICTED BY RF-SCORE:    0.00 PKD
ROOT
HETATM    1  C   UNL     1      -7.169  16.505  69.135  1.00  0.00    -0.226 C  
HETATM    2  S   UNL     1      -5.745  16.049  68.114  1.00  0.00    -0.121 SA 
HETATM    3  C   UNL     1      -5.641  17.677  67.331  1.00  0.00    -0.137 C  
HETATM    4  C   UNL     1      -6.967  18.219  66.844  1.00  0.00    -0.190 C  
HETATM    5 CL   UNL     1      -6.680  19.411  65.597  1.00  0.00    -0.284 Cl 
HETATM    6  CA  UNL     1      -8.198  17.827  67.275  1.00  0.00    -0.215 C  
HETATM    7  N   UNL     1      -8.272  16.885  68.267  1.00  0.00    -0.214 N  
HETATM    8  C   UNL     1      -9.453  18.402  66.641  1.00  0.00    -0.313 C  
HETATM    9  C   UNL     1      -9.186  16.064  68.827  1.00  0.00    -0.224 C  
HETATM   10  O   UNL     1     -10.636  18.027  67.166  1.00  0.00    -0.372 OA 
HETATM   11  OXT UNL     1      -9.453  19.227  65.740  1.00  0.00    -0.391 OA 
HETATM   12  O   UNL     1     -10.374  15.986  68.629  1.00  0.00    -0.225 OA 
HETATM   13  CA  UNL     1      -8.059  15.319  69.627  1.00  0.00    -0.125 C  
ENDROOT
BRANCH  13  14
HETATM   14  N   UNL     1      -7.696  13.986  69.105  1.00  0.00    -0.324 N  
HETATM   15  H   UNL     1      -7.306  13.309  69.761  1.00  0.00     0.000 HD 
HETATM   16  C   UNL     1      -7.847  13.594  67.794  1.00  0.00    -0.171 C  
HETATM   17  O   UNL     1      -8.346  14.312  66.934  1.00  0.00    -0.172 OA 
BRANCH  16  18
HETATM   18  CA  UNL     1      -7.325  12.159  67.529  1.00  0.00    -0.135 C  
HETATM   19  H2  UNL     1      -5.329  12.799  67.374  1.00  0.00     0.000 HD 
HETATM   20  N   UNL     1      -5.999  12.234  66.852  1.00  0.00    -0.455 NA 
HETATM   21  H1  UNL     1      -5.655  11.289  66.677  1.00  0.00     0.000 HD 
BRANCH  18  22
HETATM   22  C   UNL     1      -8.323  11.340  66.732  1.00  0.00    -0.156 A  
HETATM   23  C   UNL     1      -9.555  10.999  67.314  1.00  0.00    -0.183 A  
HETATM   24  C   UNL     1     -10.491  10.237  66.611  1.00  0.00    -0.260 A  
HETATM   25  C   UNL     1     -10.214   9.813  65.314  1.00  0.00     0.033 A  
HETATM   26  C   UNL     1      -9.008  10.160  64.713  1.00  0.00    -0.236 A  
HETATM   27  C   UNL     1      -8.071  10.926  65.413  1.00  0.00     0.015 A  
ENDBRANCH  18  22
ENDBRANCH  16  18
ENDBRANCH  13  14
TORSDOF 3
ENDMDL
MODEL      177
REMARK 921   NORMALIZED FREE ENERGY PREDICTED BY IDOCK:   -2.96 KCAL/MOL
REMARK 922        TOTAL FREE ENERGY PREDICTED BY IDOCK:   -4.19 KCAL/MOL
REMARK 923 INTER-LIGAND FREE ENERGY PREDICTED BY IDOCK:   -3.74 KCAL/MOL
REMARK 924 INTRA-LIGAND FREE ENERGY PREDICTED BY IDOCK:   -0.45 KCAL/MOL
REMARK 927      BINDING AFFINITY PREDICTED BY RF-SCORE:    0.00 PKD
ROOT
HETATM    1  C   UNL     1     -10.601   8.634  69.589  1.00  0.00    -0.218 C  
HETATM    2  S   UNL     1      -9.382   9.561  70.554  1.00  0.00    -0.176 SA 
HETATM    3  C   UNL     1      -8.649  10.339  69.095  1.00  0.00    -0.164 C  
HETATM    4  C   UNL     1      -8.365   9.383  67.956  1.00  0.00    -0.119 C  
HETATM    5 CL   UNL     1      -7.133  10.069  66.922  1.00  0.00    -0.089 Cl 
HETATM    6  CA  UNL     1      -8.944   8.165  67.771  1.00  0.00    -0.132 C  
HETATM    7  N   UNL     1      -9.904   7.758  68.661  1.00  0.00    -0.164 N  
HETATM    8  C   UNL     1      -8.507   7.272  66.623  1.00  0.00    -0.124 C  
HETATM    9  C   UNL     1     -10.554   6.628  69.013  1.00  0.00    -0.239 C  
HETATM   10  O   UNL     1      -9.174   6.113  66.455  1.00  0.00    -0.148 OA 
HETATM   11  OXT UNL     1      -7.643   7.568  65.812  1.00  0.00    -0.086 OA 
HETATM   12  O   UNL     1     -10.516   5.530  68.513  1.00  0.00    -0.193 OA 
HETATM   13  CA  UNL     1     -11.167   7.345  70.267  1.00  0.00    -0.247 C  
ENDROOT
BRANCH  13  14
HETATM   14  N   UNL     1     -10.555   6.981  71.561  1.00  0.00    -0.212 N  
HETATM   15  H   UNL     1     -10.103   7.721  72.097  1.00  0.00     0.000 HD 
HETATM   16  C   UNL     1     -10.553   5.710  72.092  1.00  0.00    -0.223 C  
HETATM   17  O   UNL     1     -11.107   4.759  71.552  1.00  0.00     0.187 OA 
BRANCH  16  18
HETATM   18  CA  UNL     1      -9.785   5.620  73.435  1.00  0.00    -0.148 C  
HETATM   19  H2  UNL     1     -11.546   5.346  74.548  1.00  0.00     0.000 HD 
HETATM   20  N   UNL     1     -10.713   5.936  74.558  1.00  0.00    -0.366 NA 
HETATM   21  H1  UNL     1     -10.207   5.877  75.441  1.00  0.00     0.000 HD 
BRANCH  18  22
HETATM   22  C   UNL     1      -8.563   6.520  73.440  1.00  0.00    -0.131 A  
HETATM   23  C   UNL     1      -7.519   6.269  72.534  1.00  0.00    -0.093 A  
HETATM   24  C   UNL     1      -6.376   7.071  72.520  1.00  0.00    -0.052 A  
HETATM   25  C   UNL     1      -6.263   8.141  73.404  1.00  0.00    -0.097 A  
HETATM   26  C   UNL     1      -7.297   8.419  74.294  1.00  0.00    -0.224 A  
HETATM   27  C   UNL     1      -8.443   7.619  74.307  1.00  0.00    -0.282 A  
ENDBRANCH  18  22
ENDBRANCH  16  18
ENDBRANCH  13  14
TORSDOF 3
ENDMDL
MODEL      178
REMARK 921   NORMALIZED FREE ENERGY PREDICTED BY IDOCK:   -2.90 KCAL/MOL
REMARK 922        TOTAL FREE ENERGY PREDICTED BY IDOCK:   -4.11 KCAL/MOL
REMARK 923 INTER-LIGAND FREE ENERGY PREDICTED BY IDOCK:   -5.25 KCAL/MOL
REMARK 924 INTRA-LIGAND FREE ENERGY PREDICTED BY IDOCK:    1.14 KCAL/MOL
REMARK 927      BINDING AFFINITY PREDICTED BY RF-SCORE:    0.00 PKD
ROOT
HETATM    1  C   UNL     1      -8.103   5.736  73.114  1.00  0.00    -0.117 C  
HETATM    2  S   UNL     1      -9.625   6.572  73.627  1.00  0.00    -0.194 SA 
HETATM    3  C   UNL     1     -10.400   5.047  74.215  1.00  0.00    -0.279 C  
HETATM    4  C   UNL     1     -10.287   3.881  73.255  1.00  0.00    -0.166 C  
HETATM    5 CL   UNL     1     -11.553   2.727  73.599  1.00  0.00    -0.230 Cl 
HETATM    6  CA  UNL     1      -9.370   3.754  72.257  1.00  0.00    -0.122 C  
HETATM    7  N   UNL     1      -8.427   4.738  72.108  1.00  0.00    -0.118 N  
HETATM    8  C   UNL     1      -9.419   2.564  71.315  1.00  0.00    -0.150 C  
HETATM    9  C   UNL     1      -7.521   5.152  71.197  1.00  0.00    -0.079 C  
HETATM   10  O   UNL     1      -8.437   2.462  70.398  1.00  0.00    -0.044 OA 
HETATM   11  OXT UNL     1     -10.246   1.668  71.382  1.00  0.00    -0.092 OA 
HETATM   12  O   UNL     1      -7.196   4.647  70.150  1.00  0.00    -0.048 OA 
HETATM   13  CA  UNL     1      -7.264   6.466  72.017  1.00  0.00    -0.090 C  
ENDROOT
BRANCH  13  14
HETATM   14  N   UNL     1      -7.873   7.687  71.452  1.00  0.00    -0.088 N  
HETATM   15  H   UNL     1      -7.548   8.587  71.805  1.00  0.00     0.000 HD 
HETATM   16  C   UNL     1      -8.849   7.695  70.480  1.00  0.00    -0.149 C  
HETATM   17  O   UNL     1      -9.278   6.673  69.956  1.00  0.00    -0.156 OA 
BRANCH  16  18
HETATM   18  CA  UNL     1      -9.337   9.123  70.127  1.00  0.00    -0.209 C  
HETATM   19  H2  UNL     1      -7.387   9.907  70.135  1.00  0.00     0.000 HD 
HETATM   20  N   UNL     1      -8.302  10.114  70.538  1.00  0.00    -0.335 NA 
HETATM   21  H1  UNL     1      -8.623  11.053  70.306  1.00  0.00     0.000 HD 
BRANCH  18  22
HETATM   22  C   UNL     1     -10.687   9.422  70.752  1.00  0.00    -0.373 A  
HETATM   23  C   UNL     1     -11.519  10.389  70.164  1.00  0.00    -0.396 A  
HETATM   24  C   UNL     1     -12.763  10.695  70.720  1.00  0.00    -0.468 A  
HETATM   25  C   UNL     1     -13.197  10.035  71.866  1.00  0.00    -0.557 A  
HETATM   26  C   UNL     1     -12.396   9.058  72.450  1.00  0.00    -0.350 A  
HETATM   27  C   UNL     1     -11.152   8.747  71.893  1.00  0.00    -0.434 A  
ENDBRANCH  18  22
ENDBRANCH  16  18
ENDBRANCH  13  14
TORSDOF 3
ENDMDL
MODEL      179
REMARK 921   NORMALIZED FREE ENERGY PREDICTED BY IDOCK:   -2.88 KCAL/MOL
REMARK 922        TOTAL FREE ENERGY PREDICTED BY IDOCK:   -4.09 KCAL/MOL
REMARK 923 INTER-LIGAND FREE ENERGY PREDICTED BY IDOCK:   -3.69 KCAL/MOL
REMARK 924 INTRA-LIGAND FREE ENERGY PREDICTED BY IDOCK:   -0.40 KCAL/MOL
REMARK 927      BINDING AFFINITY PREDICTED BY RF-SCORE:    0.00 PKD
ROOT
HETATM    1  C   UNL     1      -7.946   8.107  69.543  1.00  0.00    -0.113 C  
HETATM    2  S   UNL     1      -7.536   9.180  70.943  1.00  0.00    -0.099 SA 
HETATM    3  C   UNL     1      -7.854   7.889  72.171  1.00  0.00    -0.106 C  
HETATM    4  C   UNL     1      -9.147   7.132  71.958  1.00  0.00    -0.130 C  
HETATM    5 CL   UNL     1      -9.648   6.411  73.470  1.00  0.00    -0.155 Cl 
HETATM    6  CA  UNL     1      -9.839   7.045  70.789  1.00  0.00    -0.185 C  
HETATM    7  N   UNL     1      -9.322   7.657  69.677  1.00  0.00    -0.157 N  
HETATM    8  C   UNL     1     -11.169   6.313  70.736  1.00  0.00    -0.324 C  
HETATM    9  C   UNL     1      -9.716   8.025  68.440  1.00  0.00    -0.158 C  
HETATM   10  O   UNL     1     -11.764   6.201  69.532  1.00  0.00    -0.298 OA 
HETATM   11  OXT UNL     1     -11.693   5.768  71.695  1.00  0.00    -0.138 OA 
HETATM   12  O   UNL     1     -10.757   7.812  67.868  1.00  0.00    -0.187 OA 
HETATM   13  CA  UNL     1      -8.389   8.838  68.235  1.00  0.00    -0.126 C  
ENDROOT
BRANCH  13  14
HETATM   14  N   UNL     1      -8.529  10.305  68.337  1.00  0.00    -0.120 N  
HETATM   15  H   UNL     1      -8.616  10.710  69.269  1.00  0.00     0.000 HD 
HETATM   16  C   UNL     1      -8.551  11.163  67.260  1.00  0.00    -0.140 C  
HETATM   17  O   UNL     1      -8.410  10.786  66.102  1.00  0.00    -0.156 OA 
BRANCH  16  18
HETATM   18  CA  UNL     1      -8.769  12.641  67.671  1.00  0.00    -0.179 C  
HETATM   19  H2  UNL     1      -9.903  13.064  65.953  1.00  0.00     0.000 HD 
HETATM   20  N   UNL     1      -9.105  13.445  66.462  1.00  0.00    -0.433 NA 
HETATM   21  H1  UNL     1      -9.248  14.418  66.732  1.00  0.00     0.000 HD 
BRANCH  18  22
HETATM   22  C   UNL     1      -7.565  13.199  68.406  1.00  0.00    -0.133 A  
HETATM   23  C   UNL     1      -7.737  14.275  69.293  1.00  0.00     0.048 A  
HETATM   24  C   UNL     1      -6.647  14.819  69.977  1.00  0.00    -0.168 A  
HETATM   25  C   UNL     1      -5.372  14.291  69.792  1.00  0.00    -0.093 A  
HETATM   26  C   UNL     1      -5.186  13.211  68.934  1.00  0.00    -0.069 A  
HETATM   27  C   UNL     1      -6.275  12.663  68.252  1.00  0.00    -0.071 A  
ENDBRANCH  18  22
ENDBRANCH  16  18
ENDBRANCH  13  14
TORSDOF 3
ENDMDL
MODEL      180
REMARK 921   NORMALIZED FREE ENERGY PREDICTED BY IDOCK:   -2.61 KCAL/MOL
REMARK 922        TOTAL FREE ENERGY PREDICTED BY IDOCK:   -3.76 KCAL/MOL
REMARK 923 INTER-LIGAND FREE ENERGY PREDICTED BY IDOCK:   -3.29 KCAL/MOL
REMARK 924 INTRA-LIGAND FREE ENERGY PREDICTED BY IDOCK:   -0.48 KCAL/MOL
REMARK 927      BINDING AFFINITY PREDICTED BY RF-SCORE:    0.00 PKD
ROOT
HETATM    1  C   UNL     1      -7.831   8.487  70.660  1.00  0.00    -0.091 C  
HETATM    2  S   UNL     1      -9.308   9.534  70.701  1.00  0.00    -0.115 SA 
HETATM    3  C   UNL     1     -10.378   8.197  71.283  1.00  0.00    -0.199 C  
HETATM    4  C   UNL     1     -10.213   6.894  70.530  1.00  0.00    -0.192 C  
HETATM    5 CL   UNL     1     -11.660   5.932  70.717  1.00  0.00    -0.129 Cl 
HETATM    6  CA  UNL     1      -9.127   6.529  69.793  1.00  0.00    -0.142 C  
HETATM    7  N   UNL     1      -8.057   7.384  69.741  1.00  0.00    -0.125 N  
HETATM    8  C   UNL     1      -9.126   5.220  69.022  1.00  0.00    -0.115 C  
HETATM    9  C   UNL     1      -6.932   7.567  69.016  1.00  0.00    -0.073 C  
HETATM   10  O   UNL     1      -7.992   4.887  68.375  1.00  0.00    -0.085 OA 
HETATM   11  OXT UNL     1     -10.056   4.428  69.011  1.00  0.00    -0.104 OA 
HETATM   12  O   UNL     1      -6.458   6.879  68.145  1.00  0.00    -0.045 OA 
HETATM   13  CA  UNL     1      -6.691   8.958  69.701  1.00  0.00    -0.046 C  
ENDROOT
BRANCH  13  14
HETATM   14  N   UNL     1      -7.005  10.133  68.862  1.00  0.00    -0.061 N  
HETATM   15  H   UNL     1      -7.701  10.792  69.209  1.00  0.00     0.000 HD 
HETATM   16  C   UNL     1      -6.420  10.399  67.644  1.00  0.00    -0.058 C  
HETATM   17  O   UNL     1      -5.541   9.698  67.156  1.00  0.00    -0.046 OA 
BRANCH  16  18
HETATM   18  CA  UNL     1      -6.991  11.672  66.967  1.00  0.00    -0.144 C  
HETATM   19  H2  UNL     1      -6.475  12.898  68.594  1.00  0.00     0.000 HD 
HETATM   20  N   UNL     1      -7.287  12.695  68.010  1.00  0.00    -0.101 NA 
HETATM   21  H1  UNL     1      -7.663  13.532  67.565  1.00  0.00     0.000 HD 
BRANCH  18  22
HETATM   22  C   UNL     1      -8.211  11.355  66.122  1.00  0.00    -0.041 A  
HETATM   23  C   UNL     1      -8.127  10.356  65.138  1.00  0.00    -0.145 A  
HETATM   24  C   UNL     1      -9.228  10.048  64.336  1.00  0.00    -0.316 A  
HETATM   25  C   UNL     1     -10.431  10.725  64.512  1.00  0.00    -0.351 A  
HETATM   26  C   UNL     1     -10.540  11.702  65.497  1.00  0.00    -0.329 A  
HETATM   27  C   UNL     1      -9.440  12.010  66.303  1.00  0.00    -0.237 A  
ENDBRANCH  18  22
ENDBRANCH  16  18
ENDBRANCH  13  14
TORSDOF 3
ENDMDL
MODEL      181
REMARK 921   NORMALIZED FREE ENERGY PREDICTED BY IDOCK:   -2.57 KCAL/MOL
REMARK 922        TOTAL FREE ENERGY PREDICTED BY IDOCK:   -3.72 KCAL/MOL
REMARK 923 INTER-LIGAND FREE ENERGY PREDICTED BY IDOCK:   -3.22 KCAL/MOL
REMARK 924 INTRA-LIGAND FREE ENERGY PREDICTED BY IDOCK:   -0.50 KCAL/MOL
REMARK 927      BINDING AFFINITY PREDICTED BY RF-SCORE:    0.00 PKD
ROOT
HETATM    1  C   UNL     1      -8.401   9.591  69.787  1.00  0.00    -0.164 C  
HETATM    2  S   UNL     1      -9.987   9.775  68.932  1.00  0.00    -0.185 SA 
HETATM    3  C   UNL     1     -10.915  10.019  70.465  1.00  0.00    -0.326 C  
HETATM    4  C   UNL     1     -10.586   9.025  71.558  1.00  0.00    -0.345 C  
HETATM    5 CL   UNL     1     -11.921   8.942  72.683  1.00  0.00    -0.214 Cl 
HETATM    6  CA  UNL     1      -9.449   8.281  71.645  1.00  0.00    -0.195 C  
HETATM    7  N   UNL     1      -8.480   8.456  70.692  1.00  0.00    -0.127 N  
HETATM    8  C   UNL     1      -9.282   7.260  72.757  1.00  0.00    -0.143 C  
HETATM    9  C   UNL     1      -7.365   7.838  70.246  1.00  0.00    -0.067 C  
HETATM   10  O   UNL     1      -8.102   6.612  72.828  1.00  0.00    -0.107 OA 
HETATM   11  OXT UNL     1     -10.116   7.042  73.622  1.00  0.00    -0.265 OA 
HETATM   12  O   UNL     1      -6.796   6.868  70.683  1.00  0.00    -0.055 OA 
HETATM   13  CA  UNL     1      -7.298   8.803  69.010  1.00  0.00    -0.073 C  
ENDROOT
BRANCH  13  14
HETATM   14  N   UNL     1      -7.720   8.209  67.726  1.00  0.00    -0.108 N  
HETATM   15  H   UNL     1      -8.576   8.561  67.298  1.00  0.00     0.000 HD 
HETATM   16  C   UNL     1      -7.036   7.212  67.066  1.00  0.00    -0.090 C  
HETATM   17  O   UNL     1      -5.975   6.749  67.469  1.00  0.00    -0.022 OA 
BRANCH  16  18
HETATM   18  CA  UNL     1      -7.750   6.747  65.771  1.00  0.00    -0.096 C  
HETATM   19  H2  UNL     1      -9.542   7.718  66.282  1.00  0.00     0.000 HD 
HETATM   20  N   UNL     1      -9.226   6.798  65.976  1.00  0.00    -0.345 NA 
HETATM   21  H1  UNL     1      -9.696   6.491  65.124  1.00  0.00     0.000 HD 
BRANCH  18  22
HETATM   22  C   UNL     1      -7.285   5.367  65.343  1.00  0.00    -0.068 A  
HETATM   23  C   UNL     1      -6.285   5.251  64.363  1.00  0.00    -0.022 A  
HETATM   24  C   UNL     1      -5.842   3.996  63.939  1.00  0.00    -0.014 A  
HETATM   25  C   UNL     1      -6.385   2.840  64.492  1.00  0.00    -0.023 A  
HETATM   26  C   UNL     1      -7.361   2.936  65.480  1.00  0.00    -0.071 A  
HETATM   27  C   UNL     1      -7.803   4.190  65.909  1.00  0.00    -0.094 A  
ENDBRANCH  18  22
ENDBRANCH  16  18
ENDBRANCH  13  14
TORSDOF 3
ENDMDL
MODEL      182
REMARK 921   NORMALIZED FREE ENERGY PREDICTED BY IDOCK:   -2.55 KCAL/MOL
REMARK 922        TOTAL FREE ENERGY PREDICTED BY IDOCK:   -3.70 KCAL/MOL
REMARK 923 INTER-LIGAND FREE ENERGY PREDICTED BY IDOCK:   -4.33 KCAL/MOL
REMARK 924 INTRA-LIGAND FREE ENERGY PREDICTED BY IDOCK:    0.63 KCAL/MOL
REMARK 927      BINDING AFFINITY PREDICTED BY RF-SCORE:    0.00 PKD
ROOT
HETATM    1  C   UNL     1      -7.715   8.735  69.742  1.00  0.00    -0.084 C  
HETATM    2  S   UNL     1      -9.190   9.721  70.101  1.00  0.00    -0.142 SA 
HETATM    3  C   UNL     1     -10.191   8.276  70.530  1.00  0.00    -0.198 C  
HETATM    4  C   UNL     1     -10.085   7.131  69.546  1.00  0.00    -0.179 C  
HETATM    5 CL   UNL     1     -11.500   6.115  69.688  1.00  0.00    -0.461 Cl 
HETATM    6  CA  UNL     1      -9.070   6.929  68.661  1.00  0.00    -0.131 C  
HETATM    7  N   UNL     1      -8.016   7.805  68.666  1.00  0.00    -0.120 N  
HETATM    8  C   UNL     1      -9.129   5.777  67.673  1.00  0.00    -0.106 C  
HETATM    9  C   UNL     1      -6.965   8.141  67.887  1.00  0.00    -0.078 C  
HETATM   10  O   UNL     1      -8.057   5.591  66.877  1.00  0.00    -0.101 OA 
HETATM   11  OXT UNL     1     -10.049   4.977  67.604  1.00  0.00    -0.169 OA 
HETATM   12  O   UNL     1      -6.568   7.630  66.868  1.00  0.00    -0.058 OA 
HETATM   13  CA  UNL     1      -6.673   9.396  68.784  1.00  0.00    -0.052 C  
ENDROOT
BRANCH  13  14
HETATM   14  N   UNL     1      -7.073  10.691  68.198  1.00  0.00    -0.080 N  
HETATM   15  H   UNL     1      -6.782  11.541  68.683  1.00  0.00     0.000 HD 
HETATM   16  C   UNL     1      -7.810  10.832  67.044  1.00  0.00    -0.121 C  
HETATM   17  O   UNL     1      -8.171   9.879  66.361  1.00  0.00    -0.116 OA 
BRANCH  16  18
HETATM   18  CA  UNL     1      -8.126  12.311  66.707  1.00  0.00    -0.024 C  
HETATM   19  H2  UNL     1      -6.094  12.840  66.629  1.00  0.00     0.000 HD 
HETATM   20  N   UNL     1      -6.957  13.161  67.070  1.00  0.00    -0.406 NA 
HETATM   21  H1  UNL     1      -7.165  14.134  66.848  1.00  0.00     0.000 HD 
BRANCH  18  22
HETATM   22  C   UNL     1      -9.399  12.778  67.388  1.00  0.00    -0.193 A  
HETATM   23  C   UNL     1     -10.596  12.078  67.165  1.00  0.00    -0.255 A  
HETATM   24  C   UNL     1     -11.787  12.488  67.769  1.00  0.00    -0.375 A  
HETATM   25  C   UNL     1     -11.798  13.598  68.610  1.00  0.00    -0.409 A  
HETATM   26  C   UNL     1     -10.617  14.291  68.860  1.00  0.00    -0.252 A  
HETATM   27  C   UNL     1      -9.423  13.880  68.260  1.00  0.00    -0.217 A  
ENDBRANCH  18  22
ENDBRANCH  16  18
ENDBRANCH  13  14
TORSDOF 3
ENDMDL
MODEL      183
REMARK 921   NORMALIZED FREE ENERGY PREDICTED BY IDOCK:   -1.72 KCAL/MOL
REMARK 922        TOTAL FREE ENERGY PREDICTED BY IDOCK:   -2.72 KCAL/MOL
REMARK 923 INTER-LIGAND FREE ENERGY PREDICTED BY IDOCK:   -2.48 KCAL/MOL
REMARK 924 INTRA-LIGAND FREE ENERGY PREDICTED BY IDOCK:   -0.24 KCAL/MOL
REMARK 927      BINDING AFFINITY PREDICTED BY RF-SCORE:    0.00 PKD
ROOT
HETATM    1  C   UNL     1     -11.333  16.817  67.443  1.00  0.00     0.291 C  
HETATM    2  S   UNL     1     -11.220  16.600  69.238  1.00  0.00    -0.007 SA 
HETATM    3  C   UNL     1     -10.668  18.299  69.522  1.00  0.00     1.036 C  
HETATM    4  C   UNL     1      -9.563  18.759  68.594  1.00  0.00    -0.387 C  
HETATM    5 CL   UNL     1      -8.703  20.088  69.335  1.00  0.00     0.260 Cl 
HETATM    6  CA  UNL     1      -9.255  18.211  67.386  1.00  0.00    -0.257 C  
HETATM    7  N   UNL     1     -10.022  17.173  66.926  1.00  0.00    -0.277 N  
HETATM    8  C   UNL     1      -8.067  18.723  66.591  1.00  0.00    -0.275 C  
HETATM    9  C   UNL     1      -9.979  16.218  65.972  1.00  0.00    -0.345 C  
HETATM   10  O   UNL     1      -7.864  18.188  65.371  1.00  0.00    -0.237 OA 
HETATM   11  OXT UNL     1      -7.333  19.629  66.957  1.00  0.00    -0.209 OA 
HETATM   12  O   UNL     1      -9.173  16.047  65.090  1.00  0.00    -0.000 OA 
HETATM   13  CA  UNL     1     -11.233  15.509  66.594  1.00  0.00    -0.118 C  
ENDROOT
BRANCH  13  14
HETATM   14  N   UNL     1     -10.944  14.274  67.351  1.00  0.00    -0.289 N  
HETATM   15  H   UNL     1     -11.337  14.189  68.288  1.00  0.00     0.000 HD 
HETATM   16  C   UNL     1     -10.182  13.230  66.878  1.00  0.00    -0.250 C  
HETATM   17  O   UNL     1      -9.700  13.210  65.751  1.00  0.00    -0.236 OA 
BRANCH  16  18
HETATM   18  CA  UNL     1     -10.003  12.094  67.918  1.00  0.00    -0.200 C  
HETATM   19  H2  UNL     1     -11.466  12.892  69.199  1.00  0.00     0.000 HD 
HETATM   20  N   UNL     1     -10.504  12.557  69.244  1.00  0.00    -0.422 NA 
HETATM   21  H1  UNL     1     -10.386  11.810  69.929  1.00  0.00     0.000 HD 
BRANCH  18  22
HETATM   22  C   UNL     1      -8.563  11.624  67.989  1.00  0.00    -0.152 A  
HETATM   23  C   UNL     1      -8.232  10.344  67.513  1.00  0.00    -0.114 A  
HETATM   24  C   UNL     1      -6.917   9.877  67.573  1.00  0.00    -0.083 A  
HETATM   25  C   UNL     1      -5.913  10.683  68.102  1.00  0.00    -0.046 A  
HETATM   26  C   UNL     1      -6.218  11.962  68.558  1.00  0.00    -0.052 A  
HETATM   27  C   UNL     1      -7.532  12.434  68.495  1.00  0.00    -0.112 A  
ENDBRANCH  18  22
ENDBRANCH  16  18
ENDBRANCH  13  14
TORSDOF 3
ENDMDL
MODEL      184
REMARK 921   NORMALIZED FREE ENERGY PREDICTED BY IDOCK:   -1.39 KCAL/MOL
REMARK 922        TOTAL FREE ENERGY PREDICTED BY IDOCK:   -2.33 KCAL/MOL
REMARK 923 INTER-LIGAND FREE ENERGY PREDICTED BY IDOCK:   -3.67 KCAL/MOL
REMARK 924 INTRA-LIGAND FREE ENERGY PREDICTED BY IDOCK:    1.34 KCAL/MOL
REMARK 927      BINDING AFFINITY PREDICTED BY RF-SCORE:    0.00 PKD
ROOT
HETATM    1  C   UNL     1      -9.636  13.942  69.429  1.00  0.00     0.579 C  
HETATM    2  S   UNL     1      -9.767  15.747  69.485  1.00  0.00    -0.248 SA 
HETATM    3  C   UNL     1     -10.436  15.760  71.166  1.00  0.00     0.616 C  
HETATM    4  C   UNL     1     -11.551  14.763  71.400  1.00  0.00    -0.245 C  
HETATM    5 CL   UNL     1     -12.510  15.282  72.767  1.00  0.00    -0.445 Cl 
HETATM    6  CA  UNL     1     -11.800  13.653  70.653  1.00  0.00    -0.154 C  
HETATM    7  N   UNL     1     -10.957  13.365  69.611  1.00  0.00     0.034 N  
HETATM    8  C   UNL     1     -13.004  12.778  70.954  1.00  0.00    -0.000 C  
HETATM    9  C   UNL     1     -10.919  12.571  68.520  1.00  0.00    -0.249 C  
HETATM   10  O   UNL     1     -13.149  11.654  70.224  1.00  0.00     0.212 OA 
HETATM   11  OXT UNL     1     -13.803  12.993  71.853  1.00  0.00    -0.306 OA 
HETATM   12  O   UNL     1     -11.696  11.720  68.160  1.00  0.00    -0.365 OA 
HETATM   13  CA  UNL     1      -9.633  13.306  68.002  1.00  0.00    -0.220 C  
ENDROOT
BRANCH  13  14
HETATM   14  N   UNL     1      -9.853  14.243  66.882  1.00  0.00    -0.256 N  
HETATM   15  H   UNL     1      -9.086  14.386  66.225  1.00  0.00     0.000 HD 
HETATM   16  C   UNL     1     -11.022  14.937  66.664  1.00  0.00    -0.325 C  
HETATM   17  O   UNL     1     -12.019  14.804  67.366  1.00  0.00    -0.357 OA 
BRANCH  16  18
HETATM   18  CA  UNL     1     -10.940  15.890  65.445  1.00  0.00    -0.285 C  
HETATM   19  H2  UNL     1     -10.714  14.304  64.084  1.00  0.00     0.000 HD 
HETATM   20  N   UNL     1     -10.263  15.189  64.316  1.00  0.00    -0.088 NA 
HETATM   21  H1  UNL     1     -10.208  15.817  63.514  1.00  0.00     0.000 HD 
BRANCH  18  22
HETATM   22  C   UNL     1     -10.246  17.192  65.801  1.00  0.00    -0.234 A  
HETATM   23  C   UNL     1     -10.912  18.409  65.582  1.00  0.00     0.238 A  
HETATM   24  C   UNL     1     -10.298  19.625  65.889  1.00  0.00    -0.584 A  
HETATM   25  C   UNL     1      -9.014  19.643  66.426  1.00  0.00    -0.427 A  
HETATM   26  C   UNL     1      -8.347  18.446  66.670  1.00  0.00    -0.280 A  
HETATM   27  C   UNL     1      -8.961  17.228  66.368  1.00  0.00    -0.282 A  
ENDBRANCH  18  22
ENDBRANCH  16  18
ENDBRANCH  13  14
TORSDOF 3
ENDMDL
MODEL      185
REMARK 921   NORMALIZED FREE ENERGY PREDICTED BY IDOCK:    0.30 KCAL/MOL
REMARK 922        TOTAL FREE ENERGY PREDICTED BY IDOCK:   -0.35 KCAL/MOL
REMARK 923 INTER-LIGAND FREE ENERGY PREDICTED BY IDOCK:   -1.27 KCAL/MOL
REMARK 924 INTRA-LIGAND FREE ENERGY PREDICTED BY IDOCK:    0.92 KCAL/MOL
REMARK 927      BINDING AFFINITY PREDICTED BY RF-SCORE:    0.00 PKD
ROOT
HETATM    1  C   UNL     1      -8.883  15.153  66.680  1.00  0.00    -0.286 C  
HETATM    2  S   UNL     1      -9.166  13.836  65.470  1.00  0.00     0.820 SA 
HETATM    3  C   UNL     1     -10.956  14.095  65.437  1.00  0.00    -0.327 C  
HETATM    4  C   UNL     1     -11.593  14.220  66.805  1.00  0.00    -0.391 C  
HETATM    5 CL   UNL     1     -13.292  13.828  66.687  1.00  0.00     1.719 Cl 
HETATM    6  CA  UNL     1     -10.950  14.552  67.958  1.00  0.00    -0.260 C  
HETATM    7  N   UNL     1      -9.612  14.842  67.899  1.00  0.00    -0.208 N  
HETATM    8  C   UNL     1     -11.699  14.565  69.279  1.00  0.00    -0.310 C  
HETATM    9  C   UNL     1      -8.562  14.986  68.735  1.00  0.00    -0.182 C  
HETATM   10  O   UNL     1     -11.021  14.974  70.369  1.00  0.00    -0.246 OA 
HETATM   11  OXT UNL     1     -12.884  14.295  69.400  1.00  0.00     0.083 OA 
HETATM   12  O   UNL     1      -8.532  14.977  69.942  1.00  0.00    -0.018 OA 
HETATM   13  CA  UNL     1      -7.570  15.034  67.519  1.00  0.00    -0.192 C  
ENDROOT
BRANCH  13  14
HETATM   14  N   UNL     1      -6.782  13.804  67.304  1.00  0.00    -0.209 N  
HETATM   15  H   UNL     1      -5.924  13.880  66.758  1.00  0.00     0.000 HD 
HETATM   16  C   UNL     1      -7.125  12.563  67.791  1.00  0.00    -0.126 C  
HETATM   17  O   UNL     1      -8.109  12.369  68.495  1.00  0.00    -0.148 OA 
BRANCH  16  18
HETATM   18  CA  UNL     1      -6.137  11.451  67.355  1.00  0.00    -0.074 C  
HETATM   19  H2  UNL     1      -5.742  12.375  65.509  1.00  0.00     0.000 HD 
HETATM   20  N   UNL     1      -6.009  11.459  65.870  1.00  0.00    -0.472 NA 
HETATM   21  H1  UNL     1      -5.360  10.726  65.583  1.00  0.00     0.000 HD 
BRANCH  18  22
HETATM   22  C   UNL     1      -6.560  10.091  67.880  1.00  0.00    -0.063 A  
HETATM   23  C   UNL     1      -5.771   9.451  68.849  1.00  0.00    -0.039 A  
HETATM   24  C   UNL     1      -6.127   8.195  69.345  1.00  0.00    -0.034 A  
HETATM   25  C   UNL     1      -7.280   7.564  68.887  1.00  0.00    -0.082 A  
HETATM   26  C   UNL     1      -8.087   8.193  67.942  1.00  0.00    -0.128 A  
HETATM   27  C   UNL     1      -7.734   9.452  67.448  1.00  0.00    -0.095 A  
ENDBRANCH  18  22
ENDBRANCH  16  18
ENDBRANCH  13  14
TORSDOF 3
ENDMDL
MODEL      186
REMARK 921   NORMALIZED FREE ENERGY PREDICTED BY IDOCK:    1.19 KCAL/MOL
REMARK 922        TOTAL FREE ENERGY PREDICTED BY IDOCK:    0.70 KCAL/MOL
REMARK 923 INTER-LIGAND FREE ENERGY PREDICTED BY IDOCK:    0.56 KCAL/MOL
REMARK 924 INTRA-LIGAND FREE ENERGY PREDICTED BY IDOCK:    0.13 KCAL/MOL
REMARK 927      BINDING AFFINITY PREDICTED BY RF-SCORE:    0.00 PKD
ROOT
HETATM    1  C   UNL     1      -7.329  16.453  70.664  1.00  0.00     2.476 C  
HETATM    2  S   UNL     1      -5.520  16.422  70.753  1.00  0.00     0.018 SA 
HETATM    3  C   UNL     1      -5.358  18.185  70.379  1.00  0.00    -0.255 C  
HETATM    4  C   UNL     1      -6.199  18.653  69.210  1.00  0.00    -0.259 C  
HETATM    5 CL   UNL     1      -5.513  20.122  68.558  1.00  0.00    -0.243 Cl 
HETATM    6  CA  UNL     1      -7.300  18.023  68.715  1.00  0.00    -0.273 C  
HETATM    7  N   UNL     1      -7.731  16.879  69.333  1.00  0.00    -0.039 N  
HETATM    8  C   UNL     1      -8.007  18.565  67.484  1.00  0.00    -0.236 C  
HETATM    9  C   UNL     1      -8.566  15.845  69.098  1.00  0.00    -0.252 C  
HETATM   10  O   UNL     1      -9.132  17.936  67.092  1.00  0.00    -0.243 OA 
HETATM   11  OXT UNL     1      -7.659  19.566  66.876  1.00  0.00    -0.235 OA 
HETATM   12  O   UNL     1      -9.329  15.666  68.179  1.00  0.00    -0.191 OA 
HETATM   13  CA  UNL     1      -8.017  15.085  70.356  1.00  0.00     0.937 C  
ENDROOT
BRANCH  13  14
HETATM   14  N   UNL     1      -7.105  13.961  70.062  1.00  0.00    -0.318 N  
HETATM   15  H   UNL     1      -6.163  13.999  70.451  1.00  0.00     0.000 HD 
HETATM   16  C   UNL     1      -7.439  12.864  69.299  1.00  0.00     0.314 C  
HETATM   17  O   UNL     1      -8.556  12.697  68.822  1.00  0.00     0.004 OA 
BRANCH  16  18
HETATM   18  CA  UNL     1      -6.260  11.876  69.115  1.00  0.00    -0.085 C  
HETATM   19  H2  UNL     1      -5.667  12.755  67.300  1.00  0.00     0.000 HD 
HETATM   20  N   UNL     1      -5.876  11.829  67.675  1.00  0.00    -0.058 NA 
HETATM   21  H1  UNL     1      -5.100  11.178  67.553  1.00  0.00     0.000 HD 
BRANCH  18  22
HETATM   22  C   UNL     1      -6.596  10.499  69.656  1.00  0.00    -0.098 A  
HETATM   23  C   UNL     1      -5.565   9.564  69.847  1.00  0.00    -0.032 A  
HETATM   24  C   UNL     1      -5.842   8.284  70.334  1.00  0.00    -0.028 A  
HETATM   25  C   UNL     1      -7.150   7.923  70.645  1.00  0.00    -0.049 A  
HETATM   26  C   UNL     1      -8.181   8.844  70.484  1.00  0.00    -0.160 A  
HETATM   27  C   UNL     1      -7.906  10.126  70.001  1.00  0.00    -0.131 A  
ENDBRANCH  18  22
ENDBRANCH  16  18
ENDBRANCH  13  14
TORSDOF 3
ENDMDL
MODEL      187
REMARK 921   NORMALIZED FREE ENERGY PREDICTED BY IDOCK:    5.08 KCAL/MOL
REMARK 922        TOTAL FREE ENERGY PREDICTED BY IDOCK:    5.27 KCAL/MOL
REMARK 923 INTER-LIGAND FREE ENERGY PREDICTED BY IDOCK:    3.31 KCAL/MOL
REMARK 924 INTRA-LIGAND FREE ENERGY PREDICTED BY IDOCK:    1.96 KCAL/MOL
REMARK 927      BINDING AFFINITY PREDICTED BY RF-SCORE:    0.00 PKD
ROOT
HETATM    1  C   UNL     1      -6.658  14.775  69.887  1.00  0.00    -0.175 C  
HETATM    2  S   UNL     1      -5.766  14.187  68.425  1.00  0.00    -0.115 SA 
HETATM    3  C   UNL     1      -5.983  15.742  67.527  1.00  0.00    -0.117 C  
HETATM    4  C   UNL     1      -7.393  16.292  67.566  1.00  0.00    -0.151 C  
HETATM    5 CL   UNL     1      -7.630  17.369  66.210  1.00  0.00    -0.333 Cl 
HETATM    6  CA  UNL     1      -8.346  15.982  68.488  1.00  0.00    -0.191 C  
HETATM    7  N   UNL     1      -8.016  15.124  69.505  1.00  0.00    -0.210 N  
HETATM    8  C   UNL     1      -9.749  16.550  68.363  1.00  0.00    -0.236 C  
HETATM    9  C   UNL     1      -8.628  14.385  70.454  1.00  0.00     2.044 C  
HETATM   10  O   UNL     1     -10.622  16.261  69.349  1.00  0.00    -0.257 OA 
HETATM   11  OXT UNL     1     -10.111  17.299  67.469  1.00  0.00    -0.293 OA 
HETATM   12  O   UNL     1      -9.795  14.335  70.757  1.00  0.00     1.834 OA 
HETATM   13  CA  UNL     1      -7.276  13.665  70.797  1.00  0.00     2.146 C  
ENDROOT
BRANCH  13  14
HETATM   14  N   UNL     1      -7.156  12.282  70.292  1.00  0.00     0.568 N  
HETATM   15  H   UNL     1      -6.780  11.577  70.926  1.00  0.00     0.000 HD 
HETATM   16  C   UNL     1      -7.517  11.880  69.026  1.00  0.00    -0.006 C  
HETATM   17  O   UNL     1      -8.020  12.636  68.202  1.00  0.00    -0.140 OA 
BRANCH  16  18
HETATM   18  CA  UNL     1      -7.223  10.382  68.762  1.00  0.00    -0.085 C  
HETATM   19  H2  UNL     1      -5.652  10.814  67.435  1.00  0.00     0.000 HD 
HETATM   20  N   UNL     1      -6.496  10.242  67.468  1.00  0.00    -0.065 NA 
HETATM   21  H1  UNL     1      -6.303   9.256  67.294  1.00  0.00     0.000 HD 
BRANCH  18  22
HETATM   22  C   UNL     1      -8.491   9.550  68.793  1.00  0.00    -0.122 A  
HETATM   23  C   UNL     1      -9.256   9.417  67.622  1.00  0.00    -0.142 A  
HETATM   24  C   UNL     1     -10.434   8.667  67.618  1.00  0.00    -0.311 A  
HETATM   25  C   UNL     1     -10.861   8.032  68.781  1.00  0.00     0.019 A  
HETATM   26  C   UNL     1     -10.104   8.133  69.945  1.00  0.00    -0.195 A  
HETATM   27  C   UNL     1      -8.923   8.880  69.950  1.00  0.00    -0.160 A  
ENDBRANCH  18  22
ENDBRANCH  16  18
ENDBRANCH  13  14
TORSDOF 3
ENDMDL
MODEL      188
REMARK 921   NORMALIZED FREE ENERGY PREDICTED BY IDOCK:   10.32 KCAL/MOL
REMARK 922        TOTAL FREE ENERGY PREDICTED BY IDOCK:   11.43 KCAL/MOL
REMARK 923 INTER-LIGAND FREE ENERGY PREDICTED BY IDOCK:   11.73 KCAL/MOL
REMARK 924 INTRA-LIGAND FREE ENERGY PREDICTED BY IDOCK:   -0.30 KCAL/MOL
REMARK 927      BINDING AFFINITY PREDICTED BY RF-SCORE:    0.00 PKD
ROOT
HETATM    1  C   UNL     1     -11.523  11.451  69.224  1.00  0.00    -0.303 C  
HETATM    2  S   UNL     1     -10.922  11.458  67.516  1.00  0.00    -0.278 SA 
HETATM    3  C   UNL     1     -11.446   9.755  67.205  1.00  0.00     1.127 C  
HETATM    4  C   UNL     1     -11.064   8.776  68.295  1.00  0.00     0.307 C  
HETATM    5 CL   UNL     1     -11.032   7.159  67.633  1.00  0.00    -0.264 Cl 
HETATM    6  CA  UNL     1     -10.759   9.095  69.583  1.00  0.00    -0.225 C  
HETATM    7  N   UNL     1     -10.833  10.408  69.966  1.00  0.00    -0.290 N  
HETATM    8  C   UNL     1     -10.315   8.017  70.557  1.00  0.00    -0.202 C  
HETATM    9  C   UNL     1     -10.435  11.197  70.987  1.00  0.00     3.113 C  
HETATM   10  O   UNL     1     -10.101   8.389  71.834  1.00  0.00    -0.215 OA 
HETATM   11  OXT UNL     1     -10.208   6.834  70.271  1.00  0.00    -0.191 OA 
HETATM   12  O   UNL     1      -9.899  10.899  72.026  1.00  0.00     6.501 OA 
HETATM   13  CA  UNL     1     -10.849  12.482  70.185  1.00  0.00     1.179 C  
ENDROOT
BRANCH  13  14
HETATM   14  N   UNL     1      -9.728  13.253  69.613  1.00  0.00     0.617 N  
HETATM   15  H   UNL     1      -8.930  12.732  69.249  1.00  0.00     0.000 HD 
HETATM   16  C   UNL     1      -9.685  14.627  69.536  1.00  0.00     0.124 C  
HETATM   17  O   UNL     1     -10.608  15.346  69.902  1.00  0.00    -0.270 OA 
BRANCH  16  18
HETATM   18  CA  UNL     1      -8.356  15.157  68.940  1.00  0.00    -0.190 C  
HETATM   19  H2  UNL     1      -8.728  14.289  67.062  1.00  0.00     0.000 HD 
HETATM   20  N   UNL     1      -7.982  14.330  67.757  1.00  0.00    -0.152 NA 
HETATM   21  H1  UNL     1      -7.107  14.678  67.365  1.00  0.00     0.000 HD 
BRANCH  18  22
HETATM   22  C   UNL     1      -7.252  15.189  69.980  1.00  0.00    -0.008 A  
HETATM   23  C   UNL     1      -6.817  13.986  70.561  1.00  0.00     0.428 A  
HETATM   24  C   UNL     1      -5.810  13.982  71.529  1.00  0.00    -0.172 A  
HETATM   25  C   UNL     1      -5.217  15.177  71.924  1.00  0.00    -0.035 A  
HETATM   26  C   UNL     1      -5.618  16.377  71.343  1.00  0.00     0.446 A  
HETATM   27  C   UNL     1      -6.623  16.383  70.372  1.00  0.00     0.683 A  
ENDBRANCH  18  22
ENDBRANCH  16  18
ENDBRANCH  13  14
TORSDOF 3
ENDMDL
MODEL      189
REMARK 921   NORMALIZED FREE ENERGY PREDICTED BY IDOCK:   19.93 KCAL/MOL
REMARK 922        TOTAL FREE ENERGY PREDICTED BY IDOCK:   22.72 KCAL/MOL
REMARK 923 INTER-LIGAND FREE ENERGY PREDICTED BY IDOCK:   21.91 KCAL/MOL
REMARK 924 INTRA-LIGAND FREE ENERGY PREDICTED BY IDOCK:    0.81 KCAL/MOL
REMARK 927      BINDING AFFINITY PREDICTED BY RF-SCORE:    0.00 PKD
ROOT
HETATM    1  C   UNL     1     -12.127  15.299  68.361  1.00  0.00    -0.038 C  
HETATM    2  S   UNL     1     -10.764  16.029  69.303  1.00  0.00    -0.301 SA 
HETATM    3  C   UNL     1     -10.311  17.175  67.978  1.00  0.00    -0.353 C  
HETATM    4  C   UNL     1     -10.225  16.539  66.607  1.00  0.00    -0.300 C  
HETATM    5 CL   UNL     1      -9.204  17.518  65.580  1.00  0.00     0.500 Cl 
HETATM    6  CA  UNL     1     -10.817  15.372  66.229  1.00  0.00    -0.301 C  
HETATM    7  N   UNL     1     -11.598  14.712  67.140  1.00  0.00    -0.375 N  
HETATM    8  C   UNL     1     -10.583  14.807  64.839  1.00  0.00    -0.406 C  
HETATM    9  C   UNL     1     -12.164  13.497  67.309  1.00  0.00    -0.260 C  
HETATM   10  O   UNL     1     -11.258  13.689  64.505  1.00  0.00    -0.359 OA 
HETATM   11  OXT UNL     1      -9.881  15.336  63.990  1.00  0.00     1.576 OA 
HETATM   12  O   UNL     1     -12.206  12.557  66.553  1.00  0.00    -0.569 OA 
HETATM   13  CA  UNL     1     -12.551  13.857  68.787  1.00  0.00     0.496 C  
ENDROOT
BRANCH  13  14
HETATM   14  N   UNL     1     -11.714  13.224  69.826  1.00  0.00    -0.409 N  
HETATM   15  H   UNL     1     -11.982  13.362  70.800  1.00  0.00     0.000 HD 
HETATM   16  C   UNL     1     -10.597  12.461  69.570  1.00  0.00     0.395 C  
HETATM   17  O   UNL     1     -10.214  12.196  68.436  1.00  0.00    -0.203 OA 
BRANCH  16  18
HETATM   18  CA  UNL     1      -9.889  11.977  70.861  1.00  0.00     7.285 C  
HETATM   19  H2  UNL     1     -10.039  13.862  71.778  1.00  0.00     0.000 HD 
HETATM   20  N   UNL     1      -9.330  13.153  71.587  1.00  0.00    12.425 NA 
HETATM   21  H1  UNL     1      -8.864  12.835  72.436  1.00  0.00     0.000 HD 
BRANCH  18  22
HETATM   22  C   UNL     1      -8.823  10.941  70.557  1.00  0.00     2.648 A  
HETATM   23  C   UNL     1      -9.109   9.580  70.755  1.00  0.00    -0.176 A  
HETATM   24  C   UNL     1      -8.146   8.602  70.496  1.00  0.00    -0.115 A  
HETATM   25  C   UNL     1      -6.888   8.967  70.026  1.00  0.00    -0.045 A  
HETATM   26  C   UNL     1      -6.593  10.309  69.803  1.00  0.00    -0.090 A  
HETATM   27  C   UNL     1      -7.556  11.290  70.058  1.00  0.00     0.885 A  
ENDBRANCH  18  22
ENDBRANCH  16  18
ENDBRANCH  13  14
TORSDOF 3
ENDMDL
