MODEL        1
REMARK 921   NORMALIZED FREE ENERGY PREDICTED BY IDOCK:   -7.44 KCAL/MOL
REMARK 922        TOTAL FREE ENERGY PREDICTED BY IDOCK:  -11.03 KCAL/MOL
REMARK 923 INTER-LIGAND FREE ENERGY PREDICTED BY IDOCK:  -10.04 KCAL/MOL
REMARK 924 INTRA-LIGAND FREE ENERGY PREDICTED BY IDOCK:   -0.98 KCAL/MOL
REMARK 927      BINDING AFFINITY PREDICTED BY RF-SCORE:    0.00 PKD
ROOT
HETATM    1  C   UNL     1      -8.840  14.956  66.536  1.00  0.00    -0.221 C  
HETATM    2  S   UNL     1      -8.909  14.954  68.336  1.00  0.00    -0.184 SA 
HETATM    3  C   UNL     1      -9.641  13.303  68.413  1.00  0.00    -0.185 C  
HETATM    4  C   UNL     1     -10.886  13.140  67.551  1.00  0.00    -0.269 C  
HETATM    5  O   UNL     1     -12.783  14.571  64.788  1.00  0.00    -0.606 OA 
HETATM    6  CA  UNL     1     -11.093  13.862  66.407  1.00  0.00    -0.309 C  
HETATM    7  N   UNL     1     -10.187  14.810  66.014  1.00  0.00    -0.288 N  
HETATM    8  CA  UNL     1      -8.797  16.351  65.835  1.00  0.00    -0.135 C  
HETATM    9  C   UNL     1     -12.293  13.566  65.534  1.00  0.00    -0.481 C  
HETATM   10  O   UNL     1     -11.042  16.405  64.556  1.00  0.00    -0.742 OA 
HETATM   11  C   UNL     1     -10.174  15.913  65.242  1.00  0.00    -0.251 C  
HETATM   12  OXT UNL     1     -12.786  12.446  65.458  1.00  0.00    -0.530 OA 
ENDROOT
BRANCH   4  13
HETATM   13  C   UNL     1     -11.899  12.103  68.052  1.00  0.00    -0.285 C  
BRANCH  13  14
HETATM   14  S   UNL     1     -11.601  11.359  69.684  1.00  0.00    -0.349 SA 
BRANCH  14  15
HETATM   15  C   UNL     1     -12.481  12.435  70.742  1.00  0.00    -0.267 A  
HETATM   16  N   UNL     1     -13.221  12.009  71.744  1.00  0.00    -0.410 NA 
HETATM   17  S   UNL     1     -12.524  14.131  70.509  1.00  0.00    -0.361 SA 
HETATM   18  N   UNL     1     -13.904  13.035  72.363  1.00  0.00    -0.592 NA 
HETATM   19  C   UNL     1     -14.221  15.497  72.243  1.00  0.00    -0.617 C  
HETATM   20  C   UNL     1     -13.637  14.203  71.815  1.00  0.00    -0.399 A  
ENDBRANCH  14  15
ENDBRANCH  13  14
ENDBRANCH   4  13
BRANCH   8  21
HETATM   21  N   UNL     1      -8.872  17.573  66.701  1.00  0.00    -0.252 N  
HETATM   22  C   UNL     1      -8.077  18.670  66.444  1.00  0.00    -0.281 C  
HETATM   23  H   UNL     1      -9.518  17.592  67.490  1.00  0.00     0.000 HD 
HETATM   24  O   UNL     1      -7.398  18.759  65.424  1.00  0.00    -0.491 OA 
BRANCH  22  25
HETATM   25  C   UNL     1      -8.109  19.751  67.497  1.00  0.00    -0.302 C  
BRANCH  25  26
HETATM   26  N   UNL     1      -7.147  19.500  68.537  1.00  0.00    -0.304 NA 
HETATM   27  C   UNL     1      -6.535  20.379  69.371  1.00  0.00    -0.185 A  
HETATM   28  N   UNL     1      -5.819  19.699  70.237  1.00  0.00    -0.261 NA 
HETATM   29  N   UNL     1      -6.004  18.373  69.920  1.00  0.00    -0.233 NA 
HETATM   30  N   UNL     1      -6.824  18.242  68.887  1.00  0.00    -0.256 NA 
ENDBRANCH  25  26
ENDBRANCH  22  25
ENDBRANCH   8  21
TORSDOF 6
ENDMDL
MODEL        2
REMARK 921   NORMALIZED FREE ENERGY PREDICTED BY IDOCK:   -6.99 KCAL/MOL
REMARK 922        TOTAL FREE ENERGY PREDICTED BY IDOCK:  -10.43 KCAL/MOL
REMARK 923 INTER-LIGAND FREE ENERGY PREDICTED BY IDOCK:   -9.69 KCAL/MOL
REMARK 924 INTRA-LIGAND FREE ENERGY PREDICTED BY IDOCK:   -0.73 KCAL/MOL
REMARK 927      BINDING AFFINITY PREDICTED BY RF-SCORE:    0.00 PKD
ROOT
HETATM    1  C   UNL     1     -11.898  14.942  68.832  1.00  0.00    -0.301 C  
HETATM    2  S   UNL     1     -10.477  15.486  69.794  1.00  0.00    -0.313 SA 
HETATM    3  C   UNL     1     -10.347  17.058  68.912  1.00  0.00    -0.337 C  
HETATM    4  C   UNL     1     -10.296  16.913  67.398  1.00  0.00    -0.309 C  
HETATM    5  O   UNL     1     -10.954  14.653  64.615  1.00  0.00    -0.378 OA 
HETATM    6  CA  UNL     1     -10.887  15.873  66.735  1.00  0.00    -0.228 C  
HETATM    7  N   UNL     1     -11.522  14.880  67.430  1.00  0.00    -0.348 N  
HETATM    8  CA  UNL     1     -12.150  13.401  68.758  1.00  0.00    -0.246 C  
HETATM    9  C   UNL     1     -10.901  15.852  65.221  1.00  0.00    -0.387 C  
HETATM   10  O   UNL     1     -11.769  12.892  66.253  1.00  0.00    -0.358 OA 
HETATM   11  C   UNL     1     -11.875  13.595  67.232  1.00  0.00    -0.391 C  
HETATM   12  OXT UNL     1     -10.914  16.880  64.553  1.00  0.00    -0.989 OA 
ENDROOT
BRANCH   4  13
HETATM   13  C   UNL     1      -9.534  18.020  66.658  1.00  0.00    -0.297 C  
BRANCH  13  14
HETATM   14  S   UNL     1      -7.775  17.730  66.298  1.00  0.00    -0.256 SA 
BRANCH  14  15
HETATM   15  C   UNL     1      -7.013  18.217  67.792  1.00  0.00    -0.212 A  
HETATM   16  N   UNL     1      -6.564  17.357  68.683  1.00  0.00    -0.184 NA 
HETATM   17  S   UNL     1      -6.863  19.857  68.262  1.00  0.00    -0.302 SA 
HETATM   18  N   UNL     1      -6.106  17.979  69.826  1.00  0.00    -0.237 NA 
HETATM   19  C   UNL     1      -5.812  20.241  70.813  1.00  0.00    -0.341 C  
HETATM   20  C   UNL     1      -6.208  19.290  69.746  1.00  0.00    -0.265 A  
ENDBRANCH  14  15
ENDBRANCH  13  14
ENDBRANCH   4  13
BRANCH   8  21
HETATM   21  N   UNL     1     -11.167  12.498  69.440  1.00  0.00    -0.434 N  
HETATM   22  C   UNL     1     -11.285  11.127  69.345  1.00  0.00    -0.270 C  
HETATM   23  H   UNL     1     -10.403  12.902  69.981  1.00  0.00     0.000 HD 
HETATM   24  O   UNL     1     -12.089  10.592  68.584  1.00  0.00    -0.410 OA 
BRANCH  22  25
HETATM   25  C   UNL     1     -10.353  10.336  70.230  1.00  0.00    -0.090 C  
BRANCH  25  26
HETATM   26  N   UNL     1     -11.079   9.570  71.207  1.00  0.00    -0.361 NA 
HETATM   27  C   UNL     1     -10.664   8.518  71.956  1.00  0.00    -0.340 A  
HETATM   28  N   UNL     1     -11.623   8.201  72.795  1.00  0.00    -0.386 NA 
HETATM   29  N   UNL     1     -12.646   9.087  72.550  1.00  0.00    -0.327 NA 
HETATM   30  N   UNL     1     -12.318   9.936  71.585  1.00  0.00    -0.395 NA 
ENDBRANCH  25  26
ENDBRANCH  22  25
ENDBRANCH   8  21
TORSDOF 6
ENDMDL
MODEL        3
REMARK 921   NORMALIZED FREE ENERGY PREDICTED BY IDOCK:   -6.93 KCAL/MOL
REMARK 922        TOTAL FREE ENERGY PREDICTED BY IDOCK:  -10.34 KCAL/MOL
REMARK 923 INTER-LIGAND FREE ENERGY PREDICTED BY IDOCK:   -9.75 KCAL/MOL
REMARK 924 INTRA-LIGAND FREE ENERGY PREDICTED BY IDOCK:   -0.59 KCAL/MOL
REMARK 927      BINDING AFFINITY PREDICTED BY RF-SCORE:    0.00 PKD
ROOT
HETATM    1  C   UNL     1     -11.867  14.363  68.613  1.00  0.00    -0.331 C  
HETATM    2  S   UNL     1     -10.305  13.505  68.355  1.00  0.00    -0.245 SA 
HETATM    3  C   UNL     1     -11.008  11.885  68.742  1.00  0.00    -0.235 C  
HETATM    4  C   UNL     1     -11.752  11.838  70.069  1.00  0.00    -0.386 C  
HETATM    5  O   UNL     1     -13.308  13.866  72.666  1.00  0.00    -0.512 OA 
HETATM    6  CA  UNL     1     -12.371  12.932  70.610  1.00  0.00    -0.302 C  
HETATM    7  N   UNL     1     -12.302  14.146  69.982  1.00  0.00    -0.346 N  
HETATM    8  CA  UNL     1     -11.785  15.885  68.957  1.00  0.00    -0.370 C  
HETATM    9  C   UNL     1     -13.193  12.788  71.872  1.00  0.00    -0.412 C  
HETATM   10  O   UNL     1     -12.716  15.966  71.366  1.00  0.00    -0.464 OA 
HETATM   11  C   UNL     1     -12.424  15.446  70.313  1.00  0.00    -0.374 C  
HETATM   12  OXT UNL     1     -13.782  11.751  72.154  1.00  0.00    -0.251 OA 
ENDROOT
BRANCH   4  13
HETATM   13  C   UNL     1     -11.765  10.471  70.766  1.00  0.00    -0.356 C  
BRANCH  13  14
HETATM   14  S   UNL     1     -10.456   9.290  70.318  1.00  0.00    -0.249 SA 
BRANCH  14  15
HETATM   15  C   UNL     1     -10.663   8.043  71.524  1.00  0.00    -0.227 A  
HETATM   16  N   UNL     1     -10.297   8.191  72.780  1.00  0.00    -0.326 NA 
HETATM   17  S   UNL     1     -11.282   6.490  71.152  1.00  0.00    -0.317 SA 
HETATM   18  N   UNL     1     -10.459   7.033  73.512  1.00  0.00    -0.346 NA 
HETATM   19  C   UNL     1     -11.244   4.687  73.274  1.00  0.00    -0.411 C  
HETATM   20  C   UNL     1     -10.962   6.058  72.783  1.00  0.00    -0.264 A  
ENDBRANCH  14  15
ENDBRANCH  13  14
ENDBRANCH   4  13
BRANCH   8  21
HETATM   21  N   UNL     1     -10.425  16.498  69.099  1.00  0.00    -0.296 N  
HETATM   22  C   UNL     1     -10.084  17.632  68.391  1.00  0.00    -0.368 C  
HETATM   23  H   UNL     1      -9.743  16.072  69.726  1.00  0.00     0.000 HD 
HETATM   24  O   UNL     1     -10.912  18.271  67.745  1.00  0.00    -0.321 OA 
BRANCH  22  25
HETATM   25  C   UNL     1      -8.632  18.034  68.476  1.00  0.00    -0.297 C  
BRANCH  25  26
HETATM   26  N   UNL     1      -8.122  18.437  67.192  1.00  0.00    -0.235 NA 
HETATM   27  C   UNL     1      -8.035  19.679  66.654  1.00  0.00    -0.300 A  
HETATM   28  N   UNL     1      -7.402  19.591  65.507  1.00  0.00    -0.421 NA 
HETATM   29  N   UNL     1      -7.096  18.260  65.347  1.00  0.00    -0.518 NA 
HETATM   30  N   UNL     1      -7.524  17.547  66.380  1.00  0.00    -0.271 NA 
ENDBRANCH  25  26
ENDBRANCH  22  25
ENDBRANCH   8  21
TORSDOF 6
ENDMDL
MODEL        4
REMARK 921   NORMALIZED FREE ENERGY PREDICTED BY IDOCK:   -6.89 KCAL/MOL
REMARK 922        TOTAL FREE ENERGY PREDICTED BY IDOCK:  -10.29 KCAL/MOL
REMARK 923 INTER-LIGAND FREE ENERGY PREDICTED BY IDOCK:   -9.61 KCAL/MOL
REMARK 924 INTRA-LIGAND FREE ENERGY PREDICTED BY IDOCK:   -0.68 KCAL/MOL
REMARK 927      BINDING AFFINITY PREDICTED BY RF-SCORE:    0.00 PKD
ROOT
HETATM    1  C   UNL     1     -10.348  13.621  67.269  1.00  0.00    -0.249 C  
HETATM    2  S   UNL     1      -9.963  12.265  68.389  1.00  0.00    -0.181 SA 
HETATM    3  C   UNL     1      -9.048  11.345  67.130  1.00  0.00    -0.164 C  
HETATM    4  C   UNL     1      -9.820  11.136  65.836  1.00  0.00    -0.275 C  
HETATM    5  O   UNL     1     -12.672  12.275  63.872  1.00  0.00    -0.668 OA 
HETATM    6  CA  UNL     1     -10.778  12.009  65.397  1.00  0.00    -0.287 C  
HETATM    7  N   UNL     1     -11.113  13.104  66.148  1.00  0.00    -0.280 N  
HETATM    8  CA  UNL     1     -11.595  14.494  67.624  1.00  0.00    -0.378 C  
HETATM    9  C   UNL     1     -11.424  11.806  64.043  1.00  0.00    -0.359 C  
HETATM   10  O   UNL     1     -13.201  13.999  65.661  1.00  0.00    -0.634 OA 
HETATM   11  C   UNL     1     -12.162  13.938  66.278  1.00  0.00    -0.461 C  
HETATM   12  OXT UNL     1     -10.831  11.278  63.110  1.00  0.00    -0.255 OA 
ENDROOT
BRANCH   4  13
HETATM   13  C   UNL     1      -9.451   9.873  65.047  1.00  0.00    -0.280 C  
BRANCH  13  14
HETATM   14  S   UNL     1      -8.194   8.774  65.766  1.00  0.00    -0.128 SA 
BRANCH  14  15
HETATM   15  C   UNL     1      -9.164   7.701  66.745  1.00  0.00    -0.160 A  
HETATM   16  N   UNL     1     -10.473   7.606  66.625  1.00  0.00    -0.236 NA 
HETATM   17  S   UNL     1      -8.504   6.747  68.005  1.00  0.00    -0.119 SA 
HETATM   18  N   UNL     1     -11.026   6.778  67.579  1.00  0.00    -0.308 NA 
HETATM   19  C   UNL     1     -10.386   5.346  69.506  1.00  0.00    -0.350 C  
HETATM   20  C   UNL     1     -10.111   6.264  68.374  1.00  0.00    -0.157 A  
ENDBRANCH  14  15
ENDBRANCH  13  14
ENDBRANCH   4  13
BRANCH   8  21
HETATM   21  N   UNL     1     -12.402  14.105  68.827  1.00  0.00    -0.547 N  
HETATM   22  C   UNL     1     -12.064  14.567  70.082  1.00  0.00    -0.334 C  
HETATM   23  H   UNL     1     -13.209  13.492  68.715  1.00  0.00     0.000 HD 
HETATM   24  O   UNL     1     -11.201  15.426  70.251  1.00  0.00    -0.259 OA 
BRANCH  22  25
HETATM   25  C   UNL     1     -12.835  13.952  71.225  1.00  0.00    -0.360 C  
BRANCH  25  26
HETATM   26  N   UNL     1     -12.841  14.813  72.377  1.00  0.00    -0.328 NA 
HETATM   27  C   UNL     1     -13.731  15.776  72.726  1.00  0.00    -0.560 A  
HETATM   28  N   UNL     1     -13.405  16.232  73.913  1.00  0.00    -0.522 NA 
HETATM   29  N   UNL     1     -12.290  15.525  74.296  1.00  0.00    -0.664 NA 
HETATM   30  N   UNL     1     -11.943  14.645  73.365  1.00  0.00    -0.110 NA 
ENDBRANCH  25  26
ENDBRANCH  22  25
ENDBRANCH   8  21
TORSDOF 6
ENDMDL
MODEL        5
REMARK 921   NORMALIZED FREE ENERGY PREDICTED BY IDOCK:   -6.88 KCAL/MOL
REMARK 922        TOTAL FREE ENERGY PREDICTED BY IDOCK:  -10.28 KCAL/MOL
REMARK 923 INTER-LIGAND FREE ENERGY PREDICTED BY IDOCK:   -9.59 KCAL/MOL
REMARK 924 INTRA-LIGAND FREE ENERGY PREDICTED BY IDOCK:   -0.70 KCAL/MOL
REMARK 927      BINDING AFFINITY PREDICTED BY RF-SCORE:    0.00 PKD
ROOT
HETATM    1  C   UNL     1     -11.833  14.389  68.544  1.00  0.00    -0.334 C  
HETATM    2  S   UNL     1     -10.327  13.441  68.267  1.00  0.00    -0.252 SA 
HETATM    3  C   UNL     1     -11.116  11.867  68.679  1.00  0.00    -0.246 C  
HETATM    4  C   UNL     1     -11.839  11.872  70.018  1.00  0.00    -0.407 C  
HETATM    5  O   UNL     1     -13.232  14.005  72.624  1.00  0.00    -0.476 OA 
HETATM    6  CA  UNL     1     -12.384  13.003  70.560  1.00  0.00    -0.287 C  
HETATM    7  N   UNL     1     -12.257  14.207  69.921  1.00  0.00    -0.346 N  
HETATM    8  CA  UNL     1     -11.658  15.906  68.874  1.00  0.00    -0.388 C  
HETATM    9  C   UNL     1     -13.193  12.916  71.837  1.00  0.00    -0.423 C  
HETATM   10  O   UNL     1     -12.542  16.057  71.298  1.00  0.00    -0.428 OA 
HETATM   11  C   UNL     1     -12.298  15.514  70.244  1.00  0.00    -0.396 C  
HETATM   12  OXT UNL     1     -13.835  11.916  72.136  1.00  0.00    -0.137 OA 
ENDROOT
BRANCH   4  13
HETATM   13  C   UNL     1     -11.918  10.513  70.726  1.00  0.00    -0.370 C  
BRANCH  13  14
HETATM   14  S   UNL     1     -10.387   9.540  70.846  1.00  0.00    -0.271 SA 
BRANCH  14  15
HETATM   15  C   UNL     1     -10.730   8.188  69.795  1.00  0.00    -0.229 A  
HETATM   16  N   UNL     1     -11.321   7.087  70.211  1.00  0.00    -0.296 NA 
HETATM   17  S   UNL     1     -10.247   8.147  68.152  1.00  0.00    -0.206 SA 
HETATM   18  N   UNL     1     -11.383   6.123  69.226  1.00  0.00    -0.392 NA 
HETATM   19  C   UNL     1     -10.753   5.736  66.853  1.00  0.00    -0.381 C  
HETATM   20  C   UNL     1     -10.851   6.541  68.096  1.00  0.00    -0.295 A  
ENDBRANCH  14  15
ENDBRANCH  13  14
ENDBRANCH   4  13
BRANCH   8  21
HETATM   21  N   UNL     1     -10.262  16.441  68.989  1.00  0.00    -0.252 N  
HETATM   22  C   UNL     1      -9.906  17.622  68.372  1.00  0.00    -0.334 C  
HETATM   23  H   UNL     1      -9.568  15.926  69.530  1.00  0.00     0.000 HD 
HETATM   24  O   UNL     1     -10.736  18.357  67.841  1.00  0.00    -0.392 OA 
BRANCH  22  25
HETATM   25  C   UNL     1      -8.433  17.949  68.405  1.00  0.00    -0.297 C  
BRANCH  25  26
HETATM   26  N   UNL     1      -7.998  18.539  67.167  1.00  0.00    -0.238 NA 
HETATM   27  C   UNL     1      -7.838  19.848  66.849  1.00  0.00    -0.298 A  
HETATM   28  N   UNL     1      -7.316  19.923  65.647  1.00  0.00    -0.320 NA 
HETATM   29  N   UNL     1      -7.153  18.624  65.226  1.00  0.00    -0.481 NA 
HETATM   30  N   UNL     1      -7.558  17.769  66.155  1.00  0.00    -0.412 NA 
ENDBRANCH  25  26
ENDBRANCH  22  25
ENDBRANCH   8  21
TORSDOF 6
ENDMDL
MODEL        6
REMARK 921   NORMALIZED FREE ENERGY PREDICTED BY IDOCK:   -6.83 KCAL/MOL
REMARK 922        TOTAL FREE ENERGY PREDICTED BY IDOCK:  -10.21 KCAL/MOL
REMARK 923 INTER-LIGAND FREE ENERGY PREDICTED BY IDOCK:   -9.59 KCAL/MOL
REMARK 924 INTRA-LIGAND FREE ENERGY PREDICTED BY IDOCK:   -0.62 KCAL/MOL
REMARK 927      BINDING AFFINITY PREDICTED BY RF-SCORE:    0.00 PKD
ROOT
HETATM    1  C   UNL     1     -11.889  13.855  67.656  1.00  0.00    -0.386 C  
HETATM    2  S   UNL     1     -10.482  12.802  67.262  1.00  0.00    -0.233 SA 
HETATM    3  C   UNL     1     -11.232  11.338  68.012  1.00  0.00    -0.287 C  
HETATM    4  C   UNL     1     -11.712  11.553  69.440  1.00  0.00    -0.413 C  
HETATM    5  O   UNL     1     -12.571  14.075  71.927  1.00  0.00    -0.317 OA 
HETATM    6  CA  UNL     1     -12.123  12.772  69.906  1.00  0.00    -0.259 C  
HETATM    7  N   UNL     1     -12.073  13.875  69.096  1.00  0.00    -0.356 N  
HETATM    8  CA  UNL     1     -11.617  15.391  67.741  1.00  0.00    -0.228 C  
HETATM    9  C   UNL     1     -12.700  12.893  71.300  1.00  0.00    -0.278 C  
HETATM   10  O   UNL     1     -12.063  15.900  70.235  1.00  0.00    -0.353 OA 
HETATM   11  C   UNL     1     -12.021  15.213  69.240  1.00  0.00    -0.292 C  
HETATM   12  OXT UNL     1     -13.309  11.975  71.837  1.00  0.00    -0.456 OA 
ENDROOT
BRANCH   4  13
HETATM   13  C   UNL     1     -11.707  10.304  70.330  1.00  0.00    -0.306 C  
BRANCH  13  14
HETATM   14  S   UNL     1     -10.306   9.157  70.156  1.00  0.00    -0.229 SA 
BRANCH  14  15
HETATM   15  C   UNL     1     -10.650   7.971  71.392  1.00  0.00    -0.216 A  
HETATM   16  N   UNL     1     -10.600   8.241  72.680  1.00  0.00    -0.337 NA 
HETATM   17  S   UNL     1     -10.998   6.333  71.031  1.00  0.00    -0.296 SA 
HETATM   18  N   UNL     1     -10.802   7.120  73.457  1.00  0.00    -0.336 NA 
HETATM   19  C   UNL     1     -11.256   4.684  73.261  1.00  0.00    -0.411 C  
HETATM   20  C   UNL     1     -11.017   6.047  72.725  1.00  0.00    -0.264 A  
ENDBRANCH  14  15
ENDBRANCH  13  14
ENDBRANCH   4  13
BRANCH   8  21
HETATM   21  N   UNL     1     -10.207  15.863  67.547  1.00  0.00    -0.263 N  
HETATM   22  C   UNL     1      -9.786  16.343  66.324  1.00  0.00    -0.308 C  
HETATM   23  H   UNL     1      -9.552  15.829  68.328  1.00  0.00     0.000 HD 
HETATM   24  O   UNL     1     -10.569  16.549  65.399  1.00  0.00    -0.509 OA 
BRANCH  22  25
HETATM   25  C   UNL     1      -8.304  16.603  66.208  1.00  0.00    -0.325 C  
BRANCH  25  26
HETATM   26  N   UNL     1      -8.029  18.005  66.037  1.00  0.00    -0.519 NA 
HETATM   27  C   UNL     1      -8.621  19.075  66.627  1.00  0.00    -0.313 A  
HETATM   28  N   UNL     1      -7.977  20.159  66.261  1.00  0.00    -0.277 NA 
HETATM   29  N   UNL     1      -6.968  19.735  65.429  1.00  0.00    -0.318 NA 
HETATM   30  N   UNL     1      -6.985  18.416  65.295  1.00  0.00    -0.503 NA 
ENDBRANCH  25  26
ENDBRANCH  22  25
ENDBRANCH   8  21
TORSDOF 6
ENDMDL
MODEL        7
REMARK 921   NORMALIZED FREE ENERGY PREDICTED BY IDOCK:   -6.73 KCAL/MOL
REMARK 922        TOTAL FREE ENERGY PREDICTED BY IDOCK:  -10.07 KCAL/MOL
REMARK 923 INTER-LIGAND FREE ENERGY PREDICTED BY IDOCK:   -9.34 KCAL/MOL
REMARK 924 INTRA-LIGAND FREE ENERGY PREDICTED BY IDOCK:   -0.73 KCAL/MOL
REMARK 927      BINDING AFFINITY PREDICTED BY RF-SCORE:    0.00 PKD
ROOT
HETATM    1  C   UNL     1      -8.876  15.143  66.420  1.00  0.00    -0.242 C  
HETATM    2  S   UNL     1      -8.932  15.051  68.217  1.00  0.00    -0.179 SA 
HETATM    3  C   UNL     1      -9.479  13.328  68.219  1.00  0.00    -0.209 C  
HETATM    4  C   UNL     1     -10.704  13.070  67.354  1.00  0.00    -0.256 C  
HETATM    5  O   UNL     1     -12.767  14.410  64.664  1.00  0.00    -0.655 OA 
HETATM    6  CA  UNL     1     -10.997  13.817  66.245  1.00  0.00    -0.297 C  
HETATM    7  N   UNL     1     -10.203  14.875  65.894  1.00  0.00    -0.294 N  
HETATM    8  CA  UNL     1      -8.990  16.565  65.783  1.00  0.00     0.029 C  
HETATM    9  C   UNL     1     -12.165  13.432  65.362  1.00  0.00    -0.452 C  
HETATM   10  O   UNL     1     -11.237  16.432  64.514  1.00  0.00    -0.697 OA 
HETATM   11  C   UNL     1     -10.316  16.007  65.174  1.00  0.00    -0.215 C  
HETATM   12  OXT UNL     1     -12.533  12.270  65.235  1.00  0.00    -0.585 OA 
ENDROOT
BRANCH   4  13
HETATM   13  C   UNL     1     -11.595  11.907  67.808  1.00  0.00    -0.323 C  
BRANCH  13  14
HETATM   14  S   UNL     1     -10.867  10.240  67.801  1.00  0.00    -0.292 SA 
BRANCH  14  15
HETATM   15  C   UNL     1     -11.132   9.720  69.447  1.00  0.00    -0.170 A  
HETATM   16  N   UNL     1     -11.766  10.453  70.339  1.00  0.00    -0.305 NA 
HETATM   17  S   UNL     1     -10.511   8.247  70.063  1.00  0.00    -0.233 SA 
HETATM   18  N   UNL     1     -11.752   9.879  71.593  1.00  0.00    -0.338 NA 
HETATM   19  C   UNL     1     -10.925   7.864  72.790  1.00  0.00    -0.456 C  
HETATM   20  C   UNL     1     -11.122   8.722  71.596  1.00  0.00    -0.327 A  
ENDBRANCH  14  15
ENDBRANCH  13  14
ENDBRANCH   4  13
BRANCH   8  21
HETATM   21  N   UNL     1      -9.192  17.730  66.706  1.00  0.00    -0.265 N  
HETATM   22  C   UNL     1      -8.534  18.924  66.489  1.00  0.00    -0.304 C  
HETATM   23  H   UNL     1      -9.822  17.639  67.503  1.00  0.00     0.000 HD 
HETATM   24  O   UNL     1      -7.889  19.136  65.465  1.00  0.00    -0.401 OA 
BRANCH  22  25
HETATM   25  C   UNL     1      -8.673  19.946  67.591  1.00  0.00    -0.334 C  
BRANCH  25  26
HETATM   26  N   UNL     1      -7.411  20.205  68.230  1.00  0.00    -0.260 NA 
HETATM   27  C   UNL     1      -6.828  19.562  69.273  1.00  0.00    -0.346 A  
HETATM   28  N   UNL     1      -5.627  20.063  69.451  1.00  0.00    -0.234 NA 
HETATM   29  N   UNL     1      -5.478  21.034  68.489  1.00  0.00    -0.332 NA 
HETATM   30  N   UNL     1      -6.561  21.120  67.729  1.00  0.00    -0.365 NA 
ENDBRANCH  25  26
ENDBRANCH  22  25
ENDBRANCH   8  21
TORSDOF 6
ENDMDL
MODEL        8
REMARK 921   NORMALIZED FREE ENERGY PREDICTED BY IDOCK:   -6.72 KCAL/MOL
REMARK 922        TOTAL FREE ENERGY PREDICTED BY IDOCK:  -10.06 KCAL/MOL
REMARK 923 INTER-LIGAND FREE ENERGY PREDICTED BY IDOCK:   -9.04 KCAL/MOL
REMARK 924 INTRA-LIGAND FREE ENERGY PREDICTED BY IDOCK:   -1.02 KCAL/MOL
REMARK 927      BINDING AFFINITY PREDICTED BY RF-SCORE:    0.00 PKD
ROOT
HETATM    1  C   UNL     1     -11.906  14.529  68.643  1.00  0.00    -0.320 C  
HETATM    2  S   UNL     1     -10.368  13.653  68.310  1.00  0.00    -0.254 SA 
HETATM    3  C   UNL     1     -11.091  12.033  68.659  1.00  0.00    -0.250 C  
HETATM    4  C   UNL     1     -11.799  11.951  70.004  1.00  0.00    -0.407 C  
HETATM    5  O   UNL     1     -13.242  13.913  72.716  1.00  0.00    -0.515 OA 
HETATM    6  CA  UNL     1     -12.380  13.036  70.601  1.00  0.00    -0.310 C  
HETATM    7  N   UNL     1     -12.306  14.271  70.015  1.00  0.00    -0.345 N  
HETATM    8  CA  UNL     1     -11.785  16.036  69.038  1.00  0.00    -0.318 C  
HETATM    9  C   UNL     1     -13.170  12.862  71.881  1.00  0.00    -0.423 C  
HETATM   10  O   UNL     1     -12.646  16.047  71.474  1.00  0.00    -0.447 OA 
HETATM   11  C   UNL     1     -12.394  15.560  70.396  1.00  0.00    -0.413 C  
HETATM   12  OXT UNL     1     -13.770  11.826  72.142  1.00  0.00    -0.251 OA 
ENDROOT
BRANCH   4  13
HETATM   13  C   UNL     1     -11.818  10.561  70.652  1.00  0.00    -0.360 C  
BRANCH  13  14
HETATM   14  S   UNL     1     -10.399   9.468  70.335  1.00  0.00    -0.296 SA 
BRANCH  14  15
HETATM   15  C   UNL     1     -10.601   8.243  71.563  1.00  0.00    -0.235 A  
HETATM   16  N   UNL     1     -10.107   8.356  72.779  1.00  0.00    -0.260 NA 
HETATM   17  S   UNL     1     -11.385   6.751  71.261  1.00  0.00    -0.306 SA 
HETATM   18  N   UNL     1     -10.302   7.216  73.530  1.00  0.00    -0.342 NA 
HETATM   19  C   UNL     1     -11.307   4.948  73.382  1.00  0.00    -0.379 C  
HETATM   20  C   UNL     1     -10.953   6.290  72.858  1.00  0.00    -0.254 A  
ENDBRANCH  14  15
ENDBRANCH  13  14
ENDBRANCH   4  13
BRANCH   8  21
HETATM   21  N   UNL     1     -10.409  16.619  69.163  1.00  0.00    -0.307 N  
HETATM   22  C   UNL     1     -10.021  17.685  68.378  1.00  0.00    -0.356 C  
HETATM   23  H   UNL     1      -9.753  16.223  69.836  1.00  0.00     0.000 HD 
HETATM   24  O   UNL     1     -10.816  18.296  67.667  1.00  0.00    -0.396 OA 
BRANCH  22  25
HETATM   25  C   UNL     1      -8.559  18.050  68.464  1.00  0.00    -0.297 C  
BRANCH  25  26
HETATM   26  N   UNL     1      -7.717  16.922  68.165  1.00  0.00    -0.181 NA 
HETATM   27  C   UNL     1      -7.112  16.587  66.997  1.00  0.00    -0.212 A  
HETATM   28  N   UNL     1      -6.350  15.539  67.210  1.00  0.00    -0.320 NA 
HETATM   29  N   UNL     1      -6.495  15.233  68.543  1.00  0.00    -0.089 NA 
HETATM   30  N   UNL     1      -7.323  16.081  69.138  1.00  0.00    -0.198 NA 
ENDBRANCH  25  26
ENDBRANCH  22  25
ENDBRANCH   8  21
TORSDOF 6
ENDMDL
MODEL        9
REMARK 921   NORMALIZED FREE ENERGY PREDICTED BY IDOCK:   -6.61 KCAL/MOL
REMARK 922        TOTAL FREE ENERGY PREDICTED BY IDOCK:   -9.91 KCAL/MOL
REMARK 923 INTER-LIGAND FREE ENERGY PREDICTED BY IDOCK:   -9.07 KCAL/MOL
REMARK 924 INTRA-LIGAND FREE ENERGY PREDICTED BY IDOCK:   -0.84 KCAL/MOL
REMARK 927      BINDING AFFINITY PREDICTED BY RF-SCORE:    0.00 PKD
ROOT
HETATM    1  C   UNL     1     -12.053  13.790  68.589  1.00  0.00    -0.298 C  
HETATM    2  S   UNL     1     -11.086  14.643  69.846  1.00  0.00    -0.154 SA 
HETATM    3  C   UNL     1     -11.309  16.261  69.072  1.00  0.00    -0.301 C  
HETATM    4  C   UNL     1     -10.935  16.295  67.597  1.00  0.00    -0.245 C  
HETATM    5  O   UNL     1     -10.304  14.241  64.653  1.00  0.00    -0.417 OA 
HETATM    6  CA  UNL     1     -11.026  15.197  66.786  1.00  0.00    -0.321 C  
HETATM    7  N   UNL     1     -11.424  13.991  67.295  1.00  0.00    -0.330 N  
HETATM    8  CA  UNL     1     -11.777  12.263  68.405  1.00  0.00    -0.337 C  
HETATM    9  C   UNL     1     -10.752  15.329  65.302  1.00  0.00    -0.415 C  
HETATM   10  O   UNL     1     -10.796  12.156  66.017  1.00  0.00    -0.263 OA 
HETATM   11  C   UNL     1     -11.302  12.688  66.979  1.00  0.00    -0.323 C  
HETATM   12  OXT UNL     1     -10.972  16.366  64.687  1.00  0.00    -0.707 OA 
ENDROOT
BRANCH   4  13
HETATM   13  C   UNL     1     -10.447  17.653  67.074  1.00  0.00    -0.305 C  
BRANCH  13  14
HETATM   14  S   UNL     1      -9.370  18.633  68.164  1.00  0.00    -0.331 SA 
BRANCH  14  15
HETATM   15  C   UNL     1      -8.059  19.060  67.093  1.00  0.00    -0.264 A  
HETATM   16  N   UNL     1      -7.724  20.307  66.830  1.00  0.00    -0.308 NA 
HETATM   17  S   UNL     1      -7.154  17.893  66.225  1.00  0.00    -0.311 SA 
HETATM   18  N   UNL     1      -6.734  20.391  65.873  1.00  0.00    -0.238 NA 
HETATM   19  C   UNL     1      -5.306  18.954  64.433  1.00  0.00    -0.264 C  
HETATM   20  C   UNL     1      -6.345  19.202  65.463  1.00  0.00    -0.255 A  
ENDBRANCH  14  15
ENDBRANCH  13  14
ENDBRANCH   4  13
BRANCH   8  21
HETATM   21  N   UNL     1     -10.700  11.641  69.242  1.00  0.00    -0.409 N  
HETATM   22  C   UNL     1     -10.372  10.309  69.094  1.00  0.00    -0.223 C  
HETATM   23  H   UNL     1     -10.204  12.209  69.929  1.00  0.00     0.000 HD 
HETATM   24  O   UNL     1     -10.827   9.623  68.181  1.00  0.00    -0.237 OA 
BRANCH  22  25
HETATM   25  C   UNL     1      -9.412   9.762  70.122  1.00  0.00    -0.229 C  
BRANCH  25  26
HETATM   26  N   UNL     1     -10.108   9.072  71.175  1.00  0.00    -0.268 NA 
HETATM   27  C   UNL     1      -9.606   8.320  72.187  1.00  0.00    -0.268 A  
HETATM   28  N   UNL     1     -10.595   7.976  72.979  1.00  0.00    -0.334 NA 
HETATM   29  N   UNL     1     -11.726   8.536  72.433  1.00  0.00    -0.377 NA 
HETATM   30  N   UNL     1     -11.436   9.218  71.334  1.00  0.00    -0.339 NA 
ENDBRANCH  25  26
ENDBRANCH  22  25
ENDBRANCH   8  21
TORSDOF 6
ENDMDL
MODEL       10
REMARK 921   NORMALIZED FREE ENERGY PREDICTED BY IDOCK:   -6.60 KCAL/MOL
REMARK 922        TOTAL FREE ENERGY PREDICTED BY IDOCK:   -9.89 KCAL/MOL
REMARK 923 INTER-LIGAND FREE ENERGY PREDICTED BY IDOCK:   -9.10 KCAL/MOL
REMARK 924 INTRA-LIGAND FREE ENERGY PREDICTED BY IDOCK:   -0.79 KCAL/MOL
REMARK 927      BINDING AFFINITY PREDICTED BY RF-SCORE:    0.00 PKD
ROOT
HETATM    1  C   UNL     1      -9.051  15.211  66.417  1.00  0.00    -0.296 C  
HETATM    2  S   UNL     1      -9.133  15.213  68.216  1.00  0.00    -0.189 SA 
HETATM    3  C   UNL     1      -9.732  13.509  68.297  1.00  0.00    -0.224 C  
HETATM    4  C   UNL     1     -10.952  13.243  67.427  1.00  0.00    -0.287 C  
HETATM    5  O   UNL     1     -12.937  14.504  64.643  1.00  0.00    -0.550 OA 
HETATM    6  CA  UNL     1     -11.208  13.940  66.278  1.00  0.00    -0.309 C  
HETATM    7  N   UNL     1     -10.378  14.955  65.886  1.00  0.00    -0.295 N  
HETATM    8  CA  UNL     1      -9.114  16.602  65.708  1.00  0.00     0.033 C  
HETATM    9  C   UNL     1     -12.374  13.545  65.398  1.00  0.00    -0.478 C  
HETATM   10  O   UNL     1     -11.346  16.470  64.414  1.00  0.00    -0.921 OA 
HETATM   11  C   UNL     1     -10.447  16.053  65.108  1.00  0.00    -0.303 C  
HETATM   12  OXT UNL     1     -12.775  12.389  65.324  1.00  0.00    -0.617 OA 
ENDROOT
BRANCH   4  13
HETATM   13  C   UNL     1     -11.884  12.131  67.927  1.00  0.00    -0.269 C  
BRANCH  13  14
HETATM   14  S   UNL     1     -11.180  10.891  69.056  1.00  0.00    -0.291 SA 
BRANCH  14  15
HETATM   15  C   UNL     1     -10.547   9.703  67.943  1.00  0.00    -0.255 A  
HETATM   16  N   UNL     1     -10.361   9.946  66.662  1.00  0.00    -0.224 NA 
HETATM   17  S   UNL     1     -10.198   8.092  68.410  1.00  0.00    -0.203 SA 
HETATM   18  N   UNL     1      -9.959   8.822  65.970  1.00  0.00    -0.197 NA 
HETATM   19  C   UNL     1      -9.436   6.418  66.319  1.00  0.00    -0.133 C  
HETATM   20  C   UNL     1      -9.839   7.776  66.760  1.00  0.00    -0.241 A  
ENDBRANCH  14  15
ENDBRANCH  13  14
ENDBRANCH   4  13
BRANCH   8  21
HETATM   21  N   UNL     1      -9.293  17.818  66.568  1.00  0.00    -0.279 N  
HETATM   22  C   UNL     1      -8.508  18.937  66.379  1.00  0.00    -0.293 C  
HETATM   23  H   UNL     1     -10.003  17.818  67.300  1.00  0.00     0.000 HD 
HETATM   24  O   UNL     1      -7.749  19.048  65.419  1.00  0.00    -0.362 OA 
BRANCH  22  25
HETATM   25  C   UNL     1      -8.656  20.013  67.428  1.00  0.00    -0.341 C  
BRANCH  25  26
HETATM   26  N   UNL     1      -7.449  20.169  68.194  1.00  0.00    -0.267 NA 
HETATM   27  C   UNL     1      -6.403  21.008  67.988  1.00  0.00    -0.311 A  
HETATM   28  N   UNL     1      -5.571  20.891  68.997  1.00  0.00    -0.367 NA 
HETATM   29  N   UNL     1      -6.129  19.957  69.838  1.00  0.00    -0.315 NA 
HETATM   30  N   UNL     1      -7.285  19.517  69.360  1.00  0.00    -0.316 NA 
ENDBRANCH  25  26
ENDBRANCH  22  25
ENDBRANCH   8  21
TORSDOF 6
ENDMDL
MODEL       11
REMARK 921   NORMALIZED FREE ENERGY PREDICTED BY IDOCK:   -6.51 KCAL/MOL
REMARK 922        TOTAL FREE ENERGY PREDICTED BY IDOCK:   -9.78 KCAL/MOL
REMARK 923 INTER-LIGAND FREE ENERGY PREDICTED BY IDOCK:   -8.92 KCAL/MOL
REMARK 924 INTRA-LIGAND FREE ENERGY PREDICTED BY IDOCK:   -0.86 KCAL/MOL
REMARK 927      BINDING AFFINITY PREDICTED BY RF-SCORE:    0.00 PKD
ROOT
HETATM    1  C   UNL     1     -11.941  14.710  68.560  1.00  0.00    -0.263 C  
HETATM    2  S   UNL     1     -10.589  15.346  69.564  1.00  0.00    -0.287 SA 
HETATM    3  C   UNL     1     -10.580  16.949  68.728  1.00  0.00    -0.355 C  
HETATM    4  C   UNL     1     -10.491  16.852  67.211  1.00  0.00    -0.301 C  
HETATM    5  O   UNL     1     -10.902  14.623  64.357  1.00  0.00    -0.259 OA 
HETATM    6  CA  UNL     1     -10.978  15.783  66.509  1.00  0.00    -0.165 C  
HETATM    7  N   UNL     1     -11.536  14.720  67.165  1.00  0.00    -0.374 N  
HETATM    8  CA  UNL     1     -12.058  13.156  68.439  1.00  0.00    -0.181 C  
HETATM    9  C   UNL     1     -10.964  15.804  64.995  1.00  0.00    -0.417 C  
HETATM   10  O   UNL     1     -11.590  12.753  65.930  1.00  0.00    -0.340 OA 
HETATM   11  C   UNL     1     -11.773  13.416  66.925  1.00  0.00    -0.389 C  
HETATM   12  OXT UNL     1     -11.054  16.846  64.355  1.00  0.00    -1.128 OA 
ENDROOT
BRANCH   4  13
HETATM   13  C   UNL     1      -9.814  18.040  66.516  1.00  0.00    -0.353 C  
BRANCH  13  14
HETATM   14  S   UNL     1      -8.031  17.914  66.185  1.00  0.00    -0.147 SA 
BRANCH  14  15
HETATM   15  C   UNL     1      -7.440  17.165  67.649  1.00  0.00    -0.169 A  
HETATM   16  N   UNL     1      -7.198  17.841  68.753  1.00  0.00    -0.266 NA 
HETATM   17  S   UNL     1      -7.045  15.502  67.742  1.00  0.00    -0.177 SA 
HETATM   18  N   UNL     1      -6.635  17.052  69.735  1.00  0.00    -0.128 NA 
HETATM   19  C   UNL     1      -5.908  14.714  70.159  1.00  0.00    -0.139 C  
HETATM   20  C   UNL     1      -6.492  15.804  69.340  1.00  0.00    -0.165 A  
ENDBRANCH  14  15
ENDBRANCH  13  14
ENDBRANCH   4  13
BRANCH   8  21
HETATM   21  N   UNL     1     -11.012  12.321  69.117  1.00  0.00    -0.394 N  
HETATM   22  C   UNL     1     -10.999  10.950  68.968  1.00  0.00    -0.235 C  
HETATM   23  H   UNL     1     -10.303  12.773  69.694  1.00  0.00     0.000 HD 
HETATM   24  O   UNL     1     -11.730  10.374  68.165  1.00  0.00    -0.363 OA 
BRANCH  22  25
HETATM   25  C   UNL     1     -10.019  10.215  69.850  1.00  0.00    -0.203 C  
BRANCH  25  26
HETATM   26  N   UNL     1     -10.694   9.488  70.892  1.00  0.00    -0.310 NA 
HETATM   27  C   UNL     1     -10.176   8.669  71.842  1.00  0.00    -0.334 A  
HETATM   28  N   UNL     1     -11.145   8.310  72.653  1.00  0.00    -0.367 NA 
HETATM   29  N   UNL     1     -12.279   8.930  72.184  1.00  0.00    -0.369 NA 
HETATM   30  N   UNL     1     -12.010   9.662  71.111  1.00  0.00    -0.341 NA 
ENDBRANCH  25  26
ENDBRANCH  22  25
ENDBRANCH   8  21
TORSDOF 6
ENDMDL
MODEL       12
REMARK 921   NORMALIZED FREE ENERGY PREDICTED BY IDOCK:   -6.51 KCAL/MOL
REMARK 922        TOTAL FREE ENERGY PREDICTED BY IDOCK:   -9.77 KCAL/MOL
REMARK 923 INTER-LIGAND FREE ENERGY PREDICTED BY IDOCK:   -8.70 KCAL/MOL
REMARK 924 INTRA-LIGAND FREE ENERGY PREDICTED BY IDOCK:   -1.08 KCAL/MOL
REMARK 927      BINDING AFFINITY PREDICTED BY RF-SCORE:    0.00 PKD
ROOT
HETATM    1  C   UNL     1     -11.820  13.983  68.539  1.00  0.00    -0.364 C  
HETATM    2  S   UNL     1     -10.654  12.611  68.507  1.00  0.00    -0.230 SA 
HETATM    3  C   UNL     1     -11.803  11.477  69.320  1.00  0.00    -0.348 C  
HETATM    4  C   UNL     1     -12.388  12.017  70.617  1.00  0.00    -0.394 C  
HETATM    5  O   UNL     1     -12.939  15.032  72.589  1.00  0.00    -0.339 OA 
HETATM    6  CA  UNL     1     -12.562  13.354  70.850  1.00  0.00    -0.327 C  
HETATM    7  N   UNL     1     -12.165  14.275  69.919  1.00  0.00    -0.341 N  
HETATM    8  CA  UNL     1     -11.216  15.422  68.461  1.00  0.00    -0.318 C  
HETATM    9  C   UNL     1     -13.258  13.817  72.112  1.00  0.00    -0.447 C  
HETATM   10  O   UNL     1     -11.828  16.411  70.768  1.00  0.00    -0.216 OA 
HETATM   11  C   UNL     1     -11.826  15.578  69.891  1.00  0.00    -0.362 C  
HETATM   12  OXT UNL     1     -14.121  13.145  72.666  1.00  0.00    -0.701 OA 
ENDROOT
BRANCH   4  13
HETATM   13  C   UNL     1     -12.774  10.955  71.655  1.00  0.00    -0.393 C  
BRANCH  13  14
HETATM   14  S   UNL     1     -12.768   9.217  71.119  1.00  0.00    -0.189 SA 
BRANCH  14  15
HETATM   15  C   UNL     1     -11.346   8.594  71.919  1.00  0.00    -0.347 A  
HETATM   16  N   UNL     1     -11.403   7.775  72.949  1.00  0.00    -0.390 NA 
HETATM   17  S   UNL     1      -9.758   9.067  71.485  1.00  0.00    -0.254 SA 
HETATM   18  N   UNL     1     -10.156   7.511  73.476  1.00  0.00    -0.330 NA 
HETATM   19  C   UNL     1      -7.755   8.056  73.135  1.00  0.00    -0.198 C  
HETATM   20  C   UNL     1      -9.201   8.127  72.810  1.00  0.00    -0.271 A  
ENDBRANCH  14  15
ENDBRANCH  13  14
ENDBRANCH   4  13
BRANCH   8  21
HETATM   21  N   UNL     1      -9.722  15.553  68.423  1.00  0.00    -0.200 N  
HETATM   22  C   UNL     1      -9.059  15.716  67.224  1.00  0.00    -0.205 C  
HETATM   23  H   UNL     1      -9.191  15.520  69.293  1.00  0.00     0.000 HD 
HETATM   24  O   UNL     1      -9.657  15.917  66.170  1.00  0.00    -0.281 OA 
BRANCH  22  25
HETATM   25  C   UNL     1      -7.554  15.642  67.305  1.00  0.00    -0.214 C  
BRANCH  25  26
HETATM   26  N   UNL     1      -7.026  16.635  68.202  1.00  0.00    -0.148 NA 
HETATM   27  C   UNL     1      -5.862  16.631  68.899  1.00  0.00    -0.143 A  
HETATM   28  N   UNL     1      -5.736  17.790  69.503  1.00  0.00    -0.218 NA 
HETATM   29  N   UNL     1      -6.851  18.517  69.160  1.00  0.00    -0.270 NA 
HETATM   30  N   UNL     1      -7.643  17.821  68.355  1.00  0.00    -0.260 NA 
ENDBRANCH  25  26
ENDBRANCH  22  25
ENDBRANCH   8  21
TORSDOF 6
ENDMDL
MODEL       13
REMARK 921   NORMALIZED FREE ENERGY PREDICTED BY IDOCK:   -6.48 KCAL/MOL
REMARK 922        TOTAL FREE ENERGY PREDICTED BY IDOCK:   -9.74 KCAL/MOL
REMARK 923 INTER-LIGAND FREE ENERGY PREDICTED BY IDOCK:   -8.85 KCAL/MOL
REMARK 924 INTRA-LIGAND FREE ENERGY PREDICTED BY IDOCK:   -0.89 KCAL/MOL
REMARK 927      BINDING AFFINITY PREDICTED BY RF-SCORE:    0.00 PKD
ROOT
HETATM    1  C   UNL     1     -11.859  13.889  67.766  1.00  0.00    -0.380 C  
HETATM    2  S   UNL     1     -10.565  12.683  67.430  1.00  0.00    -0.226 SA 
HETATM    3  C   UNL     1     -11.437  11.351  68.285  1.00  0.00    -0.299 C  
HETATM    4  C   UNL     1     -11.870  11.706  69.700  1.00  0.00    -0.419 C  
HETATM    5  O   UNL     1     -12.443  14.459  72.019  1.00  0.00    -0.330 OA 
HETATM    6  CA  UNL     1     -12.155  12.987  70.087  1.00  0.00    -0.307 C  
HETATM    7  N   UNL     1     -12.015  14.023  69.204  1.00  0.00    -0.348 N  
HETATM    8  CA  UNL     1     -11.441  15.395  67.744  1.00  0.00    -0.278 C  
HETATM    9  C   UNL     1     -12.694  13.255  71.476  1.00  0.00    -0.281 C  
HETATM   10  O   UNL     1     -11.794  16.110  70.202  1.00  0.00    -0.284 OA 
HETATM   11  C   UNL     1     -11.834  15.357  69.256  1.00  0.00    -0.343 C  
HETATM   12  OXT UNL     1     -13.377  12.437  72.080  1.00  0.00    -0.528 OA 
ENDROOT
BRANCH   4  13
HETATM   13  C   UNL     1     -11.967  10.523  70.673  1.00  0.00    -0.357 C  
BRANCH  13  14
HETATM   14  S   UNL     1     -10.461   9.543  70.954  1.00  0.00    -0.296 SA 
BRANCH  14  15
HETATM   15  C   UNL     1     -10.733   8.155  69.930  1.00  0.00    -0.241 A  
HETATM   16  N   UNL     1     -11.359   7.071  70.340  1.00  0.00    -0.300 NA 
HETATM   17  S   UNL     1     -10.131   8.054  68.329  1.00  0.00    -0.201 SA 
HETATM   18  N   UNL     1     -11.352   6.072  69.389  1.00  0.00    -0.348 NA 
HETATM   19  C   UNL     1     -10.552   5.599  67.084  1.00  0.00    -0.344 C  
HETATM   20  C   UNL     1     -10.738   6.448  68.287  1.00  0.00    -0.285 A  
ENDBRANCH  14  15
ENDBRANCH  13  14
ENDBRANCH   4  13
BRANCH   8  21
HETATM   21  N   UNL     1      -9.997  15.717  67.502  1.00  0.00    -0.229 N  
HETATM   22  C   UNL     1      -9.622  16.538  66.459  1.00  0.00    -0.271 C  
HETATM   23  H   UNL     1      -9.283  15.323  68.116  1.00  0.00     0.000 HD 
HETATM   24  O   UNL     1     -10.444  17.158  65.789  1.00  0.00    -0.472 OA 
BRANCH  22  25
HETATM   25  C   UNL     1      -8.136  16.626  66.209  1.00  0.00    -0.326 C  
BRANCH  25  26
HETATM   26  N   UNL     1      -7.546  17.722  66.930  1.00  0.00    -0.200 NA 
HETATM   27  C   UNL     1      -6.668  18.662  66.498  1.00  0.00    -0.201 A  
HETATM   28  N   UNL     1      -6.486  19.535  67.461  1.00  0.00    -0.203 NA 
HETATM   29  N   UNL     1      -7.277  19.115  68.504  1.00  0.00    -0.292 NA 
HETATM   30  N   UNL     1      -7.938  18.011  68.185  1.00  0.00    -0.259 NA 
ENDBRANCH  25  26
ENDBRANCH  22  25
ENDBRANCH   8  21
TORSDOF 6
ENDMDL
MODEL       14
REMARK 921   NORMALIZED FREE ENERGY PREDICTED BY IDOCK:   -6.47 KCAL/MOL
REMARK 922        TOTAL FREE ENERGY PREDICTED BY IDOCK:   -9.73 KCAL/MOL
REMARK 923 INTER-LIGAND FREE ENERGY PREDICTED BY IDOCK:   -8.63 KCAL/MOL
REMARK 924 INTRA-LIGAND FREE ENERGY PREDICTED BY IDOCK:   -1.10 KCAL/MOL
REMARK 927      BINDING AFFINITY PREDICTED BY RF-SCORE:    0.00 PKD
ROOT
HETATM    1  C   UNL     1      -8.935   9.674  67.345  1.00  0.00    -0.131 C  
HETATM    2  S   UNL     1      -9.782  11.252  67.530  1.00  0.00    -0.179 SA 
HETATM    3  C   UNL     1      -9.896  11.101  69.328  1.00  0.00     0.026 C  
HETATM    4  C   UNL     1     -10.508   9.789  69.799  1.00  0.00    -0.278 C  
HETATM    5  O   UNL     1     -11.347   6.386  68.801  1.00  0.00    -0.327 OA 
HETATM    6  CA  UNL     1     -10.412   8.629  69.080  1.00  0.00    -0.211 C  
HETATM    7  N   UNL     1      -9.787   8.618  67.863  1.00  0.00    -0.166 N  
HETATM    8  CA  UNL     1      -9.041   8.977  65.951  1.00  0.00    -0.212 C  
HETATM    9  C   UNL     1     -10.939   7.334  69.662  1.00  0.00    -0.186 C  
HETATM   10  O   UNL     1     -10.378   6.835  66.497  1.00  0.00    -0.157 OA 
HETATM   11  C   UNL     1      -9.793   7.864  66.748  1.00  0.00    -0.248 C  
HETATM   12  OXT UNL     1     -10.957   7.119  70.868  1.00  0.00    -0.239 OA 
ENDROOT
BRANCH   4  13
HETATM   13  C   UNL     1     -11.243   9.853  71.144  1.00  0.00    -0.334 C  
BRANCH  13  14
HETATM   14  S   UNL     1     -13.030  10.186  71.108  1.00  0.00    -0.396 SA 
BRANCH  14  15
HETATM   15  C   UNL     1     -13.091  11.891  71.481  1.00  0.00    -0.275 A  
HETATM   16  N   UNL     1     -13.653  12.367  72.573  1.00  0.00    -0.260 NA 
HETATM   17  S   UNL     1     -12.501  13.093  70.414  1.00  0.00    -0.147 SA 
HETATM   18  N   UNL     1     -13.674  13.746  72.591  1.00  0.00    -0.722 NA 
HETATM   19  C   UNL     1     -12.985  15.711  71.233  1.00  0.00    -0.556 C  
HETATM   20  C   UNL     1     -13.109  14.260  71.518  1.00  0.00    -0.343 A  
ENDBRANCH  14  15
ENDBRANCH  13  14
ENDBRANCH   4  13
BRANCH   8  21
HETATM   21  N   UNL     1      -9.879   9.640  64.899  1.00  0.00    -0.422 N  
HETATM   22  C   UNL     1      -9.292  10.346  63.870  1.00  0.00    -0.279 C  
HETATM   23  H   UNL     1     -10.896   9.569  64.946  1.00  0.00     0.000 HD 
HETATM   24  O   UNL     1      -8.077  10.334  63.680  1.00  0.00    -0.159 OA 
BRANCH  22  25
HETATM   25  C   UNL     1     -10.244  11.122  62.993  1.00  0.00    -0.214 C  
BRANCH  25  26
HETATM   26  N   UNL     1     -11.050  12.029  63.766  1.00  0.00    -0.399 NA 
HETATM   27  C   UNL     1     -12.395  12.043  63.947  1.00  0.00    -0.450 A  
HETATM   28  N   UNL     1     -12.687  12.979  64.820  1.00  0.00    -0.707 NA 
HETATM   29  N   UNL     1     -11.487  13.546  65.179  1.00  0.00    -0.296 NA 
HETATM   30  N   UNL     1     -10.477  12.963  64.547  1.00  0.00    -0.362 NA 
ENDBRANCH  25  26
ENDBRANCH  22  25
ENDBRANCH   8  21
TORSDOF 6
ENDMDL
MODEL       15
REMARK 921   NORMALIZED FREE ENERGY PREDICTED BY IDOCK:   -6.45 KCAL/MOL
REMARK 922        TOTAL FREE ENERGY PREDICTED BY IDOCK:   -9.69 KCAL/MOL
REMARK 923 INTER-LIGAND FREE ENERGY PREDICTED BY IDOCK:   -8.76 KCAL/MOL
REMARK 924 INTRA-LIGAND FREE ENERGY PREDICTED BY IDOCK:   -0.93 KCAL/MOL
REMARK 927      BINDING AFFINITY PREDICTED BY RF-SCORE:    0.00 PKD
ROOT
HETATM    1  C   UNL     1     -10.002  13.227  68.379  1.00  0.00    -0.226 C  
HETATM    2  S   UNL     1     -11.785  12.988  68.302  1.00  0.00    -0.354 SA 
HETATM    3  C   UNL     1     -11.788  11.776  69.643  1.00  0.00    -0.339 C  
HETATM    4  C   UNL     1     -10.805  10.632  69.443  1.00  0.00    -0.289 C  
HETATM    5  O   UNL     1      -7.864   9.546  67.585  1.00  0.00    -0.101 OA 
HETATM    6  CA  UNL     1      -9.646  10.770  68.729  1.00  0.00    -0.189 C  
HETATM    7  N   UNL     1      -9.346  11.957  68.119  1.00  0.00    -0.187 N  
HETATM    8  CA  UNL     1      -9.308  13.768  67.088  1.00  0.00    -0.240 C  
HETATM    9  C   UNL     1      -8.656   9.626  68.668  1.00  0.00    -0.120 C  
HETATM   10  O   UNL     1      -7.809  11.784  66.386  1.00  0.00    -0.051 OA 
HETATM   11  C   UNL     1      -8.579  12.386  67.099  1.00  0.00    -0.189 C  
HETATM   12  OXT UNL     1      -8.531   8.821  69.583  1.00  0.00    -0.122 OA 
ENDROOT
BRANCH   4  13
HETATM   13  C   UNL     1     -11.202   9.303  70.100  1.00  0.00    -0.208 C  
BRANCH  13  14
HETATM   14  S   UNL     1     -11.929   9.376  71.765  1.00  0.00    -0.362 SA 
BRANCH  14  15
HETATM   15  C   UNL     1     -11.471   7.827  72.430  1.00  0.00    -0.363 A  
HETATM   16  N   UNL     1     -10.831   7.697  73.573  1.00  0.00    -0.292 NA 
HETATM   17  S   UNL     1     -11.742   6.350  71.606  1.00  0.00    -0.293 SA 
HETATM   18  N   UNL     1     -10.483   6.388  73.832  1.00  0.00    -0.307 NA 
HETATM   19  C   UNL     1     -10.665   4.108  72.859  1.00  0.00    -0.230 C  
HETATM   20  C   UNL     1     -10.892   5.574  72.881  1.00  0.00    -0.269 A  
ENDBRANCH  14  15
ENDBRANCH  13  14
ENDBRANCH   4  13
BRANCH   8  21
HETATM   21  N   UNL     1     -10.162  13.992  65.876  1.00  0.00    -0.310 N  
HETATM   22  C   UNL     1     -10.582  15.261  65.534  1.00  0.00    -0.373 C  
HETATM   23  H   UNL     1     -10.435  13.198  65.298  1.00  0.00     0.000 HD 
HETATM   24  O   UNL     1     -10.158  16.264  66.103  1.00  0.00    -0.304 OA 
BRANCH  22  25
HETATM   25  C   UNL     1     -11.588  15.326  64.411  1.00  0.00    -0.263 C  
BRANCH  25  26
HETATM   26  N   UNL     1     -12.203  14.046  64.181  1.00  0.00    -0.623 NA 
HETATM   27  C   UNL     1     -11.990  13.159  63.176  1.00  0.00    -0.176 A  
HETATM   28  N   UNL     1     -12.687  12.075  63.425  1.00  0.00    -0.742 NA 
HETATM   29  N   UNL     1     -13.337  12.309  64.614  1.00  0.00    -0.530 NA 
HETATM   30  N   UNL     1     -13.038  13.510  65.090  1.00  0.00    -0.713 NA 
ENDBRANCH  25  26
ENDBRANCH  22  25
ENDBRANCH   8  21
TORSDOF 6
ENDMDL
MODEL       16
REMARK 921   NORMALIZED FREE ENERGY PREDICTED BY IDOCK:   -6.45 KCAL/MOL
REMARK 922        TOTAL FREE ENERGY PREDICTED BY IDOCK:   -9.69 KCAL/MOL
REMARK 923 INTER-LIGAND FREE ENERGY PREDICTED BY IDOCK:   -8.53 KCAL/MOL
REMARK 924 INTRA-LIGAND FREE ENERGY PREDICTED BY IDOCK:   -1.16 KCAL/MOL
REMARK 927      BINDING AFFINITY PREDICTED BY RF-SCORE:    0.00 PKD
ROOT
HETATM    1  C   UNL     1      -9.674   8.728  71.039  1.00  0.00    -0.230 C  
HETATM    2  S   UNL     1      -9.563   8.771  69.242  1.00  0.00    -0.165 SA 
HETATM    3  C   UNL     1      -9.985  10.527  69.152  1.00  0.00    -0.220 C  
HETATM    4  C   UNL     1     -11.261  10.893  69.896  1.00  0.00    -0.355 C  
HETATM    5  O   UNL     1     -13.644   9.774  72.417  1.00  0.00    -0.407 OA 
HETATM    6  CA  UNL     1     -11.703  10.200  70.990  1.00  0.00    -0.382 C  
HETATM    7  N   UNL     1     -11.021   9.101  71.436  1.00  0.00    -0.316 N  
HETATM    8  CA  UNL     1      -9.945   7.335  71.694  1.00  0.00    -0.180 C  
HETATM    9  C   UNL     1     -12.915  10.689  71.755  1.00  0.00    -0.472 C  
HETATM   10  O   UNL     1     -12.281   7.658  72.750  1.00  0.00    -0.107 OA 
HETATM   11  C   UNL     1     -11.277   8.000  72.168  1.00  0.00    -0.319 C  
HETATM   12  OXT UNL     1     -13.210  11.877  71.822  1.00  0.00    -0.454 OA 
ENDROOT
BRANCH   4  13
HETATM   13  C   UNL     1     -12.024  12.100  69.337  1.00  0.00    -0.270 C  
BRANCH  13  14
HETATM   14  S   UNL     1     -11.058  13.374  68.469  1.00  0.00    -0.285 SA 
BRANCH  14  15
HETATM   15  C   UNL     1     -11.643  13.221  66.830  1.00  0.00    -0.364 A  
HETATM   16  N   UNL     1     -12.492  14.070  66.290  1.00  0.00    -0.454 NA 
HETATM   17  S   UNL     1     -11.226  11.904  65.818  1.00  0.00    -0.282 SA 
HETATM   18  N   UNL     1     -12.890  13.679  65.028  1.00  0.00    -0.733 NA 
HETATM   19  C   UNL     1     -12.536  11.870  63.361  1.00  0.00    -0.582 C  
HETATM   20  C   UNL     1     -12.309  12.557  64.656  1.00  0.00    -0.474 A  
ENDBRANCH  14  15
ENDBRANCH  13  14
ENDBRANCH   4  13
BRANCH   8  21
HETATM   21  N   UNL     1     -10.145   6.161  70.783  1.00  0.00    -0.188 N  
HETATM   22  C   UNL     1      -9.102   5.304  70.497  1.00  0.00    -0.141 C  
HETATM   23  H   UNL     1     -11.062   5.994  70.370  1.00  0.00     0.000 HD 
HETATM   24  O   UNL     1      -8.025   5.368  71.085  1.00  0.00    -0.104 OA 
BRANCH  22  25
HETATM   25  C   UNL     1      -9.383   4.281  69.423  1.00  0.00    -0.166 C  
BRANCH  25  26
HETATM   26  N   UNL     1      -9.615   4.908  68.149  1.00  0.00    -0.137 NA 
HETATM   27  C   UNL     1      -8.898   4.811  67.001  1.00  0.00    -0.107 A  
HETATM   28  N   UNL     1      -9.536   5.463  66.057  1.00  0.00    -0.153 NA 
HETATM   29  N   UNL     1     -10.672   5.965  66.648  1.00  0.00    -0.286 NA 
HETATM   30  N   UNL     1     -10.733   5.621  67.927  1.00  0.00    -0.200 NA 
ENDBRANCH  25  26
ENDBRANCH  22  25
ENDBRANCH   8  21
TORSDOF 6
ENDMDL
MODEL       17
REMARK 921   NORMALIZED FREE ENERGY PREDICTED BY IDOCK:   -6.42 KCAL/MOL
REMARK 922        TOTAL FREE ENERGY PREDICTED BY IDOCK:   -9.65 KCAL/MOL
REMARK 923 INTER-LIGAND FREE ENERGY PREDICTED BY IDOCK:   -8.90 KCAL/MOL
REMARK 924 INTRA-LIGAND FREE ENERGY PREDICTED BY IDOCK:   -0.76 KCAL/MOL
REMARK 927      BINDING AFFINITY PREDICTED BY RF-SCORE:    0.00 PKD
ROOT
HETATM    1  C   UNL     1     -10.207  10.586  68.889  1.00  0.00    -0.208 C  
HETATM    2  S   UNL     1     -11.635  11.186  69.807  1.00  0.00    -0.360 SA 
HETATM    3  C   UNL     1     -11.448   9.951  71.114  1.00  0.00    -0.383 C  
HETATM    4  C   UNL     1     -11.354   8.521  70.601  1.00  0.00    -0.265 C  
HETATM    5  O   UNL     1     -10.718   6.466  67.658  1.00  0.00    -0.236 OA 
HETATM    6  CA  UNL     1     -10.845   8.209  69.369  1.00  0.00    -0.086 C  
HETATM    7  N   UNL     1     -10.434   9.200  68.519  1.00  0.00    -0.213 N  
HETATM    8  CA  UNL     1     -10.165  10.911  67.361  1.00  0.00    -0.201 C  
HETATM    9  C   UNL     1     -10.669   6.760  68.969  1.00  0.00    -0.246 C  
HETATM   10  O   UNL     1     -10.339   8.569  66.285  1.00  0.00    -0.185 OA 
HETATM   11  C   UNL     1     -10.243   9.360  67.196  1.00  0.00    -0.254 C  
HETATM   12  OXT UNL     1     -10.441   5.878  69.789  1.00  0.00    -0.218 OA 
ENDROOT
BRANCH   4  13
HETATM   13  C   UNL     1     -11.870   7.443  71.563  1.00  0.00    -0.297 C  
BRANCH  13  14
HETATM   14  S   UNL     1     -11.014   7.263  73.157  1.00  0.00    -0.294 SA 
BRANCH  14  15
HETATM   15  C   UNL     1     -10.653   5.554  73.186  1.00  0.00    -0.247 A  
HETATM   16  N   UNL     1     -11.564   4.632  73.416  1.00  0.00    -0.265 NA 
HETATM   17  S   UNL     1      -9.064   4.941  73.004  1.00  0.00    -0.116 SA 
HETATM   18  N   UNL     1     -11.018   3.367  73.498  1.00  0.00    -0.223 NA 
HETATM   19  C   UNL     1      -8.837   2.187  73.345  1.00  0.00    -0.069 C  
HETATM   20  C   UNL     1      -9.715   3.382  73.308  1.00  0.00    -0.111 A  
ENDBRANCH  14  15
ENDBRANCH  13  14
ENDBRANCH   4  13
BRANCH   8  21
HETATM   21  N   UNL     1     -11.332  11.643  66.769  1.00  0.00    -0.319 N  
HETATM   22  C   UNL     1     -11.338  12.002  65.437  1.00  0.00    -0.321 C  
HETATM   23  H   UNL     1     -12.131  11.878  67.359  1.00  0.00     0.000 HD 
HETATM   24  O   UNL     1     -10.478  11.610  64.652  1.00  0.00    -0.269 OA 
BRANCH  22  25
HETATM   25  C   UNL     1     -12.478  12.897  65.015  1.00  0.00    -0.492 C  
BRANCH  25  26
HETATM   26  N   UNL     1     -12.031  14.245  64.788  1.00  0.00    -0.417 NA 
HETATM   27  C   UNL     1     -10.961  14.895  65.312  1.00  0.00    -0.380 A  
HETATM   28  N   UNL     1     -10.871  16.073  64.740  1.00  0.00    -0.629 NA 
HETATM   29  N   UNL     1     -11.912  16.138  63.844  1.00  0.00    -0.864 NA 
HETATM   30  N   UNL     1     -12.621  15.018  63.858  1.00  0.00    -0.726 NA 
ENDBRANCH  25  26
ENDBRANCH  22  25
ENDBRANCH   8  21
TORSDOF 6
ENDMDL
MODEL       18
REMARK 921   NORMALIZED FREE ENERGY PREDICTED BY IDOCK:   -6.40 KCAL/MOL
REMARK 922        TOTAL FREE ENERGY PREDICTED BY IDOCK:   -9.63 KCAL/MOL
REMARK 923 INTER-LIGAND FREE ENERGY PREDICTED BY IDOCK:   -8.38 KCAL/MOL
REMARK 924 INTRA-LIGAND FREE ENERGY PREDICTED BY IDOCK:   -1.25 KCAL/MOL
REMARK 927      BINDING AFFINITY PREDICTED BY RF-SCORE:    0.00 PKD
ROOT
HETATM    1  C   UNL     1     -11.936  13.393  66.175  1.00  0.00    -0.413 C  
HETATM    2  S   UNL     1     -10.675  13.927  65.005  1.00  0.00    -0.409 SA 
HETATM    3  C   UNL     1     -10.569  12.304  64.216  1.00  0.00    -0.354 C  
HETATM    4  C   UNL     1     -10.340  11.158  65.191  1.00  0.00    -0.354 C  
HETATM    5  O   UNL     1     -10.512  10.173  68.696  1.00  0.00    -0.183 OA 
HETATM    6  CA  UNL     1     -10.773  11.194  66.488  1.00  0.00    -0.260 C  
HETATM    7  N   UNL     1     -11.403  12.306  66.977  1.00  0.00    -0.313 N  
HETATM    8  CA  UNL     1     -12.060  14.214  67.499  1.00  0.00    -0.328 C  
HETATM    9  C   UNL     1     -10.618   9.974  67.371  1.00  0.00    -0.271 C  
HETATM   10  O   UNL     1     -11.366  12.489  69.293  1.00  0.00    -0.257 OA 
HETATM   11  C   UNL     1     -11.633  12.873  68.177  1.00  0.00    -0.336 C  
HETATM   12  OXT UNL     1     -10.635   8.835  66.919  1.00  0.00    -0.276 OA 
ENDROOT
BRANCH   4  13
HETATM   13  C   UNL     1      -9.588   9.950  64.619  1.00  0.00    -0.252 C  
BRANCH  13  14
HETATM   14  S   UNL     1      -7.780  10.082  64.470  1.00  0.00    -0.141 SA 
BRANCH  14  15
HETATM   15  C   UNL     1      -7.276  10.090  66.142  1.00  0.00    -0.109 A  
HETATM   16  N   UNL     1      -7.218   9.001  66.880  1.00  0.00    -0.085 NA 
HETATM   17  S   UNL     1      -6.897  11.531  66.987  1.00  0.00    -0.145 SA 
HETATM   18  N   UNL     1      -6.900   9.276  68.194  1.00  0.00    -0.064 NA 
HETATM   19  C   UNL     1      -6.368  11.180  69.699  1.00  0.00    -0.119 C  
HETATM   20  C   UNL     1      -6.710  10.563  68.394  1.00  0.00    -0.060 A  
ENDBRANCH  14  15
ENDBRANCH  13  14
ENDBRANCH   4  13
BRANCH   8  21
HETATM   21  N   UNL     1     -11.092  15.338  67.718  1.00  0.00    -0.310 N  
HETATM   22  C   UNL     1     -11.165  16.120  68.852  1.00  0.00    -0.351 C  
HETATM   23  H   UNL     1     -10.372  15.527  67.021  1.00  0.00     0.000 HD 
HETATM   24  O   UNL     1     -11.909  15.842  69.790  1.00  0.00    -0.343 OA 
BRANCH  22  25
HETATM   25  C   UNL     1     -10.263  17.330  68.861  1.00  0.00    -0.349 C  
BRANCH  25  26
HETATM   26  N   UNL     1     -10.443  18.128  67.677  1.00  0.00    -0.402 NA 
HETATM   27  C   UNL     1     -10.658  19.463  67.566  1.00  0.00    -0.474 A  
HETATM   28  N   UNL     1     -10.652  19.780  66.291  1.00  0.00    -0.485 NA 
HETATM   29  N   UNL     1     -10.424  18.606  65.613  1.00  0.00    -0.594 NA 
HETATM   30  N   UNL     1     -10.285  17.590  66.454  1.00  0.00    -0.348 NA 
ENDBRANCH  25  26
ENDBRANCH  22  25
ENDBRANCH   8  21
TORSDOF 6
ENDMDL
MODEL       19
REMARK 921   NORMALIZED FREE ENERGY PREDICTED BY IDOCK:   -6.39 KCAL/MOL
REMARK 922        TOTAL FREE ENERGY PREDICTED BY IDOCK:   -9.62 KCAL/MOL
REMARK 923 INTER-LIGAND FREE ENERGY PREDICTED BY IDOCK:   -8.72 KCAL/MOL
REMARK 924 INTRA-LIGAND FREE ENERGY PREDICTED BY IDOCK:   -0.90 KCAL/MOL
REMARK 927      BINDING AFFINITY PREDICTED BY RF-SCORE:    0.00 PKD
ROOT
HETATM    1  C   UNL     1     -11.832  14.644  68.547  1.00  0.00    -0.311 C  
HETATM    2  S   UNL     1     -10.392  15.265  69.433  1.00  0.00    -0.263 SA 
HETATM    3  C   UNL     1     -10.455  16.879  68.621  1.00  0.00    -0.352 C  
HETATM    4  C   UNL     1     -10.504  16.803  67.102  1.00  0.00    -0.299 C  
HETATM    5  O   UNL     1     -11.179  14.616  64.266  1.00  0.00    -0.224 OA 
HETATM    6  CA  UNL     1     -11.056  15.746  66.432  1.00  0.00    -0.070 C  
HETATM    7  N   UNL     1     -11.555  14.674  67.121  1.00  0.00    -0.375 N  
HETATM    8  CA  UNL     1     -11.963  13.093  68.416  1.00  0.00    -0.289 C  
HETATM    9  C   UNL     1     -11.180  15.788  64.924  1.00  0.00    -0.350 C  
HETATM   10  O   UNL     1     -11.726  12.724  65.869  1.00  0.00    -0.368 OA 
HETATM   11  C   UNL     1     -11.817  13.374  66.886  1.00  0.00    -0.403 C  
HETATM   12  OXT UNL     1     -11.325  16.839  64.309  1.00  0.00    -1.170 OA 
ENDROOT
BRANCH   4  13
HETATM   13  C   UNL     1      -9.891  18.001  66.365  1.00  0.00    -0.340 C  
BRANCH  13  14
HETATM   14  S   UNL     1     -10.227  19.658  67.033  1.00  0.00    -0.475 SA 
BRANCH  14  15
HETATM   15  C   UNL     1      -8.633  20.189  67.511  1.00  0.00    -0.336 A  
HETATM   16  N   UNL     1      -7.969  21.131  66.873  1.00  0.00    -0.014 NA 
HETATM   17  S   UNL     1      -7.765  19.467  68.798  1.00  0.00    -0.342 SA 
HETATM   18  N   UNL     1      -6.692  21.296  67.368  1.00  0.00    -0.548 NA 
HETATM   19  C   UNL     1      -5.163  20.410  69.115  1.00  0.00    -0.278 C  
HETATM   20  C   UNL     1      -6.447  20.485  68.376  1.00  0.00    -0.289 A  
ENDBRANCH  14  15
ENDBRANCH  13  14
ENDBRANCH   4  13
BRANCH   8  21
HETATM   21  N   UNL     1     -10.862  12.247  68.984  1.00  0.00    -0.358 N  
HETATM   22  C   UNL     1     -10.917  10.871  68.903  1.00  0.00    -0.229 C  
HETATM   23  H   UNL     1     -10.064  12.695  69.435  1.00  0.00     0.000 HD 
HETATM   24  O   UNL     1     -11.772  10.290  68.239  1.00  0.00    -0.265 OA 
BRANCH  22  25
HETATM   25  C   UNL     1      -9.849  10.137  69.678  1.00  0.00    -0.225 C  
BRANCH  25  26
HETATM   26  N   UNL     1      -8.589  10.158  68.985  1.00  0.00    -0.145 NA 
HETATM   27  C   UNL     1      -8.315   9.854  67.691  1.00  0.00    -0.114 A  
HETATM   28  N   UNL     1      -7.050  10.120  67.461  1.00  0.00    -0.086 NA 
HETATM   29  N   UNL     1      -6.545  10.600  68.646  1.00  0.00    -0.055 NA 
HETATM   30  N   UNL     1      -7.483  10.636  69.582  1.00  0.00    -0.143 NA 
ENDBRANCH  25  26
ENDBRANCH  22  25
ENDBRANCH   8  21
TORSDOF 6
ENDMDL
MODEL       20
REMARK 921   NORMALIZED FREE ENERGY PREDICTED BY IDOCK:   -6.39 KCAL/MOL
REMARK 922        TOTAL FREE ENERGY PREDICTED BY IDOCK:   -9.61 KCAL/MOL
REMARK 923 INTER-LIGAND FREE ENERGY PREDICTED BY IDOCK:   -9.03 KCAL/MOL
REMARK 924 INTRA-LIGAND FREE ENERGY PREDICTED BY IDOCK:   -0.58 KCAL/MOL
REMARK 927      BINDING AFFINITY PREDICTED BY RF-SCORE:    0.00 PKD
ROOT
HETATM    1  C   UNL     1     -11.505  12.424  66.897  1.00  0.00    -0.360 C  
HETATM    2  S   UNL     1      -9.825  11.808  66.699  1.00  0.00    -0.207 SA 
HETATM    3  C   UNL     1     -10.246  10.156  67.301  1.00  0.00    -0.222 C  
HETATM    4  C   UNL     1     -10.960  10.154  68.646  1.00  0.00    -0.273 C  
HETATM    5  O   UNL     1     -12.807  12.209  71.022  1.00  0.00    -0.279 OA 
HETATM    6  CA  UNL     1     -11.746  11.191  69.067  1.00  0.00    -0.339 C  
HETATM    7  N   UNL     1     -11.886  12.312  68.295  1.00  0.00    -0.341 N  
HETATM    8  CA  UNL     1     -11.674  13.970  67.051  1.00  0.00    -0.398 C  
HETATM    9  C   UNL     1     -12.522  11.073  70.362  1.00  0.00    -0.313 C  
HETATM   10  O   UNL     1     -12.583  14.198  69.459  1.00  0.00    -0.227 OA 
HETATM   11  C   UNL     1     -12.219  13.605  68.469  1.00  0.00    -0.148 C  
HETATM   12  OXT UNL     1     -12.927   9.997  70.785  1.00  0.00    -0.330 OA 
ENDROOT
BRANCH   4  13
HETATM   13  C   UNL     1     -10.739   8.901  69.503  1.00  0.00    -0.199 C  
BRANCH  13  14
HETATM   14  S   UNL     1      -9.482   8.993  70.814  1.00  0.00    -0.272 SA 
BRANCH  14  15
HETATM   15  C   UNL     1     -10.037   7.777  71.938  1.00  0.00    -0.182 A  
HETATM   16  N   UNL     1     -10.035   7.952  73.244  1.00  0.00    -0.303 NA 
HETATM   17  S   UNL     1     -10.551   6.222  71.439  1.00  0.00    -0.245 SA 
HETATM   18  N   UNL     1     -10.413   6.813  73.924  1.00  0.00    -0.363 NA 
HETATM   19  C   UNL     1     -11.136   4.469  73.523  1.00  0.00    -0.398 C  
HETATM   20  C   UNL     1     -10.707   5.826  73.103  1.00  0.00    -0.262 A  
ENDBRANCH  14  15
ENDBRANCH  13  14
ENDBRANCH   4  13
BRANCH   8  21
HETATM   21  N   UNL     1     -10.432  14.811  67.077  1.00  0.00    -0.267 N  
HETATM   22  C   UNL     1     -10.138  15.667  66.036  1.00  0.00    -0.333 C  
HETATM   23  H   UNL     1      -9.798  14.748  67.873  1.00  0.00     0.000 HD 
HETATM   24  O   UNL     1     -10.939  15.895  65.132  1.00  0.00    -0.398 OA 
BRANCH  22  25
HETATM   25  C   UNL     1      -8.773  16.307  66.094  1.00  0.00    -0.318 C  
BRANCH  25  26
HETATM   26  N   UNL     1      -8.867  17.743  66.121  1.00  0.00    -0.489 NA 
HETATM   27  C   UNL     1      -9.836  18.530  66.652  1.00  0.00    -0.354 A  
HETATM   28  N   UNL     1      -9.457  19.783  66.547  1.00  0.00    -0.378 NA 
HETATM   29  N   UNL     1      -8.224  19.754  65.939  1.00  0.00    -0.388 NA 
HETATM   30  N   UNL     1      -7.849  18.507  65.684  1.00  0.00    -0.448 NA 
ENDBRANCH  25  26
ENDBRANCH  22  25
ENDBRANCH   8  21
TORSDOF 6
ENDMDL
MODEL       21
REMARK 921   NORMALIZED FREE ENERGY PREDICTED BY IDOCK:   -6.38 KCAL/MOL
REMARK 922        TOTAL FREE ENERGY PREDICTED BY IDOCK:   -9.60 KCAL/MOL
REMARK 923 INTER-LIGAND FREE ENERGY PREDICTED BY IDOCK:   -8.86 KCAL/MOL
REMARK 924 INTRA-LIGAND FREE ENERGY PREDICTED BY IDOCK:   -0.74 KCAL/MOL
REMARK 927      BINDING AFFINITY PREDICTED BY RF-SCORE:    0.00 PKD
ROOT
HETATM    1  C   UNL     1     -11.430  13.793  67.950  1.00  0.00    -0.314 C  
HETATM    2  S   UNL     1      -9.687  13.842  68.400  1.00  0.00    -0.210 SA 
HETATM    3  C   UNL     1      -9.499  15.572  67.910  1.00  0.00    -0.201 C  
HETATM    4  C   UNL     1      -9.983  15.869  66.498  1.00  0.00    -0.286 C  
HETATM    5  O   UNL     1     -12.014  14.624  63.740  1.00  0.00    -0.332 OA 
HETATM    6  CA  UNL     1     -10.979  15.154  65.892  1.00  0.00    -0.339 C  
HETATM    7  N   UNL     1     -11.559  14.093  66.535  1.00  0.00    -0.359 N  
HETATM    8  CA  UNL     1     -12.036  12.388  67.633  1.00  0.00    -0.180 C  
HETATM    9  C   UNL     1     -11.494  15.577  64.533  1.00  0.00    -0.308 C  
HETATM   10  O   UNL     1     -12.624  12.585  65.125  1.00  0.00    -0.631 OA 
HETATM   11  C   UNL     1     -12.240  12.980  66.202  1.00  0.00    -0.360 C  
HETATM   12  OXT UNL     1     -11.491  16.747  64.168  1.00  0.00    -1.171 OA 
ENDROOT
BRANCH   4  13
HETATM   13  C   UNL     1      -9.275  17.034  65.793  1.00  0.00     0.109 C  
BRANCH  13  14
HETATM   14  S   UNL     1      -9.573  18.709  66.437  1.00  0.00    -0.301 SA 
BRANCH  14  15
HETATM   15  C   UNL     1      -8.052  19.077  67.212  1.00  0.00    -0.262 A  
HETATM   16  N   UNL     1      -7.232  18.149  67.662  1.00  0.00    -0.206 NA 
HETATM   17  S   UNL     1      -7.539  20.680  67.529  1.00  0.00    -0.250 SA 
HETATM   18  N   UNL     1      -6.152  18.686  68.331  1.00  0.00    -0.209 NA 
HETATM   19  C   UNL     1      -5.177  20.875  68.992  1.00  0.00    -0.380 C  
HETATM   20  C   UNL     1      -6.187  20.003  68.344  1.00  0.00    -0.272 A  
ENDBRANCH  14  15
ENDBRANCH  13  14
ENDBRANCH   4  13
BRANCH   8  21
HETATM   21  N   UNL     1     -11.116  11.205  67.673  1.00  0.00    -0.267 N  
HETATM   22  C   UNL     1     -11.024  10.420  68.804  1.00  0.00    -0.245 C  
HETATM   23  H   UNL     1     -10.552  10.977  66.855  1.00  0.00     0.000 HD 
HETATM   24  O   UNL     1     -11.790  10.556  69.756  1.00  0.00    -0.265 OA 
BRANCH  22  25
HETATM   25  C   UNL     1      -9.929   9.383  68.783  1.00  0.00    -0.179 C  
BRANCH  25  26
HETATM   26  N   UNL     1     -10.450   8.074  68.493  1.00  0.00    -0.194 NA 
HETATM   27  C   UNL     1     -10.636   7.470  67.292  1.00  0.00    -0.324 A  
HETATM   28  N   UNL     1     -11.030   6.235  67.505  1.00  0.00    -0.350 NA 
HETATM   29  N   UNL     1     -11.081   6.086  68.871  1.00  0.00    -0.335 NA 
HETATM   30  N   UNL     1     -10.718   7.205  69.484  1.00  0.00    -0.237 NA 
ENDBRANCH  25  26
ENDBRANCH  22  25
ENDBRANCH   8  21
TORSDOF 6
ENDMDL
MODEL       22
REMARK 921   NORMALIZED FREE ENERGY PREDICTED BY IDOCK:   -6.36 KCAL/MOL
REMARK 922        TOTAL FREE ENERGY PREDICTED BY IDOCK:   -9.58 KCAL/MOL
REMARK 923 INTER-LIGAND FREE ENERGY PREDICTED BY IDOCK:   -9.45 KCAL/MOL
REMARK 924 INTRA-LIGAND FREE ENERGY PREDICTED BY IDOCK:   -0.13 KCAL/MOL
REMARK 927      BINDING AFFINITY PREDICTED BY RF-SCORE:    0.00 PKD
ROOT
HETATM    1  C   UNL     1     -10.357  13.936  67.110  1.00  0.00    -0.265 C  
HETATM    2  S   UNL     1     -10.155  12.700  68.403  1.00  0.00    -0.194 SA 
HETATM    3  C   UNL     1      -9.309  11.537  67.308  1.00  0.00    -0.166 C  
HETATM    4  C   UNL     1     -10.063  11.247  66.017  1.00  0.00    -0.283 C  
HETATM    5  O   UNL     1     -12.714  12.419  63.809  1.00  0.00    -0.693 OA 
HETATM    6  CA  UNL     1     -10.906  12.153  65.435  1.00  0.00    -0.294 C  
HETATM    7  N   UNL     1     -11.141  13.363  66.030  1.00  0.00    -0.282 N  
HETATM    8  CA  UNL     1     -11.511  14.972  67.300  1.00  0.00    -0.304 C  
HETATM    9  C   UNL     1     -11.531  11.847  64.090  1.00  0.00    -0.370 C  
HETATM   10  O   UNL     1     -13.103  14.402  65.347  1.00  0.00    -0.604 OA 
HETATM   11  C   UNL     1     -12.096  14.312  66.011  1.00  0.00    -0.408 C  
HETATM   12  OXT UNL     1     -10.972  11.146  63.254  1.00  0.00    -0.242 OA 
ENDROOT
BRANCH   4  13
HETATM   13  C   UNL     1      -9.811   9.862  65.407  1.00  0.00    -0.313 C  
BRANCH  13  14
HETATM   14  S   UNL     1      -8.629   8.773  66.259  1.00  0.00    -0.139 SA 
BRANCH  14  15
HETATM   15  C   UNL     1      -9.680   7.823  67.279  1.00  0.00    -0.171 A  
HETATM   16  N   UNL     1     -10.815   7.305  66.857  1.00  0.00    -0.314 NA 
HETATM   17  S   UNL     1      -9.364   7.558  68.942  1.00  0.00    -0.141 SA 
HETATM   18  N   UNL     1     -11.520   6.692  67.872  1.00  0.00     0.040 NA 
HETATM   19  C   UNL     1     -11.378   6.201  70.304  1.00  0.00    -0.414 C  
HETATM   20  C   UNL     1     -10.880   6.755  69.022  1.00  0.00    -0.249 A  
ENDBRANCH  14  15
ENDBRANCH  13  14
ENDBRANCH   4  13
BRANCH   8  21
HETATM   21  N   UNL     1     -12.390  14.827  68.507  1.00  0.00    -0.594 N  
HETATM   22  C   UNL     1     -12.031  15.392  69.713  1.00  0.00    -0.358 C  
HETATM   23  H   UNL     1     -13.262  14.304  68.434  1.00  0.00     0.000 HD 
HETATM   24  O   UNL     1     -11.075  16.158  69.816  1.00  0.00    -0.311 OA 
BRANCH  22  25
HETATM   25  C   UNL     1     -12.900  15.012  70.887  1.00  0.00    -0.391 C  
BRANCH  25  26
HETATM   26  N   UNL     1     -12.831  13.601  71.156  1.00  0.00    -0.337 NA 
HETATM   27  C   UNL     1     -13.397  12.889  72.164  1.00  0.00    -0.515 A  
HETATM   28  N   UNL     1     -13.163  11.614  71.955  1.00  0.00    -0.454 NA 
HETATM   29  N   UNL     1     -12.437  11.551  70.789  1.00  0.00    -0.366 NA 
HETATM   30  N   UNL     1     -12.238  12.763  70.287  1.00  0.00    -0.317 NA 
ENDBRANCH  25  26
ENDBRANCH  22  25
ENDBRANCH   8  21
TORSDOF 6
ENDMDL
MODEL       23
REMARK 921   NORMALIZED FREE ENERGY PREDICTED BY IDOCK:   -6.34 KCAL/MOL
REMARK 922        TOTAL FREE ENERGY PREDICTED BY IDOCK:   -9.55 KCAL/MOL
REMARK 923 INTER-LIGAND FREE ENERGY PREDICTED BY IDOCK:   -8.57 KCAL/MOL
REMARK 924 INTRA-LIGAND FREE ENERGY PREDICTED BY IDOCK:   -0.99 KCAL/MOL
REMARK 927      BINDING AFFINITY PREDICTED BY RF-SCORE:    0.00 PKD
ROOT
HETATM    1  C   UNL     1      -9.670  10.229  68.899  1.00  0.00    -0.189 C  
HETATM    2  S   UNL     1     -10.142   9.708  67.241  1.00  0.00    -0.226 SA 
HETATM    3  C   UNL     1     -10.262  11.404  66.627  1.00  0.00    -0.222 C  
HETATM    4  C   UNL     1     -11.144  12.307  67.478  1.00  0.00    -0.326 C  
HETATM    5  O   UNL     1     -12.735  12.674  70.736  1.00  0.00    -0.242 OA 
HETATM    6  CA  UNL     1     -11.320  12.115  68.821  1.00  0.00    -0.288 C  
HETATM    7  N   UNL     1     -10.729  11.054  69.452  1.00  0.00    -0.226 N  
HETATM    8  CA  UNL     1      -9.948   9.220  70.059  1.00  0.00    -0.209 C  
HETATM    9  C   UNL     1     -12.114  13.118  69.630  1.00  0.00    -0.255 C  
HETATM   10  O   UNL     1     -11.722  10.463  71.468  1.00  0.00    -0.261 OA 
HETATM   11  C   UNL     1     -10.919  10.331  70.572  1.00  0.00    -0.270 C  
HETATM   12  OXT UNL     1     -12.163  14.306  69.332  1.00  0.00    -0.324 OA 
ENDROOT
BRANCH   4  13
HETATM   13  C   UNL     1     -11.828  13.455  66.725  1.00  0.00    -0.403 C  
BRANCH  13  14
HETATM   14  S   UNL     1     -11.046  14.033  65.188  1.00  0.00    -0.362 SA 
BRANCH  14  15
HETATM   15  C   UNL     1     -10.893  15.748  65.478  1.00  0.00    -0.332 A  
HETATM   16  N   UNL     1     -11.085  16.655  64.542  1.00  0.00    -0.967 NA 
HETATM   17  S   UNL     1     -10.396  16.390  66.986  1.00  0.00    -0.287 SA 
HETATM   18  N   UNL     1     -10.798  17.930  64.984  1.00  0.00    -0.646 NA 
HETATM   19  C   UNL     1     -10.032  19.151  67.008  1.00  0.00    -0.423 C  
HETATM   20  C   UNL     1     -10.420  17.939  66.245  1.00  0.00    -0.320 A  
ENDBRANCH  14  15
ENDBRANCH  13  14
ENDBRANCH   4  13
BRANCH   8  21
HETATM   21  N   UNL     1     -10.631   7.930  69.716  1.00  0.00    -0.240 N  
HETATM   22  C   UNL     1     -10.110   6.723  70.132  1.00  0.00    -0.178 C  
HETATM   23  H   UNL     1     -11.492   7.946  69.169  1.00  0.00     0.000 HD 
HETATM   24  O   UNL     1      -9.168   6.656  70.919  1.00  0.00    -0.156 OA 
BRANCH  22  25
HETATM   25  C   UNL     1     -10.782   5.498  69.561  1.00  0.00    -0.262 C  
BRANCH  25  26
HETATM   26  N   UNL     1     -10.313   5.213  68.232  1.00  0.00    -0.114 NA 
HETATM   27  C   UNL     1      -9.507   4.209  67.802  1.00  0.00    -0.175 A  
HETATM   28  N   UNL     1      -9.432   4.269  66.492  1.00  0.00    -0.170 NA 
HETATM   29  N   UNL     1     -10.215   5.335  66.118  1.00  0.00    -0.199 NA 
HETATM   30  N   UNL     1     -10.767   5.914  67.177  1.00  0.00    -0.292 NA 
ENDBRANCH  25  26
ENDBRANCH  22  25
ENDBRANCH   8  21
TORSDOF 6
ENDMDL
MODEL       24
REMARK 921   NORMALIZED FREE ENERGY PREDICTED BY IDOCK:   -6.31 KCAL/MOL
REMARK 922        TOTAL FREE ENERGY PREDICTED BY IDOCK:   -9.51 KCAL/MOL
REMARK 923 INTER-LIGAND FREE ENERGY PREDICTED BY IDOCK:   -8.64 KCAL/MOL
REMARK 924 INTRA-LIGAND FREE ENERGY PREDICTED BY IDOCK:   -0.87 KCAL/MOL
REMARK 927      BINDING AFFINITY PREDICTED BY RF-SCORE:    0.00 PKD
ROOT
HETATM    1  C   UNL     1     -11.547  11.216  68.573  1.00  0.00    -0.314 C  
HETATM    2  S   UNL     1     -10.978  12.777  69.268  1.00  0.00     0.009 SA 
HETATM    3  C   UNL     1     -11.953  13.769  68.113  1.00  0.00    -0.358 C  
HETATM    4  C   UNL     1     -11.737  13.402  66.651  1.00  0.00    -0.428 C  
HETATM    5  O   UNL     1     -10.460  10.838  64.398  1.00  0.00    -0.365 OA 
HETATM    6  CA  UNL     1     -11.384  12.143  66.249  1.00  0.00    -0.357 C  
HETATM    7  N   UNL     1     -11.166  11.157  67.173  1.00  0.00    -0.291 N  
HETATM    8  CA  UNL     1     -10.633   9.969  68.800  1.00  0.00    -0.217 C  
HETATM    9  C   UNL     1     -11.302  11.817  64.773  1.00  0.00    -0.249 C  
HETATM   10  O   UNL     1      -9.874   9.388  66.399  1.00  0.00    -0.226 OA 
HETATM   11  C   UNL     1     -10.497   9.991  67.243  1.00  0.00    -0.254 C  
HETATM   12  OXT UNL     1     -12.003  12.378  63.940  1.00  0.00    -0.404 OA 
ENDROOT
BRANCH   4  13
HETATM   13  C   UNL     1     -11.943  14.547  65.650  1.00  0.00    -0.311 C  
BRANCH  13  14
HETATM   14  S   UNL     1     -10.460  15.403  65.038  1.00  0.00    -0.306 SA 
BRANCH  14  15
HETATM   15  C   UNL     1     -10.490  16.887  65.958  1.00  0.00    -0.290 A  
HETATM   16  N   UNL     1     -10.615  18.074  65.401  1.00  0.00    -0.580 NA 
HETATM   17  S   UNL     1     -10.272  16.928  67.656  1.00  0.00    -0.316 SA 
HETATM   18  N   UNL     1     -10.500  19.097  66.320  1.00  0.00    -0.452 NA 
HETATM   19  C   UNL     1     -10.139  19.486  68.748  1.00  0.00    -0.519 C  
HETATM   20  C   UNL     1     -10.312  18.641  67.541  1.00  0.00    -0.411 A  
ENDBRANCH  14  15
ENDBRANCH  13  14
ENDBRANCH   4  13
BRANCH   8  21
HETATM   21  N   UNL     1      -9.335  10.176  69.523  1.00  0.00    -0.258 N  
HETATM   22  C   UNL     1      -8.447   9.134  69.691  1.00  0.00    -0.133 C  
HETATM   23  H   UNL     1      -9.107  11.097  69.896  1.00  0.00     0.000 HD 
HETATM   24  O   UNL     1      -8.600   8.050  69.131  1.00  0.00    -0.135 OA 
BRANCH  22  25
HETATM   25  C   UNL     1      -7.276   9.423  70.597  1.00  0.00    -0.128 C  
BRANCH  25  26
HETATM   26  N   UNL     1      -7.512   8.938  71.931  1.00  0.00    -0.324 NA 
HETATM   27  C   UNL     1      -6.620   8.681  72.922  1.00  0.00    -0.012 A  
HETATM   28  N   UNL     1      -7.287   8.362  74.007  1.00  0.00    -0.286 NA 
HETATM   29  N   UNL     1      -8.617   8.429  73.666  1.00  0.00    -0.324 NA 
HETATM   30  N   UNL     1      -8.765   8.792  72.398  1.00  0.00    -0.403 NA 
ENDBRANCH  25  26
ENDBRANCH  22  25
ENDBRANCH   8  21
TORSDOF 6
ENDMDL
MODEL       25
REMARK 921   NORMALIZED FREE ENERGY PREDICTED BY IDOCK:   -6.25 KCAL/MOL
REMARK 922        TOTAL FREE ENERGY PREDICTED BY IDOCK:   -9.42 KCAL/MOL
REMARK 923 INTER-LIGAND FREE ENERGY PREDICTED BY IDOCK:   -8.75 KCAL/MOL
REMARK 924 INTRA-LIGAND FREE ENERGY PREDICTED BY IDOCK:   -0.67 KCAL/MOL
REMARK 927      BINDING AFFINITY PREDICTED BY RF-SCORE:    0.00 PKD
ROOT
HETATM    1  C   UNL     1     -11.901  14.674  67.816  1.00  0.00    -0.329 C  
HETATM    2  S   UNL     1     -10.673  13.531  67.164  1.00  0.00    -0.280 SA 
HETATM    3  C   UNL     1     -11.553  12.072  67.768  1.00  0.00    -0.330 C  
HETATM    4  C   UNL     1     -11.903  12.133  69.248  1.00  0.00    -0.370 C  
HETATM    5  O   UNL     1     -12.256  14.349  72.120  1.00  0.00    -0.271 OA 
HETATM    6  CA  UNL     1     -12.119  13.311  69.909  1.00  0.00    -0.308 C  
HETATM    7  N   UNL     1     -11.982  14.506  69.256  1.00  0.00    -0.322 N  
HETATM    8  CA  UNL     1     -11.427  16.138  68.086  1.00  0.00    -0.220 C  
HETATM    9  C   UNL     1     -12.580  13.295  71.351  1.00  0.00    -0.271 C  
HETATM   10  O   UNL     1     -11.632  16.328  70.655  1.00  0.00    -0.359 OA 
HETATM   11  C   UNL     1     -11.747  15.793  69.576  1.00  0.00    -0.360 C  
HETATM   12  OXT UNL     1     -13.264  12.387  71.808  1.00  0.00    -0.440 OA 
ENDROOT
BRANCH   4  13
HETATM   13  C   UNL     1     -11.999  10.775  69.956  1.00  0.00    -0.347 C  
BRANCH  13  14
HETATM   14  S   UNL     1     -10.761   9.515  69.524  1.00  0.00    -0.220 SA 
BRANCH  14  15
HETATM   15  C   UNL     1     -10.822   8.454  70.910  1.00  0.00    -0.231 A  
HETATM   16  N   UNL     1     -10.587   8.864  72.139  1.00  0.00    -0.321 NA 
HETATM   17  S   UNL     1     -11.108   6.770  70.774  1.00  0.00    -0.296 SA 
HETATM   18  N   UNL     1     -10.585   7.824  73.045  1.00  0.00    -0.367 NA 
HETATM   19  C   UNL     1     -10.895   5.361  73.166  1.00  0.00    -0.333 C  
HETATM   20  C   UNL     1     -10.839   6.668  72.467  1.00  0.00    -0.238 A  
ENDBRANCH  14  15
ENDBRANCH  13  14
ENDBRANCH   4  13
BRANCH   8  21
HETATM   21  N   UNL     1      -9.984  16.463  67.837  1.00  0.00    -0.239 N  
HETATM   22  C   UNL     1      -9.503  17.739  68.044  1.00  0.00    -0.281 C  
HETATM   23  H   UNL     1      -9.352  15.733  67.511  1.00  0.00     0.000 HD 
HETATM   24  O   UNL     1     -10.180  18.613  68.580  1.00  0.00    -0.375 OA 
BRANCH  22  25
HETATM   25  C   UNL     1      -8.088  17.979  67.576  1.00  0.00    -0.230 C  
BRANCH  25  26
HETATM   26  N   UNL     1      -7.229  18.349  68.668  1.00  0.00    -0.279 NA 
HETATM   27  C   UNL     1      -6.382  17.577  69.395  1.00  0.00    -0.246 A  
HETATM   28  N   UNL     1      -5.715  18.352  70.218  1.00  0.00    -0.232 NA 
HETATM   29  N   UNL     1      -6.167  19.629  69.982  1.00  0.00    -0.297 NA 
HETATM   30  N   UNL     1      -7.088  19.638  69.027  1.00  0.00    -0.355 NA 
ENDBRANCH  25  26
ENDBRANCH  22  25
ENDBRANCH   8  21
TORSDOF 6
ENDMDL
MODEL       26
REMARK 921   NORMALIZED FREE ENERGY PREDICTED BY IDOCK:   -6.24 KCAL/MOL
REMARK 922        TOTAL FREE ENERGY PREDICTED BY IDOCK:   -9.41 KCAL/MOL
REMARK 923 INTER-LIGAND FREE ENERGY PREDICTED BY IDOCK:   -8.50 KCAL/MOL
REMARK 924 INTRA-LIGAND FREE ENERGY PREDICTED BY IDOCK:   -0.91 KCAL/MOL
REMARK 927      BINDING AFFINITY PREDICTED BY RF-SCORE:    0.00 PKD
ROOT
HETATM    1  C   UNL     1     -10.786  15.227  67.419  1.00  0.00    -0.293 C  
HETATM    2  S   UNL     1     -10.775  15.131  65.621  1.00  0.00    -0.387 SA 
HETATM    3  C   UNL     1     -10.685  13.325  65.611  1.00  0.00    -0.282 C  
HETATM    4  C   UNL     1      -9.557  12.760  66.463  1.00  0.00    -0.257 C  
HETATM    5  O   UNL     1      -7.192  13.521  69.129  1.00  0.00    -0.080 OA 
HETATM    6  CA  UNL     1      -9.072  13.404  67.568  1.00  0.00    -0.215 C  
HETATM    7  N   UNL     1      -9.566  14.628  67.929  1.00  0.00    -0.209 N  
HETATM    8  CA  UNL     1     -10.306  16.571  68.054  1.00  0.00    -0.294 C  
HETATM    9  C   UNL     1      -8.031  12.731  68.438  1.00  0.00    -0.137 C  
HETATM   10  O   UNL     1      -8.154  15.865  69.298  1.00  0.00    -0.224 OA 
HETATM   11  C   UNL     1      -9.160  15.691  68.648  1.00  0.00    -0.205 C  
HETATM   12  OXT UNL     1      -7.970  11.513  68.560  1.00  0.00    -0.132 OA 
ENDROOT
BRANCH   4  13
HETATM   13  C   UNL     1      -8.997  11.410  65.997  1.00  0.00    -0.197 C  
BRANCH  13  14
HETATM   14  S   UNL     1     -10.124   9.983  66.014  1.00  0.00    -0.220 SA 
BRANCH  14  15
HETATM   15  C   UNL     1     -10.887  10.140  67.577  1.00  0.00    -0.290 A  
HETATM   16  N   UNL     1     -11.861  10.994  67.819  1.00  0.00    -0.591 NA 
HETATM   17  S   UNL     1     -10.372   9.256  68.951  1.00  0.00    -0.216 SA 
HETATM   18  N   UNL     1     -12.223  11.011  69.150  1.00  0.00    -0.454 NA 
HETATM   19  C   UNL     1     -11.662   9.942  71.322  1.00  0.00    -0.472 C  
HETATM   20  C   UNL     1     -11.520  10.154  69.861  1.00  0.00    -0.254 A  
ENDBRANCH  14  15
ENDBRANCH  13  14
ENDBRANCH   4  13
BRANCH   8  21
HETATM   21  N   UNL     1      -9.825  17.650  67.130  1.00  0.00    -0.295 N  
HETATM   22  C   UNL     1      -9.332  18.838  67.629  1.00  0.00    -0.292 C  
HETATM   23  H   UNL     1      -9.862  17.503  66.122  1.00  0.00     0.000 HD 
HETATM   24  O   UNL     1      -9.121  19.004  68.828  1.00  0.00    -0.353 OA 
BRANCH  22  25
HETATM   25  C   UNL     1      -9.062  19.907  66.599  1.00  0.00    -0.376 C  
BRANCH  25  26
HETATM   26  N   UNL     1      -7.857  19.635  65.862  1.00  0.00    -0.386 NA 
HETATM   27  C   UNL     1      -6.886  20.492  65.456  1.00  0.00    -0.194 A  
HETATM   28  N   UNL     1      -5.916  19.793  64.913  1.00  0.00    -0.226 NA 
HETATM   29  N   UNL     1      -6.308  18.478  64.994  1.00  0.00    -0.437 NA 
HETATM   30  N   UNL     1      -7.491  18.371  65.584  1.00  0.00    -0.534 NA 
ENDBRANCH  25  26
ENDBRANCH  22  25
ENDBRANCH   8  21
TORSDOF 6
ENDMDL
MODEL       27
REMARK 921   NORMALIZED FREE ENERGY PREDICTED BY IDOCK:   -6.23 KCAL/MOL
REMARK 922        TOTAL FREE ENERGY PREDICTED BY IDOCK:   -9.40 KCAL/MOL
REMARK 923 INTER-LIGAND FREE ENERGY PREDICTED BY IDOCK:   -8.26 KCAL/MOL
REMARK 924 INTRA-LIGAND FREE ENERGY PREDICTED BY IDOCK:   -1.14 KCAL/MOL
REMARK 927      BINDING AFFINITY PREDICTED BY RF-SCORE:    0.00 PKD
ROOT
HETATM    1  C   UNL     1     -12.025  13.502  68.442  1.00  0.00    -0.343 C  
HETATM    2  S   UNL     1     -10.868  12.123  68.473  1.00  0.00    -0.246 SA 
HETATM    3  C   UNL     1     -11.948  11.100  69.499  1.00  0.00    -0.355 C  
HETATM    4  C   UNL     1     -12.426  11.789  70.769  1.00  0.00    -0.405 C  
HETATM    5  O   UNL     1     -12.813  15.014  72.422  1.00  0.00    -0.311 OA 
HETATM    6  CA  UNL     1     -12.579  13.146  70.861  1.00  0.00    -0.295 C  
HETATM    7  N   UNL     1     -12.258  13.952  69.803  1.00  0.00    -0.341 N  
HETATM    8  CA  UNL     1     -11.428  14.916  68.152  1.00  0.00    -0.330 C  
HETATM    9  C   UNL     1     -13.171  13.756  72.114  1.00  0.00    -0.447 C  
HETATM   10  O   UNL     1     -11.851  16.167  70.374  1.00  0.00    -0.307 OA 
HETATM   11  C   UNL     1     -11.921  15.240  69.599  1.00  0.00    -0.338 C  
HETATM   12  OXT UNL     1     -13.987  13.161  72.808  1.00  0.00    -0.657 OA 
ENDROOT
BRANCH   4  13
HETATM   13  C   UNL     1     -12.729  10.856  71.948  1.00  0.00    -0.234 C  
BRANCH  13  14
HETATM   14  S   UNL     1     -13.677   9.344  71.599  1.00  0.00    -0.271 SA 
BRANCH  14  15
HETATM   15  C   UNL     1     -12.461   8.102  71.777  1.00  0.00    -0.330 A  
HETATM   16  N   UNL     1     -12.737   6.815  71.731  1.00  0.00    -0.348 NA 
HETATM   17  S   UNL     1     -10.820   8.457  72.116  1.00  0.00    -0.355 SA 
HETATM   18  N   UNL     1     -11.634   6.034  72.008  1.00  0.00    -0.298 NA 
HETATM   19  C   UNL     1      -9.221   6.222  72.572  1.00  0.00    -0.140 C  
HETATM   20  C   UNL     1     -10.561   6.763  72.235  1.00  0.00    -0.213 A  
ENDBRANCH  14  15
ENDBRANCH  13  14
ENDBRANCH   4  13
BRANCH   8  21
HETATM   21  N   UNL     1      -9.942  15.026  67.980  1.00  0.00    -0.217 N  
HETATM   22  C   UNL     1      -9.398  15.984  67.149  1.00  0.00    -0.211 C  
HETATM   23  H   UNL     1      -9.328  14.386  68.482  1.00  0.00     0.000 HD 
HETATM   24  O   UNL     1     -10.079  16.874  66.645  1.00  0.00    -0.281 OA 
BRANCH  22  25
HETATM   25  C   UNL     1      -7.911  15.865  66.916  1.00  0.00    -0.252 C  
BRANCH  25  26
HETATM   26  N   UNL     1      -7.250  15.260  68.040  1.00  0.00    -0.117 NA 
HETATM   27  C   UNL     1      -6.399  14.203  68.070  1.00  0.00    -0.149 A  
HETATM   28  N   UNL     1      -5.949  14.066  69.296  1.00  0.00    -0.090 NA 
HETATM   29  N   UNL     1      -6.541  15.068  70.028  1.00  0.00    -0.174 NA 
HETATM   30  N   UNL     1      -7.331  15.811  69.265  1.00  0.00    -0.203 NA 
ENDBRANCH  25  26
ENDBRANCH  22  25
ENDBRANCH   8  21
TORSDOF 6
ENDMDL
MODEL       28
REMARK 921   NORMALIZED FREE ENERGY PREDICTED BY IDOCK:   -6.22 KCAL/MOL
REMARK 922        TOTAL FREE ENERGY PREDICTED BY IDOCK:   -9.38 KCAL/MOL
REMARK 923 INTER-LIGAND FREE ENERGY PREDICTED BY IDOCK:   -8.36 KCAL/MOL
REMARK 924 INTRA-LIGAND FREE ENERGY PREDICTED BY IDOCK:   -1.01 KCAL/MOL
REMARK 927      BINDING AFFINITY PREDICTED BY RF-SCORE:    0.00 PKD
ROOT
HETATM    1  C   UNL     1     -10.342  11.787  67.589  1.00  0.00    -0.200 C  
HETATM    2  S   UNL     1     -11.687  12.445  68.588  1.00  0.00    -0.320 SA 
HETATM    3  C   UNL     1     -11.838  13.944  67.588  1.00  0.00    -0.386 C  
HETATM    4  C   UNL     1     -10.526  14.692  67.397  1.00  0.00    -0.255 C  
HETATM    5  O   UNL     1      -6.899  14.413  67.619  1.00  0.00    -0.169 OA 
HETATM    6  CA  UNL     1      -9.310  14.064  67.402  1.00  0.00    -0.220 C  
HETATM    7  N   UNL     1      -9.227  12.717  67.628  1.00  0.00    -0.184 N  
HETATM    8  CA  UNL     1      -9.402  10.744  68.274  1.00  0.00    -0.161 C  
HETATM    9  C   UNL     1      -8.054  14.848  67.087  1.00  0.00    -0.209 C  
HETATM   10  O   UNL     1      -7.141  11.993  68.349  1.00  0.00    -0.072 OA 
HETATM   11  C   UNL     1      -8.305  11.836  68.059  1.00  0.00    -0.154 C  
HETATM   12  OXT UNL     1      -8.060  15.818  66.338  1.00  0.00    -0.245 OA 
ENDROOT
BRANCH   4  13
HETATM   13  C   UNL     1     -10.657  16.207  67.195  1.00  0.00    -0.294 C  
BRANCH  13  14
HETATM   14  S   UNL     1     -10.772  17.244  68.684  1.00  0.00    -0.211 SA 
BRANCH  14  15
HETATM   15  C   UNL     1      -9.840  18.647  68.223  1.00  0.00    -0.371 A  
HETATM   16  N   UNL     1     -10.378  19.722  67.683  1.00  0.00    -0.433 NA 
HETATM   17  S   UNL     1      -8.133  18.708  68.356  1.00  0.00    -0.340 SA 
HETATM   18  N   UNL     1      -9.428  20.648  67.306  1.00  0.00    -0.421 NA 
HETATM   19  C   UNL     1      -6.969  21.009  67.302  1.00  0.00    -0.428 C  
HETATM   20  C   UNL     1      -8.208  20.245  67.593  1.00  0.00    -0.274 A  
ENDBRANCH  14  15
ENDBRANCH  13  14
ENDBRANCH   4  13
BRANCH   8  21
HETATM   21  N   UNL     1      -9.654  10.415  69.715  1.00  0.00    -0.413 N  
HETATM   22  C   UNL     1      -9.613   9.109  70.159  1.00  0.00    -0.206 C  
HETATM   23  H   UNL     1      -9.859  11.165  70.375  1.00  0.00     0.000 HD 
HETATM   24  O   UNL     1      -9.221   8.190  69.444  1.00  0.00    -0.154 OA 
BRANCH  22  25
HETATM   25  C   UNL     1     -10.072   8.896  71.581  1.00  0.00    -0.341 C  
BRANCH  25  26
HETATM   26  N   UNL     1     -11.475   9.177  71.728  1.00  0.00    -0.368 NA 
HETATM   27  C   UNL     1     -12.463   8.384  72.213  1.00  0.00    -0.361 A  
HETATM   28  N   UNL     1     -13.571   9.088  72.267  1.00  0.00    -0.456 NA 
HETATM   29  N   UNL     1     -13.244  10.341  71.805  1.00  0.00    -0.430 NA 
HETATM   30  N   UNL     1     -11.959  10.408  71.483  1.00  0.00    -0.289 NA 
ENDBRANCH  25  26
ENDBRANCH  22  25
ENDBRANCH   8  21
TORSDOF 6
ENDMDL
MODEL       29
REMARK 921   NORMALIZED FREE ENERGY PREDICTED BY IDOCK:   -6.21 KCAL/MOL
REMARK 922        TOTAL FREE ENERGY PREDICTED BY IDOCK:   -9.37 KCAL/MOL
REMARK 923 INTER-LIGAND FREE ENERGY PREDICTED BY IDOCK:   -8.19 KCAL/MOL
REMARK 924 INTRA-LIGAND FREE ENERGY PREDICTED BY IDOCK:   -1.17 KCAL/MOL
REMARK 927      BINDING AFFINITY PREDICTED BY RF-SCORE:    0.00 PKD
ROOT
HETATM    1  C   UNL     1     -10.808  10.553  67.207  1.00  0.00    -0.279 C  
HETATM    2  S   UNL     1     -11.739  10.694  68.742  1.00  0.00    -0.096 SA 
HETATM    3  C   UNL     1     -11.864  12.494  68.626  1.00  0.00    -0.297 C  
HETATM    4  C   UNL     1     -10.527  13.192  68.419  1.00  0.00    -0.261 C  
HETATM    5  O   UNL     1      -7.057  12.708  67.414  1.00  0.00    -0.142 OA 
HETATM    6  CA  UNL     1      -9.473  12.597  67.781  1.00  0.00    -0.198 C  
HETATM    7  N   UNL     1      -9.573  11.307  67.336  1.00  0.00    -0.169 N  
HETATM    8  CA  UNL     1      -9.926   9.275  67.034  1.00  0.00    -0.224 C  
HETATM    9  C   UNL     1      -8.213  13.389  67.504  1.00  0.00    -0.185 C  
HETATM   10  O   UNL     1      -7.532  10.248  67.000  1.00  0.00    -0.091 OA 
HETATM   11  C   UNL     1      -8.741  10.294  67.027  1.00  0.00    -0.129 C  
HETATM   12  OXT UNL     1      -8.230  14.600  67.316  1.00  0.00    -0.190 OA 
ENDROOT
BRANCH   4  13
HETATM   13  C   UNL     1     -10.439  14.619  68.976  1.00  0.00    -0.246 C  
BRANCH  13  14
HETATM   14  S   UNL     1     -11.962  15.611  68.984  1.00  0.00    -0.208 SA 
BRANCH  14  15
HETATM   15  C   UNL     1     -12.451  15.516  70.658  1.00  0.00    -0.435 A  
HETATM   16  N   UNL     1     -13.711  15.468  71.037  1.00  0.00    -0.544 NA 
HETATM   17  S   UNL     1     -11.331  15.563  71.953  1.00  0.00    -0.290 SA 
HETATM   18  N   UNL     1     -13.847  15.509  72.409  1.00  0.00    -0.542 NA 
HETATM   19  C   UNL     1     -12.487  15.631  74.486  1.00  0.00    -0.749 C  
HETATM   20  C   UNL     1     -12.680  15.565  73.016  1.00  0.00    -0.454 A  
ENDBRANCH  14  15
ENDBRANCH  13  14
ENDBRANCH   4  13
BRANCH   8  21
HETATM   21  N   UNL     1      -9.878   8.299  68.171  1.00  0.00    -0.166 N  
HETATM   22  C   UNL     1     -10.609   7.130  68.128  1.00  0.00    -0.192 C  
HETATM   23  H   UNL     1      -9.298   8.501  68.985  1.00  0.00     0.000 HD 
HETATM   24  O   UNL     1     -11.199   6.766  67.113  1.00  0.00    -0.379 OA 
BRANCH  22  25
HETATM   25  C   UNL     1     -10.624   6.331  69.409  1.00  0.00    -0.271 C  
BRANCH  25  26
HETATM   26  N   UNL     1     -11.194   7.087  70.492  1.00  0.00    -0.281 NA 
HETATM   27  C   UNL     1     -12.393   6.934  71.109  1.00  0.00    -0.370 A  
HETATM   28  N   UNL     1     -12.450   7.772  72.119  1.00  0.00    -0.275 NA 
HETATM   29  N   UNL     1     -11.253   8.448  72.115  1.00  0.00    -0.335 NA 
HETATM   30  N   UNL     1     -10.473   8.028  71.129  1.00  0.00    -0.197 NA 
ENDBRANCH  25  26
ENDBRANCH  22  25
ENDBRANCH   8  21
TORSDOF 6
ENDMDL
MODEL       30
REMARK 921   NORMALIZED FREE ENERGY PREDICTED BY IDOCK:   -6.20 KCAL/MOL
REMARK 922        TOTAL FREE ENERGY PREDICTED BY IDOCK:   -9.36 KCAL/MOL
REMARK 923 INTER-LIGAND FREE ENERGY PREDICTED BY IDOCK:   -8.38 KCAL/MOL
REMARK 924 INTRA-LIGAND FREE ENERGY PREDICTED BY IDOCK:   -0.97 KCAL/MOL
REMARK 927      BINDING AFFINITY PREDICTED BY RF-SCORE:    0.00 PKD
ROOT
HETATM    1  C   UNL     1     -11.997  14.461  68.657  1.00  0.00    -0.297 C  
HETATM    2  S   UNL     1     -10.499  13.579  68.187  1.00  0.00    -0.250 SA 
HETATM    3  C   UNL     1     -11.238  11.955  68.475  1.00  0.00    -0.256 C  
HETATM    4  C   UNL     1     -11.874  11.801  69.849  1.00  0.00    -0.423 C  
HETATM    5  O   UNL     1     -13.128  13.615  72.751  1.00  0.00    -0.447 OA 
HETATM    6  CA  UNL     1     -12.399  12.858  70.542  1.00  0.00    -0.283 C  
HETATM    7  N   UNL     1     -12.330  14.125  70.030  1.00  0.00    -0.346 N  
HETATM    8  CA  UNL     1     -11.824  15.938  69.137  1.00  0.00    -0.330 C  
HETATM    9  C   UNL     1     -13.123  12.618  71.850  1.00  0.00    -0.366 C  
HETATM   10  O   UNL     1     -12.553  15.811  71.612  1.00  0.00    -0.418 OA 
HETATM   11  C   UNL     1     -12.369  15.389  70.494  1.00  0.00    -0.408 C  
HETATM   12  OXT UNL     1     -13.731  11.578  72.079  1.00  0.00    -0.178 OA 
ENDROOT
BRANCH   4  13
HETATM   13  C   UNL     1     -11.889  10.374  70.410  1.00  0.00    -0.328 C  
BRANCH  13  14
HETATM   14  S   UNL     1     -10.292   9.515  70.560  1.00  0.00    -0.303 SA 
BRANCH  14  15
HETATM   15  C   UNL     1     -10.328   8.437  69.187  1.00  0.00    -0.220 A  
HETATM   16  N   UNL     1     -10.627   8.836  67.968  1.00  0.00    -0.197 NA 
HETATM   17  S   UNL     1     -10.062   6.751  69.327  1.00  0.00    -0.174 SA 
HETATM   18  N   UNL     1     -10.698   7.785  67.076  1.00  0.00    -0.326 NA 
HETATM   19  C   UNL     1     -10.436   5.316  66.969  1.00  0.00    -0.290 C  
HETATM   20  C   UNL     1     -10.430   6.633  67.654  1.00  0.00    -0.227 A  
ENDBRANCH  14  15
ENDBRANCH  13  14
ENDBRANCH   4  13
BRANCH   8  21
HETATM   21  N   UNL     1     -10.431  16.487  69.222  1.00  0.00    -0.306 N  
HETATM   22  C   UNL     1     -10.024  17.512  68.393  1.00  0.00    -0.335 C  
HETATM   23  H   UNL     1      -9.776  16.097  69.901  1.00  0.00     0.000 HD 
HETATM   24  O   UNL     1     -10.812  18.118  67.671  1.00  0.00    -0.392 OA 
BRANCH  22  25
HETATM   25  C   UNL     1      -8.552  17.839  68.447  1.00  0.00    -0.292 C  
BRANCH  25  26
HETATM   26  N   UNL     1      -7.745  16.670  68.219  1.00  0.00    -0.176 NA 
HETATM   27  C   UNL     1      -7.057  16.305  67.107  1.00  0.00    -0.209 A  
HETATM   28  N   UNL     1      -6.371  15.220  67.382  1.00  0.00    -0.315 NA 
HETATM   29  N   UNL     1      -6.648  14.921  68.696  1.00  0.00    -0.084 NA 
HETATM   30  N   UNL     1      -7.481  15.810  69.219  1.00  0.00    -0.209 NA 
ENDBRANCH  25  26
ENDBRANCH  22  25
ENDBRANCH   8  21
TORSDOF 6
ENDMDL
MODEL       31
REMARK 921   NORMALIZED FREE ENERGY PREDICTED BY IDOCK:   -6.19 KCAL/MOL
REMARK 922        TOTAL FREE ENERGY PREDICTED BY IDOCK:   -9.34 KCAL/MOL
REMARK 923 INTER-LIGAND FREE ENERGY PREDICTED BY IDOCK:   -8.14 KCAL/MOL
REMARK 924 INTRA-LIGAND FREE ENERGY PREDICTED BY IDOCK:   -1.20 KCAL/MOL
REMARK 927      BINDING AFFINITY PREDICTED BY RF-SCORE:    0.00 PKD
ROOT
HETATM    1  C   UNL     1     -11.815  14.994  68.748  1.00  0.00    -0.301 C  
HETATM    2  S   UNL     1     -10.311  15.501  69.599  1.00  0.00    -0.296 SA 
HETATM    3  C   UNL     1     -10.225  17.082  68.728  1.00  0.00    -0.317 C  
HETATM    4  C   UNL     1     -10.298  16.956  67.212  1.00  0.00    -0.309 C  
HETATM    5  O   UNL     1     -11.218  14.743  64.467  1.00  0.00    -0.349 OA 
HETATM    6  CA  UNL     1     -10.959  15.934  66.587  1.00  0.00    -0.136 C  
HETATM    7  N   UNL     1     -11.554  14.943  67.321  1.00  0.00    -0.352 N  
HETATM    8  CA  UNL     1     -12.100  13.459  68.677  1.00  0.00    -0.246 C  
HETATM    9  C   UNL     1     -11.096  15.933  65.079  1.00  0.00    -0.360 C  
HETATM   10  O   UNL     1     -11.930  12.975  66.145  1.00  0.00    -0.395 OA 
HETATM   11  C   UNL     1     -11.944  13.668  67.137  1.00  0.00    -0.393 C  
HETATM   12  OXT UNL     1     -11.144  16.969  64.427  1.00  0.00    -1.144 OA 
ENDROOT
BRANCH   4  13
HETATM   13  C   UNL     1      -9.579  18.059  66.426  1.00  0.00    -0.295 C  
BRANCH  13  14
HETATM   14  S   UNL     1      -7.798  17.847  66.122  1.00  0.00    -0.175 SA 
BRANCH  14  15
HETATM   15  C   UNL     1      -7.111  18.266  67.672  1.00  0.00    -0.201 A  
HETATM   16  N   UNL     1      -6.586  17.376  68.489  1.00  0.00    -0.177 NA 
HETATM   17  S   UNL     1      -7.141  19.860  68.296  1.00  0.00    -0.292 SA 
HETATM   18  N   UNL     1      -6.211  17.931  69.694  1.00  0.00    -0.237 NA 
HETATM   19  C   UNL     1      -6.170  20.107  70.895  1.00  0.00    -0.251 C  
HETATM   20  C   UNL     1      -6.450  19.226  69.735  1.00  0.00    -0.224 A  
ENDBRANCH  14  15
ENDBRANCH  13  14
ENDBRANCH   4  13
BRANCH   8  21
HETATM   21  N   UNL     1     -11.081  12.530  69.268  1.00  0.00    -0.421 N  
HETATM   22  C   UNL     1     -11.373  11.196  69.465  1.00  0.00    -0.290 C  
HETATM   23  H   UNL     1     -10.162  12.889  69.527  1.00  0.00     0.000 HD 
HETATM   24  O   UNL     1     -12.401  10.683  69.031  1.00  0.00    -0.355 OA 
BRANCH  22  25
HETATM   25  C   UNL     1     -10.338  10.417  70.239  1.00  0.00     0.031 C  
BRANCH  25  26
HETATM   26  N   UNL     1      -9.098  10.327  69.515  1.00  0.00    -0.197 NA 
HETATM   27  C   UNL     1      -7.947   9.695  69.858  1.00  0.00    -0.167 A  
HETATM   28  N   UNL     1      -7.111   9.779  68.849  1.00  0.00    -0.065 NA 
HETATM   29  N   UNL     1      -7.774  10.478  67.868  1.00  0.00    -0.092 NA 
HETATM   30  N   UNL     1      -8.996  10.809  68.263  1.00  0.00    -0.137 NA 
ENDBRANCH  25  26
ENDBRANCH  22  25
ENDBRANCH   8  21
TORSDOF 6
ENDMDL
MODEL       32
REMARK 921   NORMALIZED FREE ENERGY PREDICTED BY IDOCK:   -6.17 KCAL/MOL
REMARK 922        TOTAL FREE ENERGY PREDICTED BY IDOCK:   -9.32 KCAL/MOL
REMARK 923 INTER-LIGAND FREE ENERGY PREDICTED BY IDOCK:   -8.25 KCAL/MOL
REMARK 924 INTRA-LIGAND FREE ENERGY PREDICTED BY IDOCK:   -1.07 KCAL/MOL
REMARK 927      BINDING AFFINITY PREDICTED BY RF-SCORE:    0.00 PKD
ROOT
HETATM    1  C   UNL     1      -9.033  10.072  67.396  1.00  0.00    -0.131 C  
HETATM    2  S   UNL     1      -9.736   9.352  65.902  1.00  0.00    -0.273 SA 
HETATM    3  C   UNL     1     -10.316  10.946  65.278  1.00  0.00    -0.268 C  
HETATM    4  C   UNL     1     -11.156  11.730  66.276  1.00  0.00    -0.364 C  
HETATM    5  O   UNL     1     -12.056  12.036  69.794  1.00  0.00    -0.294 OA 
HETATM    6  CA  UNL     1     -11.000  11.609  67.630  1.00  0.00    -0.239 C  
HETATM    7  N   UNL     1     -10.091  10.726  68.146  1.00  0.00    -0.160 N  
HETATM    8  CA  UNL     1      -8.853   9.118  68.620  1.00  0.00    -0.133 C  
HETATM    9  C   UNL     1     -11.786  12.505  68.564  1.00  0.00    -0.324 C  
HETATM   10  O   UNL     1     -10.495  10.112  70.350  1.00  0.00    -0.280 OA 
HETATM   11  C   UNL     1      -9.892  10.065  69.302  1.00  0.00    -0.214 C  
HETATM   12  OXT UNL     1     -12.130  13.637  68.247  1.00  0.00    -0.357 OA 
ENDROOT
BRANCH   4  13
HETATM   13  C   UNL     1     -12.197  12.673  65.659  1.00  0.00    -0.411 C  
BRANCH  13  14
HETATM   14  S   UNL     1     -11.745  13.531  64.121  1.00  0.00    -0.396 SA 
BRANCH  14  15
HETATM   15  C   UNL     1     -11.282  15.110  64.707  1.00  0.00    -0.388 A  
HETATM   16  N   UNL     1     -11.656  16.230  64.124  1.00  0.00    -0.946 NA 
HETATM   17  S   UNL     1     -10.231  15.330  66.042  1.00  0.00    -0.343 SA 
HETATM   18  N   UNL     1     -11.076  17.339  64.704  1.00  0.00    -0.959 NA 
HETATM   19  C   UNL     1      -9.526  17.978  66.539  1.00  0.00    -0.306 C  
HETATM   20  C   UNL     1     -10.300  17.015  65.717  1.00  0.00    -0.261 A  
ENDBRANCH  14  15
ENDBRANCH  13  14
ENDBRANCH   4  13
BRANCH   8  21
HETATM   21  N   UNL     1      -9.326   7.702  68.479  1.00  0.00    -0.147 N  
HETATM   22  C   UNL     1      -9.172   6.801  69.512  1.00  0.00    -0.147 C  
HETATM   23  H   UNL     1      -9.766   7.402  67.609  1.00  0.00     0.000 HD 
HETATM   24  O   UNL     1      -8.792   7.147  70.628  1.00  0.00    -0.147 OA 
BRANCH  22  25
HETATM   25  C   UNL     1      -9.512   5.369  69.175  1.00  0.00    -0.133 C  
BRANCH  25  26
HETATM   26  N   UNL     1      -9.048   5.014  67.861  1.00  0.00    -0.111 NA 
HETATM   27  C   UNL     1      -9.751   4.550  66.797  1.00  0.00    -0.206 A  
HETATM   28  N   UNL     1      -8.941   4.467  65.768  1.00  0.00    -0.124 NA 
HETATM   29  N   UNL     1      -7.714   4.894  66.219  1.00  0.00    -0.091 NA 
HETATM   30  N   UNL     1      -7.772   5.241  67.497  1.00  0.00    -0.095 NA 
ENDBRANCH  25  26
ENDBRANCH  22  25
ENDBRANCH   8  21
TORSDOF 6
ENDMDL
MODEL       33
REMARK 921   NORMALIZED FREE ENERGY PREDICTED BY IDOCK:   -6.16 KCAL/MOL
REMARK 922        TOTAL FREE ENERGY PREDICTED BY IDOCK:   -9.30 KCAL/MOL
REMARK 923 INTER-LIGAND FREE ENERGY PREDICTED BY IDOCK:   -8.16 KCAL/MOL
REMARK 924 INTRA-LIGAND FREE ENERGY PREDICTED BY IDOCK:   -1.14 KCAL/MOL
REMARK 927      BINDING AFFINITY PREDICTED BY RF-SCORE:    0.00 PKD
ROOT
HETATM    1  C   UNL     1     -10.411  10.361  66.664  1.00  0.00    -0.231 C  
HETATM    2  S   UNL     1      -9.549  11.156  68.030  1.00  0.00    -0.182 SA 
HETATM    3  C   UNL     1     -10.981  12.158  68.491  1.00  0.00    -0.238 C  
HETATM    4  C   UNL     1     -11.577  12.949  67.335  1.00  0.00    -0.414 C  
HETATM    5  O   UNL     1     -11.712  13.244  63.705  1.00  0.00    -0.430 OA 
HETATM    6  CA  UNL     1     -11.501  12.530  66.035  1.00  0.00    -0.377 C  
HETATM    7  N   UNL     1     -10.832  11.379  65.717  1.00  0.00    -0.260 N  
HETATM    8  CA  UNL     1      -9.524   9.769  65.521  1.00  0.00    -0.262 C  
HETATM    9  C   UNL     1     -12.218  13.303  64.949  1.00  0.00    -0.420 C  
HETATM   10  O   UNL     1     -10.162  11.243  63.497  1.00  0.00    -0.331 OA 
HETATM   11  C   UNL     1     -10.236  10.842  64.636  1.00  0.00    -0.350 C  
HETATM   12  OXT UNL     1     -13.251  13.927  65.164  1.00  0.00    -0.768 OA 
ENDROOT
BRANCH   4  13
HETATM   13  C   UNL     1     -12.276  14.258  67.727  1.00  0.00    -0.164 C  
BRANCH  13  14
HETATM   14  S   UNL     1     -11.299  15.489  68.642  1.00  0.00    -0.361 SA 
BRANCH  14  15
HETATM   15  C   UNL     1     -11.993  15.389  70.242  1.00  0.00    -0.355 A  
HETATM   16  N   UNL     1     -13.289  15.317  70.459  1.00  0.00    -0.248 NA 
HETATM   17  S   UNL     1     -11.046  15.466  71.667  1.00  0.00    -0.035 SA 
HETATM   18  N   UNL     1     -13.598  15.360  71.803  1.00  0.00    -0.468 NA 
HETATM   19  C   UNL     1     -12.513  15.519  74.033  1.00  0.00    -0.789 C  
HETATM   20  C   UNL     1     -12.518  15.443  72.552  1.00  0.00    -0.377 A  
ENDBRANCH  14  15
ENDBRANCH  13  14
ENDBRANCH   4  13
BRANCH   8  21
HETATM   21  N   UNL     1      -8.040   9.955  65.620  1.00  0.00    -0.123 N  
HETATM   22  C   UNL     1      -7.202   8.870  65.780  1.00  0.00    -0.085 C  
HETATM   23  H   UNL     1      -7.645  10.894  65.569  1.00  0.00     0.000 HD 
HETATM   24  O   UNL     1      -7.609   7.714  65.693  1.00  0.00    -0.083 OA 
BRANCH  22  25
HETATM   25  C   UNL     1      -5.757   9.206  66.058  1.00  0.00    -0.049 C  
BRANCH  25  26
HETATM   26  N   UNL     1      -5.634  10.457  66.758  1.00  0.00    -0.046 NA 
HETATM   27  C   UNL     1      -5.616  10.696  68.094  1.00  0.00    -0.036 A  
HETATM   28  N   UNL     1      -5.374  11.972  68.284  1.00  0.00    -0.050 NA 
HETATM   29  N   UNL     1      -5.239  12.521  67.030  1.00  0.00    -0.339 NA 
HETATM   30  N   UNL     1      -5.387  11.598  66.089  1.00  0.00    -0.291 NA 
ENDBRANCH  25  26
ENDBRANCH  22  25
ENDBRANCH   8  21
TORSDOF 6
ENDMDL
MODEL       34
REMARK 921   NORMALIZED FREE ENERGY PREDICTED BY IDOCK:   -6.08 KCAL/MOL
REMARK 922        TOTAL FREE ENERGY PREDICTED BY IDOCK:   -9.20 KCAL/MOL
REMARK 923 INTER-LIGAND FREE ENERGY PREDICTED BY IDOCK:   -8.11 KCAL/MOL
REMARK 924 INTRA-LIGAND FREE ENERGY PREDICTED BY IDOCK:   -1.08 KCAL/MOL
REMARK 927      BINDING AFFINITY PREDICTED BY RF-SCORE:    0.00 PKD
ROOT
HETATM    1  C   UNL     1     -10.656   9.868  67.553  1.00  0.00    -0.275 C  
HETATM    2  S   UNL     1     -11.519  10.940  68.714  1.00  0.00    -0.316 SA 
HETATM    3  C   UNL     1     -10.887  12.453  67.953  1.00  0.00    -0.222 C  
HETATM    4  C   UNL     1      -9.374  12.477  67.795  1.00  0.00    -0.198 C  
HETATM    5  O   UNL     1      -6.366  10.420  67.761  1.00  0.00    -0.059 OA 
HETATM    6  CA  UNL     1      -8.628  11.341  67.638  1.00  0.00    -0.124 C  
HETATM    7  N   UNL     1      -9.228  10.111  67.661  1.00  0.00    -0.140 N  
HETATM    8  CA  UNL     1     -10.370   8.406  68.024  1.00  0.00    -0.215 C  
HETATM    9  C   UNL     1      -7.142  11.443  67.367  1.00  0.00    -0.114 C  
HETATM   10  O   UNL     1      -7.789   8.352  68.145  1.00  0.00    -0.107 OA 
HETATM   11  C   UNL     1      -8.872   8.835  67.905  1.00  0.00    -0.136 C  
HETATM   12  OXT UNL     1      -6.651  12.393  66.768  1.00  0.00    -0.045 OA 
ENDROOT
BRANCH   4  13
HETATM   13  C   UNL     1      -8.733  13.871  67.823  1.00  0.00    -0.187 C  
BRANCH  13  14
HETATM   14  S   UNL     1      -9.530  15.139  68.855  1.00  0.00    -0.221 SA 
BRANCH  14  15
HETATM   15  C   UNL     1      -9.933  16.366  67.679  1.00  0.00    -0.252 A  
HETATM   16  N   UNL     1     -10.138  16.100  66.406  1.00  0.00    -0.291 NA 
HETATM   17  S   UNL     1     -10.010  18.032  68.069  1.00  0.00    -0.364 SA 
HETATM   18  N   UNL     1     -10.332  17.242  65.658  1.00  0.00    -0.619 NA 
HETATM   19  C   UNL     1     -10.444  19.714  65.892  1.00  0.00    -0.591 C  
HETATM   20  C   UNL     1     -10.285  18.329  66.400  1.00  0.00    -0.403 A  
ENDBRANCH  14  15
ENDBRANCH  13  14
ENDBRANCH   4  13
BRANCH   8  21
HETATM   21  N   UNL     1     -10.782   8.025  69.414  1.00  0.00    -0.349 N  
HETATM   22  C   UNL     1     -11.074   6.714  69.729  1.00  0.00    -0.342 C  
HETATM   23  H   UNL     1     -10.848   8.744  70.135  1.00  0.00     0.000 HD 
HETATM   24  O   UNL     1     -10.863   5.792  68.945  1.00  0.00    -0.275 OA 
BRANCH  22  25
HETATM   25  C   UNL     1     -11.658   6.496  71.104  1.00  0.00    -0.335 C  
BRANCH  25  26
HETATM   26  N   UNL     1     -12.599   7.530  71.445  1.00  0.00    -0.349 NA 
HETATM   27  C   UNL     1     -13.955   7.508  71.393  1.00  0.00    -0.356 A  
HETATM   28  N   UNL     1     -14.407   8.631  71.903  1.00  0.00    -0.423 NA 
HETATM   29  N   UNL     1     -13.296   9.350  72.276  1.00  0.00    -0.458 NA 
HETATM   30  N   UNL     1     -12.184   8.679  72.009  1.00  0.00    -0.347 NA 
ENDBRANCH  25  26
ENDBRANCH  22  25
ENDBRANCH   8  21
TORSDOF 6
ENDMDL
MODEL       35
REMARK 921   NORMALIZED FREE ENERGY PREDICTED BY IDOCK:   -6.05 KCAL/MOL
REMARK 922        TOTAL FREE ENERGY PREDICTED BY IDOCK:   -9.16 KCAL/MOL
REMARK 923 INTER-LIGAND FREE ENERGY PREDICTED BY IDOCK:   -8.39 KCAL/MOL
REMARK 924 INTRA-LIGAND FREE ENERGY PREDICTED BY IDOCK:   -0.77 KCAL/MOL
REMARK 927      BINDING AFFINITY PREDICTED BY RF-SCORE:    0.00 PKD
ROOT
HETATM    1  C   UNL     1     -10.496  12.741  66.077  1.00  0.00    -0.274 C  
HETATM    2  S   UNL     1     -12.085  13.572  66.243  1.00  0.00    -0.421 SA 
HETATM    3  C   UNL     1     -11.526  15.047  65.360  1.00  0.00    -0.287 C  
HETATM    4  C   UNL     1     -10.237  15.642  65.907  1.00  0.00    -0.372 C  
HETATM    5  O   UNL     1      -7.318  14.978  67.987  1.00  0.00    -0.107 OA 
HETATM    6  CA  UNL     1      -9.280  14.887  66.528  1.00  0.00    -0.285 C  
HETATM    7  N   UNL     1      -9.474  13.546  66.723  1.00  0.00    -0.263 N  
HETATM    8  CA  UNL     1     -10.173  11.624  67.120  1.00  0.00    -0.213 C  
HETATM    9  C   UNL     1      -7.968  15.520  66.943  1.00  0.00    -0.229 C  
HETATM   10  O   UNL     1      -8.167  12.622  68.406  1.00  0.00    -0.158 OA 
HETATM   11  C   UNL     1      -9.016  12.583  67.545  1.00  0.00    -0.185 C  
HETATM   12  OXT UNL     1      -7.476  16.462  66.332  1.00  0.00    -0.234 OA 
ENDROOT
BRANCH   4  13
HETATM   13  C   UNL     1     -10.078  17.155  65.713  1.00  0.00    -0.172 C  
BRANCH  13  14
HETATM   14  S   UNL     1     -10.597  18.235  67.082  1.00  0.00    -0.321 SA 
BRANCH  14  15
HETATM   15  C   UNL     1      -9.106  19.045  67.493  1.00  0.00    -0.288 A  
HETATM   16  N   UNL     1      -8.620  19.078  68.717  1.00  0.00    -0.348 NA 
HETATM   17  S   UNL     1      -8.194  19.940  66.352  1.00  0.00    -0.317 SA 
HETATM   18  N   UNL     1      -7.494  19.869  68.811  1.00  0.00    -0.271 NA 
HETATM   19  C   UNL     1      -6.007  21.293  67.420  1.00  0.00    -0.427 C  
HETATM   20  C   UNL     1      -7.161  20.389  67.648  1.00  0.00    -0.307 A  
ENDBRANCH  14  15
ENDBRANCH  13  14
ENDBRANCH   4  13
BRANCH   8  21
HETATM   21  N   UNL     1     -11.177  11.368  68.205  1.00  0.00    -0.254 N  
HETATM   22  C   UNL     1     -10.872  10.544  69.268  1.00  0.00    -0.243 C  
HETATM   23  H   UNL     1     -12.095  11.809  68.156  1.00  0.00     0.000 HD 
HETATM   24  O   UNL     1      -9.735  10.115  69.456  1.00  0.00    -0.216 OA 
BRANCH  22  25
HETATM   25  C   UNL     1     -12.027  10.219  70.184  1.00  0.00    -0.234 C  
BRANCH  25  26
HETATM   26  N   UNL     1     -12.527  11.398  70.838  1.00  0.00    -0.390 NA 
HETATM   27  C   UNL     1     -13.303  11.503  71.947  1.00  0.00    -0.303 A  
HETATM   28  N   UNL     1     -13.424  12.774  72.250  1.00  0.00    -0.558 NA 
HETATM   29  N   UNL     1     -12.702  13.459  71.301  1.00  0.00    -0.362 NA 
HETATM   30  N   UNL     1     -12.140  12.623  70.438  1.00  0.00    -0.352 NA 
ENDBRANCH  25  26
ENDBRANCH  22  25
ENDBRANCH   8  21
TORSDOF 6
ENDMDL
MODEL       36
REMARK 921   NORMALIZED FREE ENERGY PREDICTED BY IDOCK:   -6.05 KCAL/MOL
REMARK 922        TOTAL FREE ENERGY PREDICTED BY IDOCK:   -9.16 KCAL/MOL
REMARK 923 INTER-LIGAND FREE ENERGY PREDICTED BY IDOCK:   -7.77 KCAL/MOL
REMARK 924 INTRA-LIGAND FREE ENERGY PREDICTED BY IDOCK:   -1.39 KCAL/MOL
REMARK 927      BINDING AFFINITY PREDICTED BY RF-SCORE:    0.00 PKD
ROOT
HETATM    1  C   UNL     1     -10.202  10.070  66.563  1.00  0.00    -0.224 C  
HETATM    2  S   UNL     1      -9.376  10.958  67.895  1.00  0.00    -0.159 SA 
HETATM    3  C   UNL     1     -10.840  11.943  68.288  1.00  0.00    -0.224 C  
HETATM    4  C   UNL     1     -11.444  12.657  67.087  1.00  0.00    -0.406 C  
HETATM    5  O   UNL     1     -11.545  12.759  63.446  1.00  0.00    -0.499 OA 
HETATM    6  CA  UNL     1     -11.342  12.173  65.812  1.00  0.00    -0.354 C  
HETATM    7  N   UNL     1     -10.639  11.026  65.561  1.00  0.00    -0.234 N  
HETATM    8  CA  UNL     1      -9.287   9.443  65.462  1.00  0.00    -0.251 C  
HETATM    9  C   UNL     1     -12.067  12.869  64.679  1.00  0.00    -0.418 C  
HETATM   10  O   UNL     1      -9.941  10.792  63.357  1.00  0.00    -0.322 OA 
HETATM   11  C   UNL     1     -10.017  10.449  64.515  1.00  0.00    -0.331 C  
HETATM   12  OXT UNL     1     -13.118  13.474  64.851  1.00  0.00    -0.718 OA 
ENDROOT
BRANCH   4  13
HETATM   13  C   UNL     1     -12.182  13.964  67.403  1.00  0.00    -0.256 C  
BRANCH  13  14
HETATM   14  S   UNL     1     -11.471  15.038  68.688  1.00  0.00    -0.326 SA 
BRANCH  14  15
HETATM   15  C   UNL     1     -10.543  16.174  67.740  1.00  0.00    -0.309 A  
HETATM   16  N   UNL     1     -10.509  16.153  66.423  1.00  0.00    -0.306 NA 
HETATM   17  S   UNL     1      -9.529  17.359  68.448  1.00  0.00    -0.302 SA 
HETATM   18  N   UNL     1      -9.622  17.075  65.908  1.00  0.00    -0.526 NA 
HETATM   19  C   UNL     1      -8.020  18.833  66.629  1.00  0.00    -0.278 C  
HETATM   20  C   UNL     1      -9.033  17.773  66.856  1.00  0.00    -0.255 A  
ENDBRANCH  14  15
ENDBRANCH  13  14
ENDBRANCH   4  13
BRANCH   8  21
HETATM   21  N   UNL     1      -7.809   9.674  65.566  1.00  0.00    -0.108 N  
HETATM   22  C   UNL     1      -6.962   8.658  65.956  1.00  0.00    -0.079 C  
HETATM   23  H   UNL     1      -7.425  10.593  65.345  1.00  0.00     0.000 HD 
HETATM   24  O   UNL     1      -7.349   7.498  66.083  1.00  0.00    -0.078 OA 
BRANCH  22  25
HETATM   25  C   UNL     1      -5.531   9.070  66.205  1.00  0.00    -0.041 C  
BRANCH  25  26
HETATM   26  N   UNL     1      -5.457  10.380  66.795  1.00  0.00    -0.041 NA 
HETATM   27  C   UNL     1      -5.451  10.733  68.105  1.00  0.00    -0.036 A  
HETATM   28  N   UNL     1      -5.257  12.029  68.185  1.00  0.00    -0.046 NA 
HETATM   29  N   UNL     1      -5.141  12.473  66.889  1.00  0.00    -0.332 NA 
HETATM   30  N   UNL     1      -5.252  11.468  66.031  1.00  0.00    -0.308 NA 
ENDBRANCH  25  26
ENDBRANCH  22  25
ENDBRANCH   8  21
TORSDOF 6
ENDMDL
MODEL       37
REMARK 921   NORMALIZED FREE ENERGY PREDICTED BY IDOCK:   -6.02 KCAL/MOL
REMARK 922        TOTAL FREE ENERGY PREDICTED BY IDOCK:   -9.12 KCAL/MOL
REMARK 923 INTER-LIGAND FREE ENERGY PREDICTED BY IDOCK:   -7.95 KCAL/MOL
REMARK 924 INTRA-LIGAND FREE ENERGY PREDICTED BY IDOCK:   -1.16 KCAL/MOL
REMARK 927      BINDING AFFINITY PREDICTED BY RF-SCORE:    0.00 PKD
ROOT
HETATM    1  C   UNL     1     -10.908  10.007  67.335  1.00  0.00    -0.249 C  
HETATM    2  S   UNL     1     -10.263  10.911  68.751  1.00  0.00    -0.202 SA 
HETATM    3  C   UNL     1     -11.504  12.218  68.618  1.00  0.00    -0.307 C  
HETATM    4  C   UNL     1     -11.599  12.839  67.232  1.00  0.00    -0.420 C  
HETATM    5  O   UNL     1     -10.747  12.383  63.718  1.00  0.00    -0.388 OA 
HETATM    6  CA  UNL     1     -11.294  12.149  66.090  1.00  0.00    -0.361 C  
HETATM    7  N   UNL     1     -10.840  10.860  66.161  1.00  0.00    -0.156 N  
HETATM    8  CA  UNL     1      -9.919   9.044  66.603  1.00  0.00    -0.278 C  
HETATM    9  C   UNL     1     -11.523  12.788  64.737  1.00  0.00    -0.317 C  
HETATM   10  O   UNL     1      -9.682  10.147  64.278  1.00  0.00    -0.310 OA 
HETATM   11  C   UNL     1     -10.127  10.013  65.395  1.00  0.00    -0.247 C  
HETATM   12  OXT UNL     1     -12.411  13.611  64.545  1.00  0.00    -0.565 OA 
ENDROOT
BRANCH   4  13
HETATM   13  C   UNL     1     -12.063  14.301  67.198  1.00  0.00    -0.377 C  
BRANCH  13  14
HETATM   14  S   UNL     1     -11.414  15.418  68.478  1.00  0.00    -0.359 SA 
BRANCH  14  15
HETATM   15  C   UNL     1     -10.637  16.656  67.522  1.00  0.00    -0.311 A  
HETATM   16  N   UNL     1     -10.408  16.528  66.231  1.00  0.00    -0.319 NA 
HETATM   17  S   UNL     1     -10.031  18.106  68.202  1.00  0.00    -0.379 SA 
HETATM   18  N   UNL     1      -9.686  17.587  65.721  1.00  0.00    -0.540 NA 
HETATM   19  C   UNL     1      -8.644  19.733  66.417  1.00  0.00    -0.398 C  
HETATM   20  C   UNL     1      -9.414  18.486  66.645  1.00  0.00    -0.311 A  
ENDBRANCH  14  15
ENDBRANCH  13  14
ENDBRANCH   4  13
BRANCH   8  21
HETATM   21  N   UNL     1      -8.504   8.989  67.096  1.00  0.00    -0.113 N  
HETATM   22  C   UNL     1      -7.916   7.783  67.419  1.00  0.00    -0.119 C  
HETATM   23  H   UNL     1      -7.970   9.852  67.195  1.00  0.00     0.000 HD 
HETATM   24  O   UNL     1      -8.457   6.707  67.173  1.00  0.00    -0.112 OA 
BRANCH  22  25
HETATM   25  C   UNL     1      -6.563   7.881  68.081  1.00  0.00    -0.059 C  
BRANCH  25  26
HETATM   26  N   UNL     1      -6.636   8.613  69.318  1.00  0.00    -0.049 NA 
HETATM   27  C   UNL     1      -5.816   9.585  69.790  1.00  0.00    -0.036 A  
HETATM   28  N   UNL     1      -6.324  10.050  70.908  1.00  0.00    -0.264 NA 
HETATM   29  N   UNL     1      -7.484   9.342  71.118  1.00  0.00    -0.326 NA 
HETATM   30  N   UNL     1      -7.689   8.467  70.143  1.00  0.00    -0.080 NA 
ENDBRANCH  25  26
ENDBRANCH  22  25
ENDBRANCH   8  21
TORSDOF 6
ENDMDL
MODEL       38
REMARK 921   NORMALIZED FREE ENERGY PREDICTED BY IDOCK:   -5.99 KCAL/MOL
REMARK 922        TOTAL FREE ENERGY PREDICTED BY IDOCK:   -9.08 KCAL/MOL
REMARK 923 INTER-LIGAND FREE ENERGY PREDICTED BY IDOCK:   -7.94 KCAL/MOL
REMARK 924 INTRA-LIGAND FREE ENERGY PREDICTED BY IDOCK:   -1.14 KCAL/MOL
REMARK 927      BINDING AFFINITY PREDICTED BY RF-SCORE:    0.00 PKD
ROOT
HETATM    1  C   UNL     1     -10.903  10.091  67.440  1.00  0.00    -0.249 C  
HETATM    2  S   UNL     1     -10.209  10.985  68.840  1.00  0.00    -0.189 SA 
HETATM    3  C   UNL     1     -11.515  12.235  68.826  1.00  0.00    -0.311 C  
HETATM    4  C   UNL     1     -11.727  12.889  67.468  1.00  0.00    -0.422 C  
HETATM    5  O   UNL     1     -11.084  12.572  63.895  1.00  0.00    -0.359 OA 
HETATM    6  CA  UNL     1     -11.465  12.246  66.289  1.00  0.00    -0.380 C  
HETATM    7  N   UNL     1     -10.950  10.979  66.291  1.00  0.00    -0.178 N  
HETATM    8  CA  UNL     1      -9.919   9.198  66.618  1.00  0.00    -0.273 C  
HETATM    9  C   UNL     1     -11.811  12.911  64.973  1.00  0.00    -0.372 C  
HETATM   10  O   UNL     1      -9.883  10.374  64.317  1.00  0.00    -0.315 OA 
HETATM   11  C   UNL     1     -10.249  10.188  65.456  1.00  0.00    -0.218 C  
HETATM   12  OXT UNL     1     -12.746  13.695  64.863  1.00  0.00    -0.629 OA 
ENDROOT
BRANCH   4  13
HETATM   13  C   UNL     1     -12.260  14.327  67.508  1.00  0.00    -0.202 C  
BRANCH  13  14
HETATM   14  S   UNL     1     -11.483  15.476  68.684  1.00  0.00    -0.371 SA 
BRANCH  14  15
HETATM   15  C   UNL     1     -10.708  16.621  67.617  1.00  0.00    -0.306 A  
HETATM   16  N   UNL     1     -10.426  16.353  66.359  1.00  0.00    -0.304 NA 
HETATM   17  S   UNL     1     -10.172  18.160  68.143  1.00  0.00    -0.391 SA 
HETATM   18  N   UNL     1      -9.717  17.370  65.754  1.00  0.00    -0.543 NA 
HETATM   19  C   UNL     1      -8.767  19.617  66.229  1.00  0.00    -0.401 C  
HETATM   20  C   UNL     1      -9.508  18.378  66.574  1.00  0.00    -0.317 A  
ENDBRANCH  14  15
ENDBRANCH  13  14
ENDBRANCH   4  13
BRANCH   8  21
HETATM   21  N   UNL     1      -8.474   9.196  67.019  1.00  0.00    -0.123 N  
HETATM   22  C   UNL     1      -7.946   8.151  67.748  1.00  0.00    -0.127 C  
HETATM   23  H   UNL     1      -7.875   9.976  66.750  1.00  0.00     0.000 HD 
HETATM   24  O   UNL     1      -8.579   7.120  67.964  1.00  0.00    -0.127 OA 
BRANCH  22  25
HETATM   25  C   UNL     1      -6.538   8.361  68.250  1.00  0.00    -0.060 C  
BRANCH  25  26
HETATM   26  N   UNL     1      -6.515   9.208  69.412  1.00  0.00    -0.044 NA 
HETATM   27  C   UNL     1      -6.493   8.866  70.725  1.00  0.00    -0.052 A  
HETATM   28  N   UNL     1      -6.364   9.961  71.437  1.00  0.00    -0.308 NA 
HETATM   29  N   UNL     1      -6.303  10.995  70.532  1.00  0.00    -0.323 NA 
HETATM   30  N   UNL     1      -6.384  10.542  69.288  1.00  0.00    -0.047 NA 
ENDBRANCH  25  26
ENDBRANCH  22  25
ENDBRANCH   8  21
TORSDOF 6
ENDMDL
MODEL       39
REMARK 921   NORMALIZED FREE ENERGY PREDICTED BY IDOCK:   -5.96 KCAL/MOL
REMARK 922        TOTAL FREE ENERGY PREDICTED BY IDOCK:   -9.04 KCAL/MOL
REMARK 923 INTER-LIGAND FREE ENERGY PREDICTED BY IDOCK:   -7.68 KCAL/MOL
REMARK 924 INTRA-LIGAND FREE ENERGY PREDICTED BY IDOCK:   -1.35 KCAL/MOL
REMARK 927      BINDING AFFINITY PREDICTED BY RF-SCORE:    0.00 PKD
ROOT
HETATM    1  C   UNL     1      -9.275   9.513  68.521  1.00  0.00    -0.131 C  
HETATM    2  S   UNL     1     -11.024   9.928  68.623  1.00  0.00    -0.136 SA 
HETATM    3  C   UNL     1     -10.923  11.144  67.290  1.00  0.00    -0.296 C  
HETATM    4  C   UNL     1      -9.828  12.183  67.486  1.00  0.00    -0.193 C  
HETATM    5  O   UNL     1      -6.770  12.956  69.311  1.00  0.00    -0.109 OA 
HETATM    6  CA  UNL     1      -8.680  11.925  68.183  1.00  0.00    -0.173 C  
HETATM    7  N   UNL     1      -8.491  10.708  68.780  1.00  0.00    -0.141 N  
HETATM    8  CA  UNL     1      -8.621   8.895  69.799  1.00  0.00    -0.134 C  
HETATM    9  C   UNL     1      -7.580  12.964  68.238  1.00  0.00    -0.134 C  
HETATM   10  O   UNL     1      -6.923  10.714  70.494  1.00  0.00    -0.280 OA 
HETATM   11  C   UNL     1      -7.758  10.197  69.787  1.00  0.00    -0.168 C  
HETATM   12  OXT UNL     1      -7.386  13.760  67.327  1.00  0.00    -0.145 OA 
ENDROOT
BRANCH   4  13
HETATM   13  C   UNL     1     -10.098  13.550  66.843  1.00  0.00    -0.256 C  
BRANCH  13  14
HETATM   14  S   UNL     1     -11.778  14.231  66.995  1.00  0.00    -0.416 SA 
BRANCH  14  15
HETATM   15  C   UNL     1     -11.713  15.018  68.552  1.00  0.00    -0.320 A  
HETATM   16  N   UNL     1     -11.177  16.208  68.734  1.00  0.00    -0.352 NA 
HETATM   17  S   UNL     1     -12.263  14.270  69.991  1.00  0.00    -0.362 SA 
HETATM   18  N   UNL     1     -11.144  16.569  70.065  1.00  0.00    -0.303 NA 
HETATM   19  C   UNL     1     -11.780  15.727  72.315  1.00  0.00    -0.580 C  
HETATM   20  C   UNL     1     -11.675  15.644  70.837  1.00  0.00    -0.387 A  
ENDBRANCH  14  15
ENDBRANCH  13  14
ENDBRANCH   4  13
BRANCH   8  21
HETATM   21  N   UNL     1      -9.478   8.747  71.020  1.00  0.00    -0.205 N  
HETATM   22  C   UNL     1      -9.952   7.510  71.404  1.00  0.00    -0.185 C  
HETATM   23  H   UNL     1      -9.713   9.571  71.574  1.00  0.00     0.000 HD 
HETATM   24  O   UNL     1      -9.575   6.471  70.866  1.00  0.00    -0.174 OA 
BRANCH  22  25
HETATM   25  C   UNL     1     -10.954   7.524  72.533  1.00  0.00    -0.313 C  
BRANCH  25  26
HETATM   26  N   UNL     1     -12.197   8.123  72.124  1.00  0.00    -0.336 NA 
HETATM   27  C   UNL     1     -13.369   7.526  71.789  1.00  0.00    -0.315 A  
HETATM   28  N   UNL     1     -14.269   8.460  71.590  1.00  0.00    -0.436 NA 
HETATM   29  N   UNL     1     -13.627   9.656  71.813  1.00  0.00    -0.368 NA 
HETATM   30  N   UNL     1     -12.360   9.458  72.151  1.00  0.00    -0.333 NA 
ENDBRANCH  25  26
ENDBRANCH  22  25
ENDBRANCH   8  21
TORSDOF 6
ENDMDL
MODEL       40
REMARK 921   NORMALIZED FREE ENERGY PREDICTED BY IDOCK:   -5.93 KCAL/MOL
REMARK 922        TOTAL FREE ENERGY PREDICTED BY IDOCK:   -8.99 KCAL/MOL
REMARK 923 INTER-LIGAND FREE ENERGY PREDICTED BY IDOCK:   -8.07 KCAL/MOL
REMARK 924 INTRA-LIGAND FREE ENERGY PREDICTED BY IDOCK:   -0.92 KCAL/MOL
REMARK 927      BINDING AFFINITY PREDICTED BY RF-SCORE:    0.00 PKD
ROOT
HETATM    1  C   UNL     1     -10.309  13.406  68.585  1.00  0.00    -0.205 C  
HETATM    2  S   UNL     1     -11.268  11.992  68.016  1.00  0.00    -0.282 SA 
HETATM    3  C   UNL     1     -10.354  10.822  69.048  1.00  0.00    -0.215 C  
HETATM    4  C   UNL     1      -8.843  10.902  68.880  1.00  0.00    -0.143 C  
HETATM    5  O   UNL     1      -6.105  12.966  67.646  1.00  0.00    -0.131 OA 
HETATM    6  CA  UNL     1      -8.199  12.054  68.522  1.00  0.00    -0.113 C  
HETATM    7  N   UNL     1      -8.911  13.191  68.255  1.00  0.00    -0.191 N  
HETATM    8  CA  UNL     1     -10.266  14.652  67.643  1.00  0.00    -0.232 C  
HETATM    9  C   UNL     1      -6.686  12.095  68.489  1.00  0.00    -0.071 C  
HETATM   10  O   UNL     1      -7.775  14.754  66.965  1.00  0.00    -0.168 OA 
HETATM   11  C   UNL     1      -8.738  14.335  67.565  1.00  0.00    -0.199 C  
HETATM   12  OXT UNL     1      -5.997  11.402  69.229  1.00  0.00    -0.050 OA 
ENDROOT
BRANCH   4  13
HETATM   13  C   UNL     1      -8.084   9.594  69.141  1.00  0.00    -0.104 C  
BRANCH  13  14
HETATM   14  S   UNL     1      -8.527   8.151  68.128  1.00  0.00    -0.126 SA 
BRANCH  14  15
HETATM   15  C   UNL     1      -9.631   7.294  69.176  1.00  0.00    -0.155 A  
HETATM   16  N   UNL     1     -10.686   6.643  68.730  1.00  0.00    -0.237 NA 
HETATM   17  S   UNL     1      -9.482   7.303  70.882  1.00  0.00    -0.158 SA 
HETATM   18  N   UNL     1     -11.463   6.143  69.755  1.00  0.00    -0.401 NA 
HETATM   19  C   UNL     1     -11.557   6.032  72.236  1.00  0.00    -0.359 C  
HETATM   20  C   UNL     1     -10.954   6.420  70.937  1.00  0.00    -0.280 A  
ENDBRANCH  14  15
ENDBRANCH  13  14
ENDBRANCH   4  13
BRANCH   8  21
HETATM   21  N   UNL     1     -10.972  14.557  66.324  1.00  0.00    -0.317 N  
HETATM   22  C   UNL     1     -10.947  15.609  65.432  1.00  0.00    -0.333 C  
HETATM   23  H   UNL     1     -11.477  13.704  66.083  1.00  0.00     0.000 HD 
HETATM   24  O   UNL     1     -10.230  16.592  65.604  1.00  0.00    -0.496 OA 
BRANCH  22  25
HETATM   25  C   UNL     1     -11.851  15.460  64.233  1.00  0.00    -0.199 C  
BRANCH  25  26
HETATM   26  N   UNL     1     -12.319  14.108  64.093  1.00  0.00    -0.678 NA 
HETATM   27  C   UNL     1     -11.983  13.174  63.166  1.00  0.00    -0.176 A  
HETATM   28  N   UNL     1     -12.568  12.043  63.486  1.00  0.00    -0.687 NA 
HETATM   29  N   UNL     1     -13.275  12.297  64.638  1.00  0.00    -0.647 NA 
HETATM   30  N   UNL     1     -13.120  13.557  65.022  1.00  0.00    -0.717 NA 
ENDBRANCH  25  26
ENDBRANCH  22  25
ENDBRANCH   8  21
TORSDOF 6
ENDMDL
MODEL       41
REMARK 921   NORMALIZED FREE ENERGY PREDICTED BY IDOCK:   -5.90 KCAL/MOL
REMARK 922        TOTAL FREE ENERGY PREDICTED BY IDOCK:   -8.96 KCAL/MOL
REMARK 923 INTER-LIGAND FREE ENERGY PREDICTED BY IDOCK:   -7.68 KCAL/MOL
REMARK 924 INTRA-LIGAND FREE ENERGY PREDICTED BY IDOCK:   -1.28 KCAL/MOL
REMARK 927      BINDING AFFINITY PREDICTED BY RF-SCORE:    0.00 PKD
ROOT
HETATM    1  C   UNL     1     -10.267  11.215  69.553  1.00  0.00     0.083 C  
HETATM    2  S   UNL     1     -11.994  10.723  69.419  1.00  0.00    -0.233 SA 
HETATM    3  C   UNL     1     -12.059  10.097  71.113  1.00  0.00    -0.388 C  
HETATM    4  C   UNL     1     -10.954   9.104  71.446  1.00  0.00    -0.414 C  
HETATM    5  O   UNL     1      -7.705   7.827  70.398  1.00  0.00    -0.085 OA 
HETATM    6  CA  UNL     1      -9.730   9.128  70.836  1.00  0.00    -0.284 C  
HETATM    7  N   UNL     1      -9.465  10.041  69.851  1.00  0.00    -0.215 N  
HETATM    8  CA  UNL     1      -9.464  11.336  68.219  1.00  0.00    -0.190 C  
HETATM    9  C   UNL     1      -8.637   8.188  71.298  1.00  0.00    -0.137 C  
HETATM   10  O   UNL     1      -7.705   9.457  68.451  1.00  0.00    -0.085 OA 
HETATM   11  C   UNL     1      -8.615  10.167  68.814  1.00  0.00    -0.133 C  
HETATM   12  OXT UNL     1      -8.558   7.798  72.457  1.00  0.00    -0.115 OA 
ENDROOT
BRANCH   4  13
HETATM   13  C   UNL     1     -11.306   8.066  72.520  1.00  0.00    -0.406 C  
BRANCH  13  14
HETATM   14  S   UNL     1     -12.263   6.611  71.998  1.00  0.00    -0.243 SA 
BRANCH  14  15
HETATM   15  C   UNL     1     -11.294   5.989  70.685  1.00  0.00    -0.231 A  
HETATM   16  N   UNL     1     -11.482   6.334  69.428  1.00  0.00    -0.394 NA 
HETATM   17  S   UNL     1     -10.073   4.811  70.914  1.00  0.00    -0.174 SA 
HETATM   18  N   UNL     1     -10.668   5.629  68.565  1.00  0.00    -0.199 NA 
HETATM   19  C   UNL     1      -8.902   3.881  68.564  1.00  0.00    -0.148 C  
HETATM   20  C   UNL     1      -9.882   4.790  69.207  1.00  0.00    -0.199 A  
ENDBRANCH  14  15
ENDBRANCH  13  14
ENDBRANCH   4  13
BRANCH   8  21
HETATM   21  N   UNL     1     -10.169  10.983  66.943  1.00  0.00    -0.213 N  
HETATM   22  C   UNL     1      -9.568  11.204  65.721  1.00  0.00    -0.221 C  
HETATM   23  H   UNL     1     -11.103  10.576  66.980  1.00  0.00     0.000 HD 
HETATM   24  O   UNL     1      -8.392  11.546  65.624  1.00  0.00     0.064 OA 
BRANCH  22  25
HETATM   25  C   UNL     1     -10.454  10.987  64.518  1.00  0.00    -0.342 C  
BRANCH  25  26
HETATM   26  N   UNL     1     -11.379  12.074  64.344  1.00  0.00    -0.336 NA 
HETATM   27  C   UNL     1     -11.680  12.774  63.221  1.00  0.00    -0.375 A  
HETATM   28  N   UNL     1     -12.661  13.602  63.498  1.00  0.00    -0.784 NA 
HETATM   29  N   UNL     1     -12.963  13.398  64.824  1.00  0.00    -0.701 NA 
HETATM   30  N   UNL     1     -12.190  12.456  65.347  1.00  0.00    -0.579 NA 
ENDBRANCH  25  26
ENDBRANCH  22  25
ENDBRANCH   8  21
TORSDOF 6
ENDMDL
MODEL       42
REMARK 921   NORMALIZED FREE ENERGY PREDICTED BY IDOCK:   -5.90 KCAL/MOL
REMARK 922        TOTAL FREE ENERGY PREDICTED BY IDOCK:   -8.95 KCAL/MOL
REMARK 923 INTER-LIGAND FREE ENERGY PREDICTED BY IDOCK:   -7.81 KCAL/MOL
REMARK 924 INTRA-LIGAND FREE ENERGY PREDICTED BY IDOCK:   -1.14 KCAL/MOL
REMARK 927      BINDING AFFINITY PREDICTED BY RF-SCORE:    0.00 PKD
ROOT
HETATM    1  C   UNL     1      -8.965  14.564  68.548  1.00  0.00    -0.188 C  
HETATM    2  S   UNL     1      -9.839  15.891  69.394  1.00  0.00    -0.273 SA 
HETATM    3  C   UNL     1     -10.825  14.750  70.391  1.00  0.00     0.005 C  
HETATM    4  C   UNL     1     -11.551  13.689  69.577  1.00  0.00    -0.361 C  
HETATM    5  O   UNL     1     -11.684  12.015  66.342  1.00  0.00    -0.518 OA 
HETATM    6  CA  UNL     1     -11.077  13.223  68.381  1.00  0.00    -0.270 C  
HETATM    7  N   UNL     1      -9.930  13.740  67.842  1.00  0.00    -0.234 N  
HETATM    8  CA  UNL     1      -8.345  14.905  67.155  1.00  0.00    -0.221 C  
HETATM    9  C   UNL     1     -11.785  12.082  67.680  1.00  0.00    -0.294 C  
HETATM   10  O   UNL     1      -9.714  13.410  65.552  1.00  0.00    -0.175 OA 
HETATM   11  C   UNL     1      -9.361  13.842  66.626  1.00  0.00    -0.268 C  
HETATM   12  OXT UNL     1     -12.392  11.214  68.296  1.00  0.00    -0.532 OA 
ENDROOT
BRANCH   4  13
HETATM   13  C   UNL     1     -12.858  13.170  70.190  1.00  0.00     0.293 C  
BRANCH  13  14
HETATM   14  S   UNL     1     -12.801  12.584  71.911  1.00  0.00    -0.125 SA 
BRANCH  14  15
HETATM   15  C   UNL     1     -12.911  10.852  71.710  1.00  0.00    -0.451 A  
HETATM   16  N   UNL     1     -14.017  10.173  71.933  1.00  0.00     0.039 NA 
HETATM   17  S   UNL     1     -11.564   9.882  71.290  1.00  0.00    -0.352 SA 
HETATM   18  N   UNL     1     -13.827   8.812  71.815  1.00  0.00    -0.406 NA 
HETATM   19  C   UNL     1     -12.060   7.142  71.296  1.00  0.00    -0.386 C  
HETATM   20  C   UNL     1     -12.586   8.516  71.487  1.00  0.00    -0.316 A  
ENDBRANCH  14  15
ENDBRANCH  13  14
ENDBRANCH   4  13
BRANCH   8  21
HETATM   21  N   UNL     1      -8.571  16.283  66.607  1.00  0.00    -0.236 N  
HETATM   22  C   UNL     1      -7.506  17.112  66.323  1.00  0.00    -0.309 C  
HETATM   23  H   UNL     1      -9.523  16.610  66.443  1.00  0.00     0.000 HD 
HETATM   24  O   UNL     1      -6.343  16.715  66.356  1.00  0.00    -0.252 OA 
BRANCH  22  25
HETATM   25  C   UNL     1      -7.872  18.531  65.963  1.00  0.00    -0.148 C  
BRANCH  25  26
HETATM   26  N   UNL     1      -9.050  18.964  66.664  1.00  0.00    -0.320 NA 
HETATM   27  C   UNL     1      -9.152  19.674  67.817  1.00  0.00    -0.325 A  
HETATM   28  N   UNL     1     -10.420  19.940  68.030  1.00  0.00    -0.399 NA 
HETATM   29  N   UNL     1     -11.105  19.379  66.977  1.00  0.00    -0.328 NA 
HETATM   30  N   UNL     1     -10.273  18.789  66.130  1.00  0.00    -0.454 NA 
ENDBRANCH  25  26
ENDBRANCH  22  25
ENDBRANCH   8  21
TORSDOF 6
ENDMDL
MODEL       43
REMARK 921   NORMALIZED FREE ENERGY PREDICTED BY IDOCK:   -5.89 KCAL/MOL
REMARK 922        TOTAL FREE ENERGY PREDICTED BY IDOCK:   -8.93 KCAL/MOL
REMARK 923 INTER-LIGAND FREE ENERGY PREDICTED BY IDOCK:   -7.79 KCAL/MOL
REMARK 924 INTRA-LIGAND FREE ENERGY PREDICTED BY IDOCK:   -1.14 KCAL/MOL
REMARK 927      BINDING AFFINITY PREDICTED BY RF-SCORE:    0.00 PKD
ROOT
HETATM    1  C   UNL     1      -9.241  11.742  68.252  1.00  0.00    -0.188 C  
HETATM    2  S   UNL     1     -10.793  11.050  67.656  1.00  0.00    -0.276 SA 
HETATM    3  C   UNL     1     -10.567   9.496  68.552  1.00  0.00    -0.212 C  
HETATM    4  C   UNL     1      -9.226   8.825  68.295  1.00  0.00    -0.143 C  
HETATM    5  O   UNL     1      -5.849   9.345  67.025  1.00  0.00    -0.050 OA 
HETATM    6  CA  UNL     1      -8.098   9.528  67.971  1.00  0.00    -0.102 C  
HETATM    7  N   UNL     1      -8.148  10.887  67.821  1.00  0.00    -0.114 N  
HETATM    8  CA  UNL     1      -8.598  12.876  67.391  1.00  0.00    -0.195 C  
HETATM    9  C   UNL     1      -6.770   8.811  67.845  1.00  0.00    -0.066 C  
HETATM   10  O   UNL     1      -6.409  11.779  66.564  1.00  0.00    -0.081 OA 
HETATM   11  C   UNL     1      -7.439  11.847  67.196  1.00  0.00    -0.146 C  
HETATM   12  OXT UNL     1      -6.507   7.806  68.495  1.00  0.00    -0.049 OA 
ENDROOT
BRANCH   4  13
HETATM   13  C   UNL     1      -9.221   7.296  68.424  1.00  0.00    -0.137 C  
BRANCH  13  14
HETATM   14  S   UNL     1     -10.824   6.442  68.337  1.00  0.00    -0.313 SA 
BRANCH  14  15
HETATM   15  C   UNL     1     -11.164   6.132  70.022  1.00  0.00    -0.401 A  
HETATM   16  N   UNL     1     -12.079   6.790  70.703  1.00  0.00    -0.372 NA 
HETATM   17  S   UNL     1     -10.273   5.004  70.953  1.00  0.00    -0.189 SA 
HETATM   18  N   UNL     1     -12.086   6.446  72.038  1.00  0.00    -0.336 NA 
HETATM   19  C   UNL     1     -10.936   4.951  73.657  1.00  0.00    -0.387 C  
HETATM   20  C   UNL     1     -11.186   5.524  72.312  1.00  0.00    -0.220 A  
ENDBRANCH  14  15
ENDBRANCH  13  14
ENDBRANCH   4  13
BRANCH   8  21
HETATM   21  N   UNL     1      -9.286  13.260  66.115  1.00  0.00    -0.468 N  
HETATM   22  C   UNL     1      -9.864  14.505  65.972  1.00  0.00    -0.318 C  
HETATM   23  H   UNL     1      -9.328  12.594  65.344  1.00  0.00     0.000 HD 
HETATM   24  O   UNL     1      -9.710  15.395  66.805  1.00  0.00    -0.227 OA 
BRANCH  22  25
HETATM   25  C   UNL     1     -10.686  14.695  64.721  1.00  0.00    -0.377 C  
BRANCH  25  26
HETATM   26  N   UNL     1     -11.554  13.572  64.487  1.00  0.00    -0.365 NA 
HETATM   27  C   UNL     1     -12.782  13.312  65.004  1.00  0.00    -0.375 A  
HETATM   28  N   UNL     1     -13.255  12.231  64.428  1.00  0.00    -0.749 NA 
HETATM   29  N   UNL     1     -12.290  11.826  63.536  1.00  0.00    -0.473 NA 
HETATM   30  N   UNL     1     -11.249  12.647  63.558  1.00  0.00    -0.464 NA 
ENDBRANCH  25  26
ENDBRANCH  22  25
ENDBRANCH   8  21
TORSDOF 6
ENDMDL
MODEL       44
REMARK 921   NORMALIZED FREE ENERGY PREDICTED BY IDOCK:   -5.87 KCAL/MOL
REMARK 922        TOTAL FREE ENERGY PREDICTED BY IDOCK:   -8.92 KCAL/MOL
REMARK 923 INTER-LIGAND FREE ENERGY PREDICTED BY IDOCK:   -8.34 KCAL/MOL
REMARK 924 INTRA-LIGAND FREE ENERGY PREDICTED BY IDOCK:   -0.58 KCAL/MOL
REMARK 927      BINDING AFFINITY PREDICTED BY RF-SCORE:    0.00 PKD
ROOT
HETATM    1  C   UNL     1     -11.220  11.929  68.499  1.00  0.00    -0.256 C  
HETATM    2  S   UNL     1      -9.540  11.319  68.716  1.00  0.00    -0.103 SA 
HETATM    3  C   UNL     1     -10.089   9.685  69.262  1.00  0.00    -0.193 C  
HETATM    4  C   UNL     1     -11.095   9.723  70.404  1.00  0.00    -0.367 C  
HETATM    5  O   UNL     1     -13.442  11.842  72.215  1.00  0.00    -0.442 OA 
HETATM    6  CA  UNL     1     -11.957  10.767  70.596  1.00  0.00    -0.367 C  
HETATM    7  N   UNL     1     -11.914  11.860  69.773  1.00  0.00    -0.315 N  
HETATM    8  CA  UNL     1     -11.420  13.477  68.555  1.00  0.00    -0.310 C  
HETATM    9  C   UNL     1     -13.012  10.687  71.679  1.00  0.00    -0.477 C  
HETATM   10  O   UNL     1     -12.862  13.779  70.678  1.00  0.00    -0.280 OA 
HETATM   11  C   UNL     1     -12.278  13.156  69.821  1.00  0.00    -0.202 C  
HETATM   12  OXT UNL     1     -13.504   9.623  72.034  1.00  0.00    -0.410 OA 
ENDROOT
BRANCH   4  13
HETATM   13  C   UNL     1     -11.079   8.502  71.333  1.00  0.00    -0.265 C  
BRANCH  13  14
HETATM   14  S   UNL     1     -11.627   6.913  70.638  1.00  0.00    -0.357 SA 
BRANCH  14  15
HETATM   15  C   UNL     1     -11.014   5.772  71.810  1.00  0.00    -0.256 A  
HETATM   16  N   UNL     1     -11.254   5.869  73.101  1.00  0.00    -0.224 NA 
HETATM   17  S   UNL     1      -9.974   4.479  71.385  1.00  0.00    -0.167 SA 
HETATM   18  N   UNL     1     -10.573   4.919  73.833  1.00  0.00    -0.265 NA 
HETATM   19  C   UNL     1      -9.005   3.012  73.545  1.00  0.00    -0.081 C  
HETATM   20  C   UNL     1      -9.858   4.126  73.062  1.00  0.00    -0.133 A  
ENDBRANCH  14  15
ENDBRANCH  13  14
ENDBRANCH   4  13
BRANCH   8  21
HETATM   21  N   UNL     1     -10.218  14.328  68.839  1.00  0.00    -0.310 N  
HETATM   22  C   UNL     1     -10.316  15.704  68.856  1.00  0.00    -0.218 C  
HETATM   23  H   UNL     1      -9.318  13.884  69.021  1.00  0.00     0.000 HD 
HETATM   24  O   UNL     1     -11.399  16.282  68.798  1.00  0.00    -0.350 OA 
BRANCH  22  25
HETATM   25  C   UNL     1      -9.004  16.443  68.962  1.00  0.00    -0.239 C  
BRANCH  25  26
HETATM   26  N   UNL     1      -8.686  17.126  67.737  1.00  0.00    -0.217 NA 
HETATM   27  C   UNL     1      -7.797  16.787  66.770  1.00  0.00    -0.246 A  
HETATM   28  N   UNL     1      -7.916  17.639  65.778  1.00  0.00    -0.541 NA 
HETATM   29  N   UNL     1      -8.905  18.518  66.154  1.00  0.00    -0.494 NA 
HETATM   30  N   UNL     1      -9.390  18.205  67.348  1.00  0.00    -0.253 NA 
ENDBRANCH  25  26
ENDBRANCH  22  25
ENDBRANCH   8  21
TORSDOF 6
ENDMDL
MODEL       45
REMARK 921   NORMALIZED FREE ENERGY PREDICTED BY IDOCK:   -5.85 KCAL/MOL
REMARK 922        TOTAL FREE ENERGY PREDICTED BY IDOCK:   -8.89 KCAL/MOL
REMARK 923 INTER-LIGAND FREE ENERGY PREDICTED BY IDOCK:   -8.00 KCAL/MOL
REMARK 924 INTRA-LIGAND FREE ENERGY PREDICTED BY IDOCK:   -0.89 KCAL/MOL
REMARK 927      BINDING AFFINITY PREDICTED BY RF-SCORE:    0.00 PKD
ROOT
HETATM    1  C   UNL     1      -9.420   9.638  70.025  1.00  0.00    -0.240 C  
HETATM    2  S   UNL     1      -9.534   9.396  68.245  1.00  0.00    -0.138 SA 
HETATM    3  C   UNL     1      -9.872  11.142  67.922  1.00  0.00    -0.174 C  
HETATM    4  C   UNL     1     -11.024  11.709  68.741  1.00  0.00    -0.274 C  
HETATM    5  O   UNL     1     -13.126  11.163  71.668  1.00  0.00    -0.449 OA 
HETATM    6  CA  UNL     1     -11.360  11.225  69.976  1.00  0.00    -0.208 C  
HETATM    7  N   UNL     1     -10.685  10.162  70.511  1.00  0.00    -0.282 N  
HETATM    8  CA  UNL     1      -9.678   8.385  70.923  1.00  0.00    -0.174 C  
HETATM    9  C   UNL     1     -12.439  11.911  70.787  1.00  0.00    -0.291 C  
HETATM   10  O   UNL     1     -11.842   9.032  72.178  1.00  0.00    -0.358 OA 
HETATM   11  C   UNL     1     -10.903   9.208  71.435  1.00  0.00    -0.349 C  
HETATM   12  OXT UNL     1     -12.661  13.112  70.695  1.00  0.00    -0.235 OA 
ENDROOT
BRANCH   4  13
HETATM   13  C   UNL     1     -11.788  12.867  68.086  1.00  0.00    -0.336 C  
BRANCH  13  14
HETATM   14  S   UNL     1     -11.718  12.999  66.274  1.00  0.00    -0.405 SA 
BRANCH  14  15
HETATM   15  C   UNL     1     -11.266  14.671  66.047  1.00  0.00    -0.342 A  
HETATM   16  N   UNL     1     -11.332  15.281  64.882  1.00  0.00    -0.399 NA 
HETATM   17  S   UNL     1     -10.617  15.632  67.307  1.00  0.00    -0.306 SA 
HETATM   18  N   UNL     1     -10.819  16.560  64.932  1.00  0.00    -0.702 NA 
HETATM   19  C   UNL     1      -9.789  18.172  66.519  1.00  0.00    -0.362 C  
HETATM   20  C   UNL     1     -10.402  16.875  66.141  1.00  0.00    -0.320 A  
ENDBRANCH  14  15
ENDBRANCH  13  14
ENDBRANCH   4  13
BRANCH   8  21
HETATM   21  N   UNL     1     -10.051   7.102  70.244  1.00  0.00    -0.187 N  
HETATM   22  C   UNL     1      -9.735   5.885  70.811  1.00  0.00    -0.172 C  
HETATM   23  H   UNL     1     -10.545   7.129  69.351  1.00  0.00     0.000 HD 
HETATM   24  O   UNL     1      -9.283   5.794  71.950  1.00  0.00    -0.145 OA 
BRANCH  22  25
HETATM   25  C   UNL     1      -9.994   4.680  69.940  1.00  0.00    -0.226 C  
BRANCH  25  26
HETATM   26  N   UNL     1      -9.927   5.018  68.543  1.00  0.00    -0.156 NA 
HETATM   27  C   UNL     1      -9.050   4.596  67.597  1.00  0.00    -0.118 A  
HETATM   28  N   UNL     1      -9.432   5.071  66.435  1.00  0.00    -0.142 NA 
HETATM   29  N   UNL     1     -10.572   5.799  66.682  1.00  0.00    -0.287 NA 
HETATM   30  N   UNL     1     -10.889   5.763  67.969  1.00  0.00    -0.218 NA 
ENDBRANCH  25  26
ENDBRANCH  22  25
ENDBRANCH   8  21
TORSDOF 6
ENDMDL
MODEL       46
REMARK 921   NORMALIZED FREE ENERGY PREDICTED BY IDOCK:   -5.85 KCAL/MOL
REMARK 922        TOTAL FREE ENERGY PREDICTED BY IDOCK:   -8.88 KCAL/MOL
REMARK 923 INTER-LIGAND FREE ENERGY PREDICTED BY IDOCK:   -7.80 KCAL/MOL
REMARK 924 INTRA-LIGAND FREE ENERGY PREDICTED BY IDOCK:   -1.08 KCAL/MOL
REMARK 927      BINDING AFFINITY PREDICTED BY RF-SCORE:    0.00 PKD
ROOT
HETATM    1  C   UNL     1      -9.816   8.541  72.226  1.00  0.00    -0.313 C  
HETATM    2  S   UNL     1      -8.798   7.753  70.967  1.00  0.00    -0.143 SA 
HETATM    3  C   UNL     1      -8.473   9.308  70.104  1.00  0.00    -0.191 C  
HETATM    4  C   UNL     1      -9.729  10.095  69.759  1.00  0.00    -0.232 C  
HETATM    5  O   UNL     1     -13.278  10.482  70.494  1.00  0.00    -0.282 OA 
HETATM    6  CA  UNL     1     -10.876  10.022  70.502  1.00  0.00    -0.314 C  
HETATM    7  N   UNL     1     -10.948   9.184  71.581  1.00  0.00    -0.358 N  
HETATM    8  CA  UNL     1     -10.847   7.632  72.968  1.00  0.00    -0.400 C  
HETATM    9  C   UNL     1     -12.049  10.921  70.173  1.00  0.00    -0.349 C  
HETATM   10  O   UNL     1     -13.111   8.626  72.219  1.00  0.00    -0.361 OA 
HETATM   11  C   UNL     1     -11.905   8.566  72.299  1.00  0.00    -0.383 C  
HETATM   12  OXT UNL     1     -11.901  12.032  69.677  1.00  0.00    -0.308 OA 
ENDROOT
BRANCH   4  13
HETATM   13  C   UNL     1      -9.624  10.986  68.514  1.00  0.00    -0.187 C  
BRANCH  13  14
HETATM   14  S   UNL     1      -9.756  10.176  66.891  1.00  0.00    -0.195 SA 
BRANCH  14  15
HETATM   15  C   UNL     1     -10.745  11.307  65.999  1.00  0.00    -0.242 A  
HETATM   16  N   UNL     1     -11.888  11.776  66.454  1.00  0.00    -0.494 NA 
HETATM   17  S   UNL     1     -10.350  11.833  64.417  1.00  0.00    -0.332 SA 
HETATM   18  N   UNL     1     -12.536  12.563  65.526  1.00  0.00    -0.573 NA 
HETATM   19  C   UNL     1     -12.279  13.444  63.216  1.00  0.00    -0.314 C  
HETATM   20  C   UNL     1     -11.847  12.675  64.409  1.00  0.00    -0.387 A  
ENDBRANCH  14  15
ENDBRANCH  13  14
ENDBRANCH   4  13
BRANCH   8  21
HETATM   21  N   UNL     1     -10.950   6.198  72.542  1.00  0.00    -0.245 N  
HETATM   22  C   UNL     1     -10.513   5.183  73.368  1.00  0.00    -0.232 C  
HETATM   23  H   UNL     1     -11.346   5.970  71.630  1.00  0.00     0.000 HD 
HETATM   24  O   UNL     1     -10.173   5.389  74.531  1.00  0.00    -0.243 OA 
BRANCH  22  25
HETATM   25  C   UNL     1     -10.495   3.808  72.746  1.00  0.00    -0.141 C  
BRANCH  25  26
HETATM   26  N   UNL     1      -9.647   3.768  71.584  1.00  0.00    -0.147 NA 
HETATM   27  C   UNL     1      -8.518   3.047  71.369  1.00  0.00    -0.064 A  
HETATM   28  N   UNL     1      -8.135   3.236  70.127  1.00  0.00    -0.045 NA 
HETATM   29  N   UNL     1      -9.058   4.093  69.575  1.00  0.00    -0.107 NA 
HETATM   30  N   UNL     1      -9.994   4.416  70.457  1.00  0.00    -0.213 NA 
ENDBRANCH  25  26
ENDBRANCH  22  25
ENDBRANCH   8  21
TORSDOF 6
ENDMDL
MODEL       47
REMARK 921   NORMALIZED FREE ENERGY PREDICTED BY IDOCK:   -5.84 KCAL/MOL
REMARK 922        TOTAL FREE ENERGY PREDICTED BY IDOCK:   -8.87 KCAL/MOL
REMARK 923 INTER-LIGAND FREE ENERGY PREDICTED BY IDOCK:   -7.90 KCAL/MOL
REMARK 924 INTRA-LIGAND FREE ENERGY PREDICTED BY IDOCK:   -0.98 KCAL/MOL
REMARK 927      BINDING AFFINITY PREDICTED BY RF-SCORE:    0.00 PKD
ROOT
HETATM    1  C   UNL     1     -10.756  10.370  67.210  1.00  0.00    -0.273 C  
HETATM    2  S   UNL     1     -10.223  11.662  68.346  1.00  0.00    -0.211 SA 
HETATM    3  C   UNL     1     -11.467  12.836  67.763  1.00  0.00    -0.326 C  
HETATM    4  C   UNL     1     -11.470  13.032  66.253  1.00  0.00    -0.379 C  
HETATM    5  O   UNL     1     -10.365  11.617  63.082  1.00  0.00    -0.376 OA 
HETATM    6  CA  UNL     1     -11.077  12.054  65.381  1.00  0.00    -0.320 C  
HETATM    7  N   UNL     1     -10.614  10.854  65.848  1.00  0.00    -0.216 N  
HETATM    8  CA  UNL     1      -9.705   9.271  66.852  1.00  0.00    -0.190 C  
HETATM    9  C   UNL     1     -11.217  12.272  63.889  1.00  0.00    -0.421 C  
HETATM   10  O   UNL     1      -9.316   9.669  64.329  1.00  0.00    -0.244 OA 
HETATM   11  C   UNL     1      -9.838   9.846  65.406  1.00  0.00    -0.313 C  
HETATM   12  OXT UNL     1     -12.098  12.977  63.412  1.00  0.00    -0.546 OA 
ENDROOT
BRANCH   4  13
HETATM   13  C   UNL     1     -11.949  14.407  65.770  1.00  0.00    -0.357 C  
BRANCH  13  14
HETATM   14  S   UNL     1     -10.687  15.571  65.171  1.00  0.00    -0.438 SA 
BRANCH  14  15
HETATM   15  C   UNL     1     -10.503  16.644  66.537  1.00  0.00    -0.262 A  
HETATM   16  N   UNL     1     -10.684  16.258  67.783  1.00  0.00    -0.323 NA 
HETATM   17  S   UNL     1     -10.157  18.312  66.363  1.00  0.00    -0.397 SA 
HETATM   18  N   UNL     1     -10.591  17.307  68.674  1.00  0.00    -0.348 NA 
HETATM   19  C   UNL     1     -10.175  19.756  68.744  1.00  0.00    -0.473 C  
HETATM   20  C   UNL     1     -10.324  18.445  68.067  1.00  0.00    -0.384 A  
ENDBRANCH  14  15
ENDBRANCH  13  14
ENDBRANCH   4  13
BRANCH   8  21
HETATM   21  N   UNL     1      -8.328   9.404  67.432  1.00  0.00    -0.124 N  
HETATM   22  C   UNL     1      -7.370   8.438  67.203  1.00  0.00    -0.085 C  
HETATM   23  H   UNL     1      -8.098  10.217  68.002  1.00  0.00     0.000 HD 
HETATM   24  O   UNL     1      -7.545   7.522  66.402  1.00  0.00    -0.085 OA 
BRANCH  22  25
HETATM   25  C   UNL     1      -6.095   8.593  67.995  1.00  0.00    -0.051 C  
BRANCH  25  26
HETATM   26  N   UNL     1      -6.359   9.067  69.327  1.00  0.00    -0.041 NA 
HETATM   27  C   UNL     1      -5.814  10.119  69.989  1.00  0.00    -0.053 A  
HETATM   28  N   UNL     1      -6.431  10.251  71.140  1.00  0.00    -0.327 NA 
HETATM   29  N   UNL     1      -7.377   9.253  71.177  1.00  0.00    -0.283 NA 
HETATM   30  N   UNL     1      -7.347   8.529  70.066  1.00  0.00    -0.054 NA 
ENDBRANCH  25  26
ENDBRANCH  22  25
ENDBRANCH   8  21
TORSDOF 6
ENDMDL
MODEL       48
REMARK 921   NORMALIZED FREE ENERGY PREDICTED BY IDOCK:   -5.83 KCAL/MOL
REMARK 922        TOTAL FREE ENERGY PREDICTED BY IDOCK:   -8.86 KCAL/MOL
REMARK 923 INTER-LIGAND FREE ENERGY PREDICTED BY IDOCK:   -7.49 KCAL/MOL
REMARK 924 INTRA-LIGAND FREE ENERGY PREDICTED BY IDOCK:   -1.37 KCAL/MOL
REMARK 927      BINDING AFFINITY PREDICTED BY RF-SCORE:    0.00 PKD
ROOT
HETATM    1  C   UNL     1     -11.100  11.221  67.773  1.00  0.00    -0.271 C  
HETATM    2  S   UNL     1     -10.574  12.799  68.463  1.00  0.00    -0.238 SA 
HETATM    3  C   UNL     1     -11.891  13.721  67.636  1.00  0.00    -0.378 C  
HETATM    4  C   UNL     1     -11.968  13.474  66.136  1.00  0.00    -0.454 C  
HETATM    5  O   UNL     1     -10.943  11.239  63.446  1.00  0.00    -0.355 OA 
HETATM    6  CA  UNL     1     -11.572  12.299  65.559  1.00  0.00    -0.371 C  
HETATM    7  N   UNL     1     -11.039  11.297  66.324  1.00  0.00    -0.222 N  
HETATM    8  CA  UNL     1     -10.021  10.095  67.688  1.00  0.00    -0.181 C  
HETATM    9  C   UNL     1     -11.786  12.075  64.077  1.00  0.00    -0.408 C  
HETATM   10  O   UNL     1      -9.759   9.762  65.139  1.00  0.00    -0.294 OA 
HETATM   11  C   UNL     1     -10.241  10.227  66.147  1.00  0.00    -0.217 C  
HETATM   12  OXT UNL     1     -12.717  12.588  63.467  1.00  0.00    -0.722 OA 
ENDROOT
BRANCH   4  13
HETATM   13  C   UNL     1     -12.525  14.639  65.307  1.00  0.00    -0.182 C  
BRANCH  13  14
HETATM   14  S   UNL     1     -11.326  15.724  64.476  1.00  0.00    -0.191 SA 
BRANCH  14  15
HETATM   15  C   UNL     1     -10.403  16.346  65.821  1.00  0.00    -0.369 A  
HETATM   16  N   UNL     1     -10.762  17.412  66.507  1.00  0.00    -0.165 NA 
HETATM   17  S   UNL     1      -8.905  15.672  66.306  1.00  0.00    -0.275 SA 
HETATM   18  N   UNL     1      -9.818  17.771  67.447  1.00  0.00    -0.301 NA 
HETATM   19  C   UNL     1      -7.604  17.071  68.332  1.00  0.00    -0.220 C  
HETATM   20  C   UNL     1      -8.789  16.950  67.448  1.00  0.00    -0.204 A  
ENDBRANCH  14  15
ENDBRANCH  13  14
ENDBRANCH   4  13
BRANCH   8  21
HETATM   21  N   UNL     1      -8.627  10.427  68.130  1.00  0.00    -0.122 N  
HETATM   22  C   UNL     1      -8.246  10.263  69.446  1.00  0.00    -0.165 C  
HETATM   23  H   UNL     1      -7.952  10.778  67.450  1.00  0.00     0.000 HD 
HETATM   24  O   UNL     1      -8.967   9.702  70.268  1.00  0.00    -0.231 OA 
BRANCH  22  25
HETATM   25  C   UNL     1      -6.885  10.812  69.797  1.00  0.00    -0.151 C  
BRANCH  25  26
HETATM   26  N   UNL     1      -6.313  11.541  68.697  1.00  0.00    -0.052 NA 
HETATM   27  C   UNL     1      -5.360  11.153  67.812  1.00  0.00    -0.040 A  
HETATM   28  N   UNL     1      -5.224  12.095  66.908  1.00  0.00    -0.312 NA 
HETATM   29  N   UNL     1      -6.120  13.080  67.252  1.00  0.00    -0.314 NA 
HETATM   30  N   UNL     1      -6.799  12.744  68.341  1.00  0.00    -0.083 NA 
ENDBRANCH  25  26
ENDBRANCH  22  25
ENDBRANCH   8  21
TORSDOF 6
ENDMDL
MODEL       49
REMARK 921   NORMALIZED FREE ENERGY PREDICTED BY IDOCK:   -5.80 KCAL/MOL
REMARK 922        TOTAL FREE ENERGY PREDICTED BY IDOCK:   -8.81 KCAL/MOL
REMARK 923 INTER-LIGAND FREE ENERGY PREDICTED BY IDOCK:   -7.28 KCAL/MOL
REMARK 924 INTRA-LIGAND FREE ENERGY PREDICTED BY IDOCK:   -1.54 KCAL/MOL
REMARK 927      BINDING AFFINITY PREDICTED BY RF-SCORE:    0.00 PKD
ROOT
HETATM    1  C   UNL     1      -9.829  13.628  68.375  1.00  0.00    -0.223 C  
HETATM    2  S   UNL     1     -10.807  12.230  67.798  1.00  0.00    -0.232 SA 
HETATM    3  C   UNL     1      -9.913  11.043  68.826  1.00  0.00    -0.207 C  
HETATM    4  C   UNL     1      -8.401  11.100  68.662  1.00  0.00    -0.154 C  
HETATM    5  O   UNL     1      -5.630  13.130  67.442  1.00  0.00    -0.320 OA 
HETATM    6  CA  UNL     1      -7.739  12.245  68.310  1.00  0.00    -0.143 C  
HETATM    7  N   UNL     1      -8.434  13.394  68.046  1.00  0.00    -0.163 N  
HETATM    8  CA  UNL     1      -9.766  14.877  67.438  1.00  0.00    -0.217 C  
HETATM    9  C   UNL     1      -6.225  12.263  68.280  1.00  0.00    -0.054 C  
HETATM   10  O   UNL     1      -7.272  14.945  66.765  1.00  0.00     0.052 OA 
HETATM   11  C   UNL     1      -8.243  14.538  67.362  1.00  0.00    -0.202 C  
HETATM   12  OXT UNL     1      -5.548  11.557  69.018  1.00  0.00    -0.049 OA 
ENDROOT
BRANCH   4  13
HETATM   13  C   UNL     1      -7.662   9.781  68.919  1.00  0.00    -0.082 C  
BRANCH  13  14
HETATM   14  S   UNL     1      -8.036   8.382  67.818  1.00  0.00    -0.123 SA 
BRANCH  14  15
HETATM   15  C   UNL     1      -8.353   9.187  66.301  1.00  0.00    -0.119 A  
HETATM   16  N   UNL     1      -9.542   9.210  65.735  1.00  0.00    -0.268 NA 
HETATM   17  S   UNL     1      -7.122   9.940  65.378  1.00  0.00    -0.127 SA 
HETATM   18  N   UNL     1      -9.518   9.808  64.493  1.00  0.00    -0.261 NA 
HETATM   19  C   UNL     1      -7.956  10.907  62.903  1.00  0.00     0.033 C  
HETATM   20  C   UNL     1      -8.313  10.233  64.175  1.00  0.00    -0.161 A  
ENDBRANCH  14  15
ENDBRANCH  13  14
ENDBRANCH   4  13
BRANCH   8  21
HETATM   21  N   UNL     1     -10.471  14.798  66.117  1.00  0.00    -0.293 N  
HETATM   22  C   UNL     1     -10.760  15.941  65.402  1.00  0.00    -0.399 C  
HETATM   23  H   UNL     1     -10.740  13.888  65.743  1.00  0.00     0.000 HD 
HETATM   24  O   UNL     1     -10.324  17.043  65.729  1.00  0.00    -0.483 OA 
BRANCH  22  25
HETATM   25  C   UNL     1     -11.637  15.740  64.190  1.00  0.00    -0.076 C  
BRANCH  25  26
HETATM   26  N   UNL     1     -12.241  14.434  64.190  1.00  0.00    -0.600 NA 
HETATM   27  C   UNL     1     -12.017  13.384  63.360  1.00  0.00    -0.344 A  
HETATM   28  N   UNL     1     -12.708  12.356  63.796  1.00  0.00    -0.758 NA 
HETATM   29  N   UNL     1     -13.365  12.794  64.922  1.00  0.00    -0.546 NA 
HETATM   30  N   UNL     1     -13.077  14.063  65.177  1.00  0.00    -0.759 NA 
ENDBRANCH  25  26
ENDBRANCH  22  25
ENDBRANCH   8  21
TORSDOF 6
ENDMDL
MODEL       50
REMARK 921   NORMALIZED FREE ENERGY PREDICTED BY IDOCK:   -5.78 KCAL/MOL
REMARK 922        TOTAL FREE ENERGY PREDICTED BY IDOCK:   -8.79 KCAL/MOL
REMARK 923 INTER-LIGAND FREE ENERGY PREDICTED BY IDOCK:   -7.96 KCAL/MOL
REMARK 924 INTRA-LIGAND FREE ENERGY PREDICTED BY IDOCK:   -0.83 KCAL/MOL
REMARK 927      BINDING AFFINITY PREDICTED BY RF-SCORE:    0.00 PKD
ROOT
HETATM    1  C   UNL     1     -11.565  15.096  67.035  1.00  0.00    -0.174 C  
HETATM    2  S   UNL     1     -10.041  15.016  66.080  1.00  0.00    -0.315 SA 
HETATM    3  C   UNL     1     -10.402  13.365  65.440  1.00  0.00    -0.312 C  
HETATM    4  C   UNL     1     -10.740  12.346  66.518  1.00  0.00    -0.265 C  
HETATM    5  O   UNL     1     -11.761  11.940  69.993  1.00  0.00    -0.317 OA 
HETATM    6  CA  UNL     1     -11.317  12.694  67.709  1.00  0.00    -0.297 C  
HETATM    7  N   UNL     1     -11.576  14.007  67.996  1.00  0.00    -0.317 N  
HETATM    8  CA  UNL     1     -11.583  16.074  68.253  1.00  0.00    -0.232 C  
HETATM    9  C   UNL     1     -11.736  11.618  68.689  1.00  0.00    -0.325 C  
HETATM   10  O   UNL     1     -11.816  14.464  70.261  1.00  0.00    -0.281 OA 
HETATM   11  C   UNL     1     -11.763  14.768  69.091  1.00  0.00    -0.313 C  
HETATM   12  OXT UNL     1     -12.090  10.503  68.323  1.00  0.00    -0.319 OA 
ENDROOT
BRANCH   4  13
HETATM   13  C   UNL     1     -10.390  10.891  66.180  1.00  0.00    -0.248 C  
BRANCH  13  14
HETATM   14  S   UNL     1      -8.655  10.380  66.371  1.00  0.00    -0.136 SA 
BRANCH  14  15
HETATM   15  C   UNL     1      -8.818   8.708  66.848  1.00  0.00    -0.132 A  
HETATM   16  N   UNL     1      -7.790   7.945  67.156  1.00  0.00    -0.107 NA 
HETATM   17  S   UNL     1     -10.326   7.896  66.872  1.00  0.00    -0.293 SA 
HETATM   18  N   UNL     1      -8.160   6.637  67.391  1.00  0.00    -0.120 NA 
HETATM   19  C   UNL     1     -10.170   5.176  67.451  1.00  0.00    -0.224 C  
HETATM   20  C   UNL     1      -9.461   6.467  67.272  1.00  0.00    -0.123 A  
ENDBRANCH  14  15
ENDBRANCH  13  14
ENDBRANCH   4  13
BRANCH   8  21
HETATM   21  N   UNL     1     -10.323  16.825  68.566  1.00  0.00    -0.295 N  
HETATM   22  C   UNL     1     -10.123  18.101  68.083  1.00  0.00    -0.378 C  
HETATM   23  H   UNL     1      -9.605  16.386  69.142  1.00  0.00     0.000 HD 
HETATM   24  O   UNL     1     -11.015  18.732  67.518  1.00  0.00    -0.407 OA 
BRANCH  22  25
HETATM   25  C   UNL     1      -8.742  18.668  68.307  1.00  0.00    -0.323 C  
BRANCH  25  26
HETATM   26  N   UNL     1      -8.024  18.806  67.069  1.00  0.00    -0.241 NA 
HETATM   27  C   UNL     1      -7.346  17.868  66.360  1.00  0.00    -0.265 A  
HETATM   28  N   UNL     1      -6.940  18.412  65.235  1.00  0.00    -0.503 NA 
HETATM   29  N   UNL     1      -7.385  19.712  65.263  1.00  0.00    -0.374 NA 
HETATM   30  N   UNL     1      -8.059  19.960  66.378  1.00  0.00    -0.324 NA 
ENDBRANCH  25  26
ENDBRANCH  22  25
ENDBRANCH   8  21
TORSDOF 6
ENDMDL
MODEL       51
REMARK 921   NORMALIZED FREE ENERGY PREDICTED BY IDOCK:   -5.75 KCAL/MOL
REMARK 922        TOTAL FREE ENERGY PREDICTED BY IDOCK:   -8.75 KCAL/MOL
REMARK 923 INTER-LIGAND FREE ENERGY PREDICTED BY IDOCK:   -8.36 KCAL/MOL
REMARK 924 INTRA-LIGAND FREE ENERGY PREDICTED BY IDOCK:   -0.39 KCAL/MOL
REMARK 927      BINDING AFFINITY PREDICTED BY RF-SCORE:    0.00 PKD
ROOT
HETATM    1  C   UNL     1     -11.538  11.812  67.836  1.00  0.00    -0.307 C  
HETATM    2  S   UNL     1      -9.852  11.181  67.890  1.00  0.00    -0.178 SA 
HETATM    3  C   UNL     1     -10.310   9.737  68.875  1.00  0.00    -0.210 C  
HETATM    4  C   UNL     1     -11.093  10.074  70.136  1.00  0.00    -0.371 C  
HETATM    5  O   UNL     1     -13.055  12.654  71.803  1.00  0.00    -0.416 OA 
HETATM    6  CA  UNL     1     -11.897  11.177  70.234  1.00  0.00    -0.366 C  
HETATM    7  N   UNL     1     -11.992  12.059  69.193  1.00  0.00    -0.296 N  
HETATM    8  CA  UNL     1     -11.709  13.343  67.576  1.00  0.00    -0.366 C  
HETATM    9  C   UNL     1     -12.740  11.389  71.474  1.00  0.00    -0.357 C  
HETATM   10  O   UNL     1     -12.742  14.175  69.793  1.00  0.00    -0.212 OA 
HETATM   11  C   UNL     1     -12.328  13.350  69.010  1.00  0.00     0.023 C  
HETATM   12  OXT UNL     1     -13.171  10.454  72.139  1.00  0.00    -0.452 OA 
ENDROOT
BRANCH   4  13
HETATM   13  C   UNL     1     -10.923   9.087  71.298  1.00  0.00    -0.313 C  
BRANCH  13  14
HETATM   14  S   UNL     1     -11.732   7.465  71.147  1.00  0.00    -0.303 SA 
BRANCH  14  15
HETATM   15  C   UNL     1     -10.367   6.396  70.930  1.00  0.00    -0.204 A  
HETATM   16  N   UNL     1      -9.529   6.097  71.901  1.00  0.00    -0.151 NA 
HETATM   17  S   UNL     1      -9.956   5.717  69.413  1.00  0.00    -0.205 SA 
HETATM   18  N   UNL     1      -8.474   5.326  71.460  1.00  0.00    -0.121 NA 
HETATM   19  C   UNL     1      -7.583   4.260  69.399  1.00  0.00    -0.054 C  
HETATM   20  C   UNL     1      -8.566   5.056  70.174  1.00  0.00    -0.098 A  
ENDBRANCH  14  15
ENDBRANCH  13  14
ENDBRANCH   4  13
BRANCH   8  21
HETATM   21  N   UNL     1     -10.467  14.174  67.449  1.00  0.00    -0.269 N  
HETATM   22  C   UNL     1     -10.224  14.909  66.307  1.00  0.00    -0.294 C  
HETATM   23  H   UNL     1      -9.794  14.196  68.215  1.00  0.00     0.000 HD 
HETATM   24  O   UNL     1     -11.068  15.041  65.424  1.00  0.00    -0.344 OA 
BRANCH  22  25
HETATM   25  C   UNL     1      -8.857  15.544  66.227  1.00  0.00    -0.303 C  
BRANCH  25  26
HETATM   26  N   UNL     1      -8.949  16.974  66.099  1.00  0.00    -0.465 NA 
HETATM   27  C   UNL     1     -10.049  17.770  66.121  1.00  0.00    -0.304 A  
HETATM   28  N   UNL     1      -9.656  19.022  66.082  1.00  0.00    -0.451 NA 
HETATM   29  N   UNL     1      -8.282  18.984  66.038  1.00  0.00    -0.464 NA 
HETATM   30  N   UNL     1      -7.840  17.734  66.059  1.00  0.00    -0.512 NA 
ENDBRANCH  25  26
ENDBRANCH  22  25
ENDBRANCH   8  21
TORSDOF 6
ENDMDL
MODEL       52
REMARK 921   NORMALIZED FREE ENERGY PREDICTED BY IDOCK:   -5.75 KCAL/MOL
REMARK 922        TOTAL FREE ENERGY PREDICTED BY IDOCK:   -8.75 KCAL/MOL
REMARK 923 INTER-LIGAND FREE ENERGY PREDICTED BY IDOCK:   -7.62 KCAL/MOL
REMARK 924 INTRA-LIGAND FREE ENERGY PREDICTED BY IDOCK:   -1.13 KCAL/MOL
REMARK 927      BINDING AFFINITY PREDICTED BY RF-SCORE:    0.00 PKD
ROOT
HETATM    1  C   UNL     1     -11.996  13.613  66.050  1.00  0.00    -0.413 C  
HETATM    2  S   UNL     1     -10.711  14.234  64.953  1.00  0.00    -0.428 SA 
HETATM    3  C   UNL     1     -10.623  12.694  64.010  1.00  0.00    -0.427 C  
HETATM    4  C   UNL     1     -10.427  11.455  64.872  1.00  0.00    -0.363 C  
HETATM    5  O   UNL     1     -10.663  10.136  68.261  1.00  0.00    -0.208 OA 
HETATM    6  CA  UNL     1     -10.876  11.372  66.161  1.00  0.00    -0.255 C  
HETATM    7  N   UNL     1     -11.493  12.443  66.749  1.00  0.00    -0.341 N  
HETATM    8  CA  UNL     1     -12.124  14.303  67.447  1.00  0.00    -0.336 C  
HETATM    9  C   UNL     1     -10.755  10.069  66.922  1.00  0.00    -0.140 C  
HETATM   10  O   UNL     1     -11.484  12.399  69.072  1.00  0.00    -0.259 OA 
HETATM   11  C   UNL     1     -11.729  12.894  67.996  1.00  0.00    -0.356 C  
HETATM   12  OXT UNL     1     -10.786   8.980  66.361  1.00  0.00    -0.050 OA 
ENDROOT
BRANCH   4  13
HETATM   13  C   UNL     1      -9.688  10.294  64.193  1.00  0.00    -0.291 C  
BRANCH  13  14
HETATM   14  S   UNL     1      -7.893  10.175  64.457  1.00  0.00    -0.119 SA 
BRANCH  14  15
HETATM   15  C   UNL     1      -7.723   8.555  65.089  1.00  0.00    -0.102 A  
HETATM   16  N   UNL     1      -7.435   8.303  66.348  1.00  0.00    -0.079 NA 
HETATM   17  S   UNL     1      -7.834   7.161  64.101  1.00  0.00    -0.086 SA 
HETATM   18  N   UNL     1      -7.245   6.956  66.581  1.00  0.00    -0.074 NA 
HETATM   19  C   UNL     1      -7.273   4.766  65.407  1.00  0.00    -0.071 C  
HETATM   20  C   UNL     1      -7.417   6.240  65.490  1.00  0.00    -0.083 A  
ENDBRANCH  14  15
ENDBRANCH  13  14
ENDBRANCH   4  13
BRANCH   8  21
HETATM   21  N   UNL     1     -11.140  15.382  67.786  1.00  0.00    -0.312 N  
HETATM   22  C   UNL     1     -11.224  16.062  68.983  1.00  0.00    -0.347 C  
HETATM   23  H   UNL     1     -10.400  15.616  67.124  1.00  0.00     0.000 HD 
HETATM   24  O   UNL     1     -11.995  15.718  69.876  1.00  0.00    -0.355 OA 
BRANCH  22  25
HETATM   25  C   UNL     1     -10.298  17.247  69.118  1.00  0.00    -0.290 C  
BRANCH  25  26
HETATM   26  N   UNL     1      -9.826  17.693  67.835  1.00  0.00    -0.288 NA 
HETATM   27  C   UNL     1      -8.570  17.658  67.323  1.00  0.00    -0.231 A  
HETATM   28  N   UNL     1      -8.618  18.068  66.076  1.00  0.00    -0.517 NA 
HETATM   29  N   UNL     1      -9.939  18.357  65.826  1.00  0.00    -0.500 NA 
HETATM   30  N   UNL     1     -10.688  18.120  66.895  1.00  0.00    -0.293 NA 
ENDBRANCH  25  26
ENDBRANCH  22  25
ENDBRANCH   8  21
TORSDOF 6
ENDMDL
MODEL       53
REMARK 921   NORMALIZED FREE ENERGY PREDICTED BY IDOCK:   -5.73 KCAL/MOL
REMARK 922        TOTAL FREE ENERGY PREDICTED BY IDOCK:   -8.73 KCAL/MOL
REMARK 923 INTER-LIGAND FREE ENERGY PREDICTED BY IDOCK:   -7.96 KCAL/MOL
REMARK 924 INTRA-LIGAND FREE ENERGY PREDICTED BY IDOCK:   -0.77 KCAL/MOL
REMARK 927      BINDING AFFINITY PREDICTED BY RF-SCORE:    0.00 PKD
ROOT
HETATM    1  C   UNL     1      -9.451   9.097  70.918  1.00  0.00    -0.276 C  
HETATM    2  S   UNL     1      -9.321   9.221  69.127  1.00  0.00    -0.161 SA 
HETATM    3  C   UNL     1      -9.939  10.919  69.093  1.00  0.00    -0.161 C  
HETATM    4  C   UNL     1     -11.259  11.109  69.828  1.00  0.00    -0.318 C  
HETATM    5  O   UNL     1     -13.532   9.631  72.263  1.00  0.00    -0.441 OA 
HETATM    6  CA  UNL     1     -11.634  10.329  70.887  1.00  0.00    -0.365 C  
HETATM    7  N   UNL     1     -10.836   9.299  71.305  1.00  0.00    -0.320 N  
HETATM    8  CA  UNL     1      -9.569   7.658  71.517  1.00  0.00    -0.154 C  
HETATM    9  C   UNL     1     -12.904  10.648  71.648  1.00  0.00    -0.465 C  
HETATM   10  O   UNL     1     -11.940   7.673  72.543  1.00  0.00    -0.288 OA 
HETATM   11  C   UNL     1     -10.975   8.149  71.991  1.00  0.00    -0.286 C  
HETATM   12  OXT UNL     1     -13.333  11.791  71.753  1.00  0.00    -0.407 OA 
ENDROOT
BRANCH   4  13
HETATM   13  C   UNL     1     -12.147  12.243  69.299  1.00  0.00    -0.166 C  
BRANCH  13  14
HETATM   14  S   UNL     1     -11.323  13.641  68.478  1.00  0.00    -0.314 SA 
BRANCH  14  15
HETATM   15  C   UNL     1     -11.788  13.410  66.811  1.00  0.00    -0.403 A  
HETATM   16  N   UNL     1     -12.496  14.292  66.134  1.00  0.00    -0.412 NA 
HETATM   17  S   UNL     1     -11.436  11.977  65.942  1.00  0.00    -0.280 SA 
HETATM   18  N   UNL     1     -12.831  13.837  64.876  1.00  0.00    -0.720 NA 
HETATM   19  C   UNL     1     -12.542  11.868  63.388  1.00  0.00    -0.555 C  
HETATM   20  C   UNL     1     -12.347  12.635  64.642  1.00  0.00    -0.476 A  
ENDBRANCH  14  15
ENDBRANCH  13  14
ENDBRANCH   4  13
BRANCH   8  21
HETATM   21  N   UNL     1      -9.621   6.504  70.561  1.00  0.00    -0.169 N  
HETATM   22  C   UNL     1      -9.940   5.237  71.002  1.00  0.00    -0.201 C  
HETATM   23  H   UNL     1      -9.418   6.659  69.574  1.00  0.00     0.000 HD 
HETATM   24  O   UNL     1     -10.343   5.025  72.144  1.00  0.00    -0.204 OA 
BRANCH  22  25
HETATM   25  C   UNL     1      -9.771   4.137  69.982  1.00  0.00    -0.212 C  
BRANCH  25  26
HETATM   26  N   UNL     1      -8.443   3.584  70.022  1.00  0.00    -0.055 NA 
HETATM   27  C   UNL     1      -8.054   2.284  70.018  1.00  0.00    -0.041 A  
HETATM   28  N   UNL     1      -6.743   2.244  69.950  1.00  0.00    -0.033 NA 
HETATM   29  N   UNL     1      -6.327   3.554  69.910  1.00  0.00    -0.028 NA 
HETATM   30  N   UNL     1      -7.363   4.382  69.942  1.00  0.00    -0.049 NA 
ENDBRANCH  25  26
ENDBRANCH  22  25
ENDBRANCH   8  21
TORSDOF 6
ENDMDL
MODEL       54
REMARK 921   NORMALIZED FREE ENERGY PREDICTED BY IDOCK:   -5.72 KCAL/MOL
REMARK 922        TOTAL FREE ENERGY PREDICTED BY IDOCK:   -8.71 KCAL/MOL
REMARK 923 INTER-LIGAND FREE ENERGY PREDICTED BY IDOCK:   -7.80 KCAL/MOL
REMARK 924 INTRA-LIGAND FREE ENERGY PREDICTED BY IDOCK:   -0.91 KCAL/MOL
REMARK 927      BINDING AFFINITY PREDICTED BY RF-SCORE:    0.00 PKD
ROOT
HETATM    1  C   UNL     1      -9.869  13.490  68.695  1.00  0.00    -0.125 C  
HETATM    2  S   UNL     1     -11.435  14.187  69.249  1.00  0.00    -0.309 SA 
HETATM    3  C   UNL     1     -11.869  12.720  70.212  1.00  0.00    -0.212 C  
HETATM    4  C   UNL     1     -11.790  11.420  69.425  1.00  0.00    -0.419 C  
HETATM    5  O   UNL     1     -10.457   9.856  66.415  1.00  0.00    -0.205 OA 
HETATM    6  CA  UNL     1     -10.935  11.244  68.372  1.00  0.00    -0.219 C  
HETATM    7  N   UNL     1     -10.133  12.271  67.952  1.00  0.00    -0.194 N  
HETATM    8  CA  UNL     1      -9.265  14.076  67.379  1.00  0.00    -0.216 C  
HETATM    9  C   UNL     1     -10.822   9.888  67.708  1.00  0.00    -0.264 C  
HETATM   10  O   UNL     1      -9.362  12.055  65.771  1.00  0.00    -0.215 OA 
HETATM   11  C   UNL     1      -9.482  12.630  66.829  1.00  0.00    -0.237 C  
HETATM   12  OXT UNL     1     -11.005   8.843  68.322  1.00  0.00    -0.051 OA 
ENDROOT
BRANCH   4  13
HETATM   13  C   UNL     1     -12.739  10.310  69.895  1.00  0.00     0.165 C  
BRANCH  13  14
HETATM   14  S   UNL     1     -12.727   9.889  71.664  1.00  0.00    -0.455 SA 
BRANCH  14  15
HETATM   15  C   UNL     1     -11.680   8.491  71.699  1.00  0.00    -0.306 A  
HETATM   16  N   UNL     1     -10.399   8.561  71.996  1.00  0.00    -0.309 NA 
HETATM   17  S   UNL     1     -12.215   6.923  71.264  1.00  0.00    -0.373 SA 
HETATM   18  N   UNL     1      -9.762   7.346  71.849  1.00  0.00    -0.155 NA 
HETATM   19  C   UNL     1     -10.213   4.988  71.207  1.00  0.00    -0.273 C  
HETATM   20  C   UNL     1     -10.592   6.399  71.464  1.00  0.00    -0.231 A  
ENDBRANCH  14  15
ENDBRANCH  13  14
ENDBRANCH   4  13
BRANCH   8  21
HETATM   21  N   UNL     1     -10.054  15.124  66.652  1.00  0.00    -0.257 N  
HETATM   22  C   UNL     1      -9.433  16.240  66.130  1.00  0.00    -0.339 C  
HETATM   23  H   UNL     1     -11.062  15.011  66.543  1.00  0.00     0.000 HD 
HETATM   24  O   UNL     1      -8.209  16.349  66.097  1.00  0.00    -0.324 OA 
BRANCH  22  25
HETATM   25  C   UNL     1     -10.360  17.304  65.596  1.00  0.00    -0.171 C  
BRANCH  25  26
HETATM   26  N   UNL     1     -10.331  18.485  66.416  1.00  0.00    -0.408 NA 
HETATM   27  C   UNL     1     -10.422  18.597  67.765  1.00  0.00    -0.411 A  
HETATM   28  N   UNL     1     -10.236  19.855  68.091  1.00  0.00    -0.439 NA 
HETATM   29  N   UNL     1     -10.024  20.524  66.908  1.00  0.00    -0.416 NA 
HETATM   30  N   UNL     1     -10.070  19.691  65.877  1.00  0.00    -0.427 NA 
ENDBRANCH  25  26
ENDBRANCH  22  25
ENDBRANCH   8  21
TORSDOF 6
ENDMDL
MODEL       55
REMARK 921   NORMALIZED FREE ENERGY PREDICTED BY IDOCK:   -5.71 KCAL/MOL
REMARK 922        TOTAL FREE ENERGY PREDICTED BY IDOCK:   -8.70 KCAL/MOL
REMARK 923 INTER-LIGAND FREE ENERGY PREDICTED BY IDOCK:   -7.53 KCAL/MOL
REMARK 924 INTRA-LIGAND FREE ENERGY PREDICTED BY IDOCK:   -1.17 KCAL/MOL
REMARK 927      BINDING AFFINITY PREDICTED BY RF-SCORE:    0.00 PKD
ROOT
HETATM    1  C   UNL     1      -9.169   9.198  67.778  1.00  0.00    -0.133 C  
HETATM    2  S   UNL     1     -10.632  10.232  67.958  1.00  0.00    -0.251 SA 
HETATM    3  C   UNL     1     -10.974   9.642  69.632  1.00  0.00    -0.229 C  
HETATM    4  C   UNL     1     -11.030   8.126  69.752  1.00  0.00    -0.133 C  
HETATM    5  O   UNL     1     -10.138   4.991  68.121  1.00  0.00    -0.152 OA 
HETATM    6  CA  UNL     1     -10.323   7.293  68.928  1.00  0.00    -0.201 C  
HETATM    7  N   UNL     1      -9.557   7.805  67.917  1.00  0.00    -0.144 N  
HETATM    8  CA  UNL     1      -8.726   8.854  66.319  1.00  0.00    -0.141 C  
HETATM    9  C   UNL     1     -10.331   5.799  69.177  1.00  0.00    -0.248 C  
HETATM   10  O   UNL     1      -9.081   6.296  66.216  1.00  0.00    -0.152 OA 
HETATM   11  C   UNL     1      -9.049   7.385  66.743  1.00  0.00    -0.151 C  
HETATM   12  OXT UNL     1     -10.459   5.325  70.300  1.00  0.00    -0.279 OA 
ENDROOT
BRANCH   4  13
HETATM   13  C   UNL     1     -11.938   7.589  70.866  1.00  0.00    -0.251 C  
BRANCH  13  14
HETATM   14  S   UNL     1     -11.775   8.339  72.515  1.00  0.00    -0.327 SA 
BRANCH  14  15
HETATM   15  C   UNL     1     -10.378   7.510  73.156  1.00  0.00    -0.347 A  
HETATM   16  N   UNL     1     -10.466   6.444  73.925  1.00  0.00    -0.307 NA 
HETATM   17  S   UNL     1      -8.778   8.067  72.910  1.00  0.00    -0.235 SA 
HETATM   18  N   UNL     1      -9.236   6.036  74.396  1.00  0.00    -0.135 NA 
HETATM   19  C   UNL     1      -6.825   6.631  74.282  1.00  0.00    -0.084 C  
HETATM   20  C   UNL     1      -8.261   6.800  73.948  1.00  0.00    -0.125 A  
ENDBRANCH  14  15
ENDBRANCH  13  14
ENDBRANCH   4  13
BRANCH   8  21
HETATM   21  N   UNL     1      -9.576   9.359  65.192  1.00  0.00    -0.453 N  
HETATM   22  C   UNL     1      -9.092  10.305  64.312  1.00  0.00    -0.243 C  
HETATM   23  H   UNL     1     -10.523   8.999  65.075  1.00  0.00     0.000 HD 
HETATM   24  O   UNL     1      -7.914  10.656  64.315  1.00  0.00    -0.058 OA 
BRANCH  22  25
HETATM   25  C   UNL     1     -10.107  10.867  63.346  1.00  0.00    -0.340 C  
BRANCH  25  26
HETATM   26  N   UNL     1     -11.100  11.654  64.027  1.00  0.00    -0.373 NA 
HETATM   27  C   UNL     1     -12.394  11.882  63.690  1.00  0.00    -0.481 A  
HETATM   28  N   UNL     1     -12.960  12.568  64.656  1.00  0.00    -0.844 NA 
HETATM   29  N   UNL     1     -11.984  12.758  65.605  1.00  0.00    -0.431 NA 
HETATM   30  N   UNL     1     -10.843  12.193  65.233  1.00  0.00    -0.284 NA 
ENDBRANCH  25  26
ENDBRANCH  22  25
ENDBRANCH   8  21
TORSDOF 6
ENDMDL
MODEL       56
REMARK 921   NORMALIZED FREE ENERGY PREDICTED BY IDOCK:   -5.71 KCAL/MOL
REMARK 922        TOTAL FREE ENERGY PREDICTED BY IDOCK:   -8.70 KCAL/MOL
REMARK 923 INTER-LIGAND FREE ENERGY PREDICTED BY IDOCK:   -7.62 KCAL/MOL
REMARK 924 INTRA-LIGAND FREE ENERGY PREDICTED BY IDOCK:   -1.08 KCAL/MOL
REMARK 927      BINDING AFFINITY PREDICTED BY RF-SCORE:    0.00 PKD
ROOT
HETATM    1  C   UNL     1     -10.615   8.515  67.178  1.00  0.00    -0.243 C  
HETATM    2  S   UNL     1     -10.448   9.930  68.279  1.00  0.00    -0.222 SA 
HETATM    3  C   UNL     1     -11.058  11.099  67.044  1.00  0.00    -0.273 C  
HETATM    4  C   UNL     1     -10.333  11.018  65.708  1.00  0.00    -0.316 C  
HETATM    5  O   UNL     1      -8.160   8.951  63.637  1.00  0.00    -0.151 OA 
HETATM    6  CA  UNL     1      -9.760   9.865  65.246  1.00  0.00    -0.313 C  
HETATM    7  N   UNL     1      -9.782   8.728  66.008  1.00  0.00    -0.242 N  
HETATM    8  CA  UNL     1      -9.727   7.268  67.494  1.00  0.00    -0.145 C  
HETATM    9  C   UNL     1      -9.159   9.823  63.857  1.00  0.00    -0.233 C  
HETATM   10  O   UNL     1      -8.160   7.164  65.442  1.00  0.00    -0.125 OA 
HETATM   11  C   UNL     1      -9.079   7.584  66.108  1.00  0.00    -0.137 C  
HETATM   12  OXT UNL     1      -9.584  10.516  62.940  1.00  0.00    -0.310 OA 
ENDROOT
BRANCH   4  13
HETATM   13  C   UNL     1     -10.288  12.325  64.905  1.00  0.00    -0.290 C  
BRANCH  13  14
HETATM   14  S   UNL     1     -11.875  13.107  64.486  1.00  0.00    -0.402 SA 
BRANCH  14  15
HETATM   15  C   UNL     1     -11.541  14.795  64.786  1.00  0.00    -0.418 A  
HETATM   16  N   UNL     1     -11.823  15.748  63.922  1.00  0.00    -0.540 NA 
HETATM   17  S   UNL     1     -10.738  15.342  66.197  1.00  0.00    -0.308 SA 
HETATM   18  N   UNL     1     -11.365  16.981  64.336  1.00  0.00    -1.052 NA 
HETATM   19  C   UNL     1     -10.163  18.067  66.220  1.00  0.00    -0.381 C  
HETATM   20  C   UNL     1     -10.771  16.916  65.509  1.00  0.00    -0.163 A  
ENDBRANCH  14  15
ENDBRANCH  13  14
ENDBRANCH   4  13
BRANCH   8  21
HETATM   21  N   UNL     1      -8.771   7.364  68.645  1.00  0.00    -0.128 N  
HETATM   22  C   UNL     1      -8.166   6.234  69.155  1.00  0.00    -0.114 C  
HETATM   23  H   UNL     1      -8.567   8.274  69.056  1.00  0.00     0.000 HD 
HETATM   24  O   UNL     1      -8.256   5.140  68.602  1.00  0.00    -0.086 OA 
BRANCH  22  25
HETATM   25  C   UNL     1      -7.381   6.440  70.427  1.00  0.00    -0.089 C  
BRANCH  25  26
HETATM   26  N   UNL     1      -8.172   7.100  71.431  1.00  0.00    -0.107 NA 
HETATM   27  C   UNL     1      -7.834   8.123  72.256  1.00  0.00    -0.127 A  
HETATM   28  N   UNL     1      -8.901   8.481  72.932  1.00  0.00    -0.359 NA 
HETATM   29  N   UNL     1      -9.913   7.655  72.504  1.00  0.00    -0.191 NA 
HETATM   30  N   UNL     1      -9.478   6.813  71.577  1.00  0.00    -0.157 NA 
ENDBRANCH  25  26
ENDBRANCH  22  25
ENDBRANCH   8  21
TORSDOF 6
ENDMDL
MODEL       57
REMARK 921   NORMALIZED FREE ENERGY PREDICTED BY IDOCK:   -5.71 KCAL/MOL
REMARK 922        TOTAL FREE ENERGY PREDICTED BY IDOCK:   -8.70 KCAL/MOL
REMARK 923 INTER-LIGAND FREE ENERGY PREDICTED BY IDOCK:   -7.70 KCAL/MOL
REMARK 924 INTRA-LIGAND FREE ENERGY PREDICTED BY IDOCK:   -1.00 KCAL/MOL
REMARK 927      BINDING AFFINITY PREDICTED BY RF-SCORE:    0.00 PKD
ROOT
HETATM    1  C   UNL     1     -11.652  12.292  67.935  1.00  0.00    -0.354 C  
HETATM    2  S   UNL     1     -10.131  11.328  67.909  1.00  0.00    -0.182 SA 
HETATM    3  C   UNL     1     -10.866   9.945  68.812  1.00  0.00    -0.208 C  
HETATM    4  C   UNL     1     -11.550  10.350  70.110  1.00  0.00    -0.392 C  
HETATM    5  O   UNL     1     -12.922  13.159  71.984  1.00  0.00    -0.339 OA 
HETATM    6  CA  UNL     1     -12.108  11.585  70.297  1.00  0.00    -0.359 C  
HETATM    7  N   UNL     1     -12.031  12.536  69.316  1.00  0.00    -0.281 N  
HETATM    8  CA  UNL     1     -11.508  13.840  67.777  1.00  0.00    -0.322 C  
HETATM    9  C   UNL     1     -12.877  11.882  71.567  1.00  0.00    -0.316 C  
HETATM   10  O   UNL     1     -12.324  14.715  70.067  1.00  0.00    -0.319 OA 
HETATM   11  C   UNL     1     -12.097  13.878  69.224  1.00  0.00    -0.339 C  
HETATM   12  OXT UNL     1     -13.484  11.012  72.182  1.00  0.00    -0.377 OA 
ENDROOT
BRANCH   4  13
HETATM   13  C   UNL     1     -11.573   9.274  71.203  1.00  0.00    -0.327 C  
BRANCH  13  14
HETATM   14  S   UNL     1      -9.973   8.710  71.859  1.00  0.00    -0.333 SA 
BRANCH  14  15
HETATM   15  C   UNL     1     -10.418   7.240  72.690  1.00  0.00    -0.246 A  
HETATM   16  N   UNL     1     -10.237   7.062  73.982  1.00  0.00    -0.350 NA 
HETATM   17  S   UNL     1     -11.047   5.871  71.875  1.00  0.00    -0.253 SA 
HETATM   18  N   UNL     1     -10.562   5.784  74.385  1.00  0.00    -0.201 NA 
HETATM   19  C   UNL     1     -11.413   3.629  73.486  1.00  0.00    -0.159 C  
HETATM   20  C   UNL     1     -10.996   5.049  73.382  1.00  0.00    -0.327 A  
ENDBRANCH  14  15
ENDBRANCH  13  14
ENDBRANCH   4  13
BRANCH   8  21
HETATM   21  N   UNL     1     -10.123  14.406  67.673  1.00  0.00    -0.221 N  
HETATM   22  C   UNL     1      -9.925  15.765  67.539  1.00  0.00    -0.236 C  
HETATM   23  H   UNL     1      -9.319  13.779  67.700  1.00  0.00     0.000 HD 
HETATM   24  O   UNL     1     -10.844  16.572  67.656  1.00  0.00    -0.326 OA 
BRANCH  22  25
HETATM   25  C   UNL     1      -8.504  16.184  67.252  1.00  0.00    -0.180 C  
BRANCH  25  26
HETATM   26  N   UNL     1      -7.579  15.564  68.163  1.00  0.00    -0.117 NA 
HETATM   27  C   UNL     1      -6.430  14.893  67.895  1.00  0.00    -0.162 A  
HETATM   28  N   UNL     1      -5.848  14.595  69.034  1.00  0.00    -0.087 NA 
HETATM   29  N   UNL     1      -6.665  15.101  70.018  1.00  0.00    -0.163 NA 
HETATM   30  N   UNL     1      -7.723  15.705  69.493  1.00  0.00    -0.216 NA 
ENDBRANCH  25  26
ENDBRANCH  22  25
ENDBRANCH   8  21
TORSDOF 6
ENDMDL
MODEL       58
REMARK 921   NORMALIZED FREE ENERGY PREDICTED BY IDOCK:   -5.70 KCAL/MOL
REMARK 922        TOTAL FREE ENERGY PREDICTED BY IDOCK:   -8.69 KCAL/MOL
REMARK 923 INTER-LIGAND FREE ENERGY PREDICTED BY IDOCK:   -7.93 KCAL/MOL
REMARK 924 INTRA-LIGAND FREE ENERGY PREDICTED BY IDOCK:   -0.75 KCAL/MOL
REMARK 927      BINDING AFFINITY PREDICTED BY RF-SCORE:    0.00 PKD
ROOT
HETATM    1  C   UNL     1     -11.636  11.899  67.718  1.00  0.00    -0.323 C  
HETATM    2  S   UNL     1      -9.964  11.614  67.114  1.00  0.00    -0.201 SA 
HETATM    3  C   UNL     1     -10.069   9.825  67.351  1.00  0.00    -0.208 C  
HETATM    4  C   UNL     1     -10.510   9.413  68.748  1.00  0.00    -0.236 C  
HETATM    5  O   UNL     1     -12.101  10.575  71.815  1.00  0.00    -0.225 OA 
HETATM    6  CA  UNL     1     -11.318  10.194  69.529  1.00  0.00    -0.206 C  
HETATM    7  N   UNL     1     -11.730  11.422  69.087  1.00  0.00    -0.313 N  
HETATM    8  CA  UNL     1     -11.951  13.327  68.270  1.00  0.00    -0.302 C  
HETATM    9  C   UNL     1     -11.816   9.673  70.860  1.00  0.00    -0.323 C  
HETATM   10  O   UNL     1     -12.409  12.870  70.772  1.00  0.00    -0.368 OA 
HETATM   11  C   UNL     1     -12.172  12.576  69.623  1.00  0.00    -0.103 C  
HETATM   12  OXT UNL     1     -12.006   8.479  71.064  1.00  0.00    -0.284 OA 
ENDROOT
BRANCH   4  13
HETATM   13  C   UNL     1      -9.987   8.053  69.227  1.00  0.00    -0.191 C  
BRANCH  13  14
HETATM   14  S   UNL     1     -10.536   6.576  68.318  1.00  0.00    -0.277 SA 
BRANCH  14  15
HETATM   15  C   UNL     1     -10.095   5.289  69.413  1.00  0.00    -0.241 A  
HETATM   16  N   UNL     1      -9.626   4.128  69.005  1.00  0.00    -0.175 NA 
HETATM   17  S   UNL     1     -10.317   5.399  71.108  1.00  0.00    -0.227 SA 
HETATM   18  N   UNL     1      -9.456   3.238  70.045  1.00  0.00    -0.177 NA 
HETATM   19  C   UNL     1      -9.725   3.067  72.509  1.00  0.00    -0.207 C  
HETATM   20  C   UNL     1      -9.785   3.769  71.204  1.00  0.00    -0.175 A  
ENDBRANCH  14  15
ENDBRANCH  13  14
ENDBRANCH   4  13
BRANCH   8  21
HETATM   21  N   UNL     1     -10.833  14.325  68.308  1.00  0.00    -0.241 N  
HETATM   22  C   UNL     1     -11.044  15.602  68.785  1.00  0.00    -0.307 C  
HETATM   23  H   UNL     1      -9.907  14.057  67.976  1.00  0.00     0.000 HD 
HETATM   24  O   UNL     1     -12.093  15.928  69.337  1.00  0.00    -0.330 OA 
BRANCH  22  25
HETATM   25  C   UNL     1      -9.894  16.561  68.591  1.00  0.00    -0.250 C  
BRANCH  25  26
HETATM   26  N   UNL     1     -10.130  17.445  67.480  1.00  0.00    -0.310 NA 
HETATM   27  C   UNL     1     -10.289  17.148  66.166  1.00  0.00    -0.322 A  
HETATM   28  N   UNL     1     -10.593  18.254  65.525  1.00  0.00    -0.576 NA 
HETATM   29  N   UNL     1     -10.621  19.245  66.477  1.00  0.00    -0.442 NA 
HETATM   30  N   UNL     1     -10.348  18.757  67.680  1.00  0.00    -0.397 NA 
ENDBRANCH  25  26
ENDBRANCH  22  25
ENDBRANCH   8  21
TORSDOF 6
ENDMDL
MODEL       59
REMARK 921   NORMALIZED FREE ENERGY PREDICTED BY IDOCK:   -5.69 KCAL/MOL
REMARK 922        TOTAL FREE ENERGY PREDICTED BY IDOCK:   -8.67 KCAL/MOL
REMARK 923 INTER-LIGAND FREE ENERGY PREDICTED BY IDOCK:   -7.65 KCAL/MOL
REMARK 924 INTRA-LIGAND FREE ENERGY PREDICTED BY IDOCK:   -1.02 KCAL/MOL
REMARK 927      BINDING AFFINITY PREDICTED BY RF-SCORE:    0.00 PKD
ROOT
HETATM    1  C   UNL     1     -11.675  14.610  67.381  1.00  0.00    -0.390 C  
HETATM    2  S   UNL     1     -10.412  13.551  66.656  1.00  0.00    -0.277 SA 
HETATM    3  C   UNL     1     -11.276  12.029  67.108  1.00  0.00    -0.316 C  
HETATM    4  C   UNL     1     -11.657  11.950  68.580  1.00  0.00    -0.375 C  
HETATM    5  O   UNL     1     -12.112  13.893  71.629  1.00  0.00    -0.188 OA 
HETATM    6  CA  UNL     1     -11.909  13.060  69.338  1.00  0.00    -0.322 C  
HETATM    7  N   UNL     1     -11.783  14.311  68.798  1.00  0.00    -0.323 N  
HETATM    8  CA  UNL     1     -11.235  16.052  67.792  1.00  0.00    -0.231 C  
HETATM    9  C   UNL     1     -12.399  12.906  70.763  1.00  0.00    -0.299 C  
HETATM   10  O   UNL     1     -11.497  16.006  70.362  1.00  0.00    -0.349 OA 
HETATM   11  C   UNL     1     -11.579  15.568  69.237  1.00  0.00    -0.357 C  
HETATM   12  OXT UNL     1     -13.075  11.949  71.121  1.00  0.00    -0.235 OA 
ENDROOT
BRANCH   4  13
HETATM   13  C   UNL     1     -11.740  10.533  69.161  1.00  0.00    -0.189 C  
BRANCH  13  14
HETATM   14  S   UNL     1     -10.234   9.844  69.913  1.00  0.00    -0.265 SA 
BRANCH  14  15
HETATM   15  C   UNL     1      -9.312   9.366  68.509  1.00  0.00    -0.138 A  
HETATM   16  N   UNL     1      -8.073   9.760  68.296  1.00  0.00    -0.104 NA 
HETATM   17  S   UNL     1      -9.973   8.415  67.247  1.00  0.00    -0.253 SA 
HETATM   18  N   UNL     1      -7.596   9.344  67.070  1.00  0.00    -0.091 NA 
HETATM   19  C   UNL     1      -8.286   8.054  65.061  1.00  0.00    -0.121 C  
HETATM   20  C   UNL     1      -8.489   8.634  66.411  1.00  0.00    -0.112 A  
ENDBRANCH  14  15
ENDBRANCH  13  14
ENDBRANCH   4  13
BRANCH   8  21
HETATM   21  N   UNL     1      -9.794  16.423  67.605  1.00  0.00    -0.240 N  
HETATM   22  C   UNL     1      -9.362  17.006  66.432  1.00  0.00    -0.270 C  
HETATM   23  H   UNL     1      -9.126  16.243  68.354  1.00  0.00     0.000 HD 
HETATM   24  O   UNL     1     -10.147  17.385  65.564  1.00  0.00    -0.579 OA 
BRANCH  22  25
HETATM   25  C   UNL     1      -7.866  17.153  66.297  1.00  0.00    -0.316 C  
BRANCH  25  26
HETATM   26  N   UNL     1      -7.452  18.516  66.496  1.00  0.00    -0.231 NA 
HETATM   27  C   UNL     1      -6.789  19.345  65.650  1.00  0.00    -0.291 A  
HETATM   28  N   UNL     1      -6.720  20.534  66.202  1.00  0.00    -0.235 NA 
HETATM   29  N   UNL     1      -7.361  20.424  67.414  1.00  0.00    -0.301 NA 
HETATM   30  N   UNL     1      -7.822  19.194  67.598  1.00  0.00    -0.252 NA 
ENDBRANCH  25  26
ENDBRANCH  22  25
ENDBRANCH   8  21
TORSDOF 6
ENDMDL
MODEL       60
REMARK 921   NORMALIZED FREE ENERGY PREDICTED BY IDOCK:   -5.69 KCAL/MOL
REMARK 922        TOTAL FREE ENERGY PREDICTED BY IDOCK:   -8.67 KCAL/MOL
REMARK 923 INTER-LIGAND FREE ENERGY PREDICTED BY IDOCK:   -7.21 KCAL/MOL
REMARK 924 INTRA-LIGAND FREE ENERGY PREDICTED BY IDOCK:   -1.46 KCAL/MOL
REMARK 927      BINDING AFFINITY PREDICTED BY RF-SCORE:    0.00 PKD
ROOT
HETATM    1  C   UNL     1     -11.899  13.004  65.996  1.00  0.00    -0.417 C  
HETATM    2  S   UNL     1     -10.560  13.454  64.879  1.00  0.00    -0.404 SA 
HETATM    3  C   UNL     1     -10.378  11.770  64.248  1.00  0.00    -0.314 C  
HETATM    4  C   UNL     1     -10.211  10.718  65.336  1.00  0.00    -0.341 C  
HETATM    5  O   UNL     1     -10.635  10.043  68.892  1.00  0.00    -0.200 OA 
HETATM    6  CA  UNL     1     -10.741  10.861  66.589  1.00  0.00    -0.230 C  
HETATM    7  N   UNL     1     -11.417  12.001  66.929  1.00  0.00    -0.341 N  
HETATM    8  CA  UNL     1     -12.131  13.936  67.229  1.00  0.00    -0.368 C  
HETATM    9  C   UNL     1     -10.640   9.726  67.586  1.00  0.00    -0.276 C  
HETATM   10  O   UNL     1     -11.556  12.388  69.216  1.00  0.00    -0.282 OA 
HETATM   11  C   UNL     1     -11.742  12.667  68.054  1.00  0.00    -0.350 C  
HETATM   12  OXT UNL     1     -10.611   8.551  67.238  1.00  0.00    -0.295 OA 
ENDROOT
BRANCH   4  13
HETATM   13  C   UNL     1      -9.405   9.477  64.931  1.00  0.00    -0.198 C  
BRANCH  13  14
HETATM   14  S   UNL     1      -7.705   9.738  64.340  1.00  0.00    -0.140 SA 
BRANCH  14  15
HETATM   15  C   UNL     1      -6.882  10.226  65.800  1.00  0.00    -0.128 A  
HETATM   16  N   UNL     1      -6.124  11.300  65.872  1.00  0.00    -0.018 NA 
HETATM   17  S   UNL     1      -6.922   9.298  67.239  1.00  0.00    -0.082 SA 
HETATM   18  N   UNL     1      -5.494  11.415  67.094  1.00  0.00    -0.068 NA 
HETATM   19  C   UNL     1      -5.298  10.262  69.287  1.00  0.00    -0.038 C  
HETATM   20  C   UNL     1      -5.816  10.431  67.907  1.00  0.00    -0.044 A  
ENDBRANCH  14  15
ENDBRANCH  13  14
ENDBRANCH   4  13
BRANCH   8  21
HETATM   21  N   UNL     1     -11.195  15.091  67.418  1.00  0.00    -0.329 N  
HETATM   22  C   UNL     1     -11.334  15.943  68.494  1.00  0.00    -0.374 C  
HETATM   23  H   UNL     1     -10.446  15.249  66.744  1.00  0.00     0.000 HD 
HETATM   24  O   UNL     1     -12.116  15.711  69.413  1.00  0.00    -0.356 OA 
BRANCH  22  25
HETATM   25  C   UNL     1     -10.455  17.170  68.464  1.00  0.00    -0.377 C  
BRANCH  25  26
HETATM   26  N   UNL     1      -9.083  16.839  68.743  1.00  0.00    -0.259 NA 
HETATM   27  C   UNL     1      -7.979  17.626  68.682  1.00  0.00    -0.275 A  
HETATM   28  N   UNL     1      -6.954  16.940  69.130  1.00  0.00    -0.234 NA 
HETATM   29  N   UNL     1      -7.449  15.704  69.473  1.00  0.00    -0.213 NA 
HETATM   30  N   UNL     1      -8.754  15.636  69.250  1.00  0.00    -0.256 NA 
ENDBRANCH  25  26
ENDBRANCH  22  25
ENDBRANCH   8  21
TORSDOF 6
ENDMDL
MODEL       61
REMARK 921   NORMALIZED FREE ENERGY PREDICTED BY IDOCK:   -5.69 KCAL/MOL
REMARK 922        TOTAL FREE ENERGY PREDICTED BY IDOCK:   -8.66 KCAL/MOL
REMARK 923 INTER-LIGAND FREE ENERGY PREDICTED BY IDOCK:   -7.21 KCAL/MOL
REMARK 924 INTRA-LIGAND FREE ENERGY PREDICTED BY IDOCK:   -1.46 KCAL/MOL
REMARK 927      BINDING AFFINITY PREDICTED BY RF-SCORE:    0.00 PKD
ROOT
HETATM    1  C   UNL     1      -8.881   7.788  68.179  1.00  0.00    -0.125 C  
HETATM    2  S   UNL     1     -10.460   7.716  67.317  1.00  0.00    -0.329 SA 
HETATM    3  C   UNL     1      -9.886   8.757  65.955  1.00  0.00    -0.164 C  
HETATM    4  C   UNL     1      -9.264  10.071  66.404  1.00  0.00    -0.191 C  
HETATM    5  O   UNL     1      -7.827  11.851  69.242  1.00  0.00     0.120 OA 
HETATM    6  CA  UNL     1      -8.634  10.217  67.610  1.00  0.00    -0.118 C  
HETATM    7  N   UNL     1      -8.579   9.173  68.493  1.00  0.00    -0.128 N  
HETATM    8  CA  UNL     1      -8.906   7.519  69.718  1.00  0.00    -0.141 C  
HETATM    9  C   UNL     1      -7.933  11.517  67.945  1.00  0.00    -0.126 C  
HETATM   10  O   UNL     1      -8.185   9.800  70.696  1.00  0.00    -0.246 OA 
HETATM   11  C   UNL     1      -8.413   8.998  69.818  1.00  0.00    -0.132 C  
HETATM   12  OXT UNL     1      -7.431  12.229  67.082  1.00  0.00    -0.151 OA 
ENDROOT
BRANCH   4  13
HETATM   13  C   UNL     1      -9.389  11.231  65.408  1.00  0.00    -0.210 C  
BRANCH  13  14
HETATM   14  S   UNL     1     -11.053  11.898  65.102  1.00  0.00    -0.284 SA 
BRANCH  14  15
HETATM   15  C   UNL     1     -11.330  12.858  66.534  1.00  0.00    -0.318 A  
HETATM   16  N   UNL     1     -11.912  12.384  67.615  1.00  0.00    -0.481 NA 
HETATM   17  S   UNL     1     -10.944  14.525  66.618  1.00  0.00    -0.328 SA 
HETATM   18  N   UNL     1     -12.118  13.359  68.569  1.00  0.00    -0.318 NA 
HETATM   19  C   UNL     1     -11.746  15.784  68.970  1.00  0.00    -0.405 C  
HETATM   20  C   UNL     1     -11.665  14.532  68.177  1.00  0.00    -0.337 A  
ENDBRANCH  14  15
ENDBRANCH  13  14
ENDBRANCH   4  13
BRANCH   8  21
HETATM   21  N   UNL     1     -10.237   7.279  70.365  1.00  0.00    -0.193 N  
HETATM   22  C   UNL     1     -10.323   6.668  71.599  1.00  0.00    -0.205 C  
HETATM   23  H   UNL     1     -11.090   7.571  69.887  1.00  0.00     0.000 HD 
HETATM   24  O   UNL     1      -9.328   6.439  72.283  1.00  0.00    -0.143 OA 
BRANCH  22  25
HETATM   25  C   UNL     1     -11.719   6.314  72.048  1.00  0.00    -0.322 C  
BRANCH  25  26
HETATM   26  N   UNL     1     -12.614   7.432  71.912  1.00  0.00    -0.309 NA 
HETATM   27  C   UNL     1     -13.934   7.442  71.597  1.00  0.00    -0.403 A  
HETATM   28  N   UNL     1     -14.375   8.675  71.694  1.00  0.00    -0.404 NA 
HETATM   29  N   UNL     1     -13.294   9.432  72.081  1.00  0.00    -0.439 NA 
HETATM   30  N   UNL     1     -12.213   8.677  72.227  1.00  0.00    -0.379 NA 
ENDBRANCH  25  26
ENDBRANCH  22  25
ENDBRANCH   8  21
TORSDOF 6
ENDMDL
MODEL       62
REMARK 921   NORMALIZED FREE ENERGY PREDICTED BY IDOCK:   -5.68 KCAL/MOL
REMARK 922        TOTAL FREE ENERGY PREDICTED BY IDOCK:   -8.65 KCAL/MOL
REMARK 923 INTER-LIGAND FREE ENERGY PREDICTED BY IDOCK:   -7.56 KCAL/MOL
REMARK 924 INTRA-LIGAND FREE ENERGY PREDICTED BY IDOCK:   -1.09 KCAL/MOL
REMARK 927      BINDING AFFINITY PREDICTED BY RF-SCORE:    0.00 PKD
ROOT
HETATM    1  C   UNL     1      -9.860   7.896  70.985  1.00  0.00    -0.170 C  
HETATM    2  S   UNL     1      -9.460   8.386  69.299  1.00  0.00    -0.155 SA 
HETATM    3  C   UNL     1      -9.819  10.130  69.608  1.00  0.00    -0.225 C  
HETATM    4  C   UNL     1     -11.189  10.379  70.223  1.00  0.00    -0.395 C  
HETATM    5  O   UNL     1     -13.973   8.816  71.981  1.00  0.00    -0.410 OA 
HETATM    6  CA  UNL     1     -11.818   9.462  71.020  1.00  0.00    -0.322 C  
HETATM    7  N   UNL     1     -11.243   8.244  71.261  1.00  0.00    -0.251 N  
HETATM    8  CA  UNL     1     -10.266   6.404  71.207  1.00  0.00    -0.200 C  
HETATM    9  C   UNL     1     -13.124   9.819  71.697  1.00  0.00    -0.419 C  
HETATM   10  O   UNL     1     -12.733   6.600  71.952  1.00  0.00    -0.345 OA 
HETATM   11  C   UNL     1     -11.640   7.012  71.634  1.00  0.00    -0.285 C  
HETATM   12  OXT UNL     1     -13.397  10.968  72.026  1.00  0.00    -0.455 OA 
ENDROOT
BRANCH   4  13
HETATM   13  C   UNL     1     -11.822  11.736  69.890  1.00  0.00    -0.348 C  
BRANCH  13  14
HETATM   14  S   UNL     1     -11.633  12.355  68.191  1.00  0.00    -0.356 SA 
BRANCH  14  15
HETATM   15  C   UNL     1     -11.329  14.055  68.453  1.00  0.00    -0.291 A  
HETATM   16  N   UNL     1     -11.514  14.646  69.615  1.00  0.00    -0.275 NA 
HETATM   17  S   UNL     1     -10.846  15.113  67.196  1.00  0.00    -0.324 SA 
HETATM   18  N   UNL     1     -11.313  16.009  69.546  1.00  0.00    -0.338 NA 
HETATM   19  C   UNL     1     -10.690  17.794  67.934  1.00  0.00    -0.327 C  
HETATM   20  C   UNL     1     -10.965  16.393  68.336  1.00  0.00    -0.353 A  
ENDBRANCH  14  15
ENDBRANCH  13  14
ENDBRANCH   4  13
BRANCH   8  21
HETATM   21  N   UNL     1     -10.346   5.514  70.003  1.00  0.00    -0.264 N  
HETATM   22  C   UNL     1      -9.599   4.357  69.930  1.00  0.00    -0.205 C  
HETATM   23  H   UNL     1     -10.960   5.767  69.229  1.00  0.00     0.000 HD 
HETATM   24  O   UNL     1      -8.965   3.927  70.892  1.00  0.00    -0.086 OA 
BRANCH  22  25
HETATM   25  C   UNL     1      -9.624   3.656  68.593  1.00  0.00    -0.089 C  
BRANCH  25  26
HETATM   26  N   UNL     1      -9.226   4.539  67.530  1.00  0.00    -0.129 NA 
HETATM   27  C   UNL     1      -9.874   4.839  66.375  1.00  0.00    -0.219 A  
HETATM   28  N   UNL     1      -9.198   5.777  65.752  1.00  0.00    -0.117 NA 
HETATM   29  N   UNL     1      -8.114   6.054  66.551  1.00  0.00    -0.108 NA 
HETATM   30  N   UNL     1      -8.129   5.308  67.648  1.00  0.00    -0.100 NA 
ENDBRANCH  25  26
ENDBRANCH  22  25
ENDBRANCH   8  21
TORSDOF 6
ENDMDL
MODEL       63
REMARK 921   NORMALIZED FREE ENERGY PREDICTED BY IDOCK:   -5.67 KCAL/MOL
REMARK 922        TOTAL FREE ENERGY PREDICTED BY IDOCK:   -8.65 KCAL/MOL
REMARK 923 INTER-LIGAND FREE ENERGY PREDICTED BY IDOCK:   -7.65 KCAL/MOL
REMARK 924 INTRA-LIGAND FREE ENERGY PREDICTED BY IDOCK:   -1.00 KCAL/MOL
REMARK 927      BINDING AFFINITY PREDICTED BY RF-SCORE:    0.00 PKD
ROOT
HETATM    1  C   UNL     1     -11.729  12.505  68.192  1.00  0.00    -0.348 C  
HETATM    2  S   UNL     1     -10.039  11.919  67.990  1.00  0.00    -0.200 SA 
HETATM    3  C   UNL     1     -10.469  10.211  68.398  1.00  0.00    -0.208 C  
HETATM    4  C   UNL     1     -11.230  10.063  69.707  1.00  0.00    -0.307 C  
HETATM    5  O   UNL     1     -13.177  11.847  72.220  1.00  0.00    -0.451 OA 
HETATM    6  CA  UNL     1     -12.039  11.047  70.208  1.00  0.00    -0.362 C  
HETATM    7  N   UNL     1     -12.159  12.243  69.554  1.00  0.00    -0.244 N  
HETATM    8  CA  UNL     1     -11.915  14.025  68.502  1.00  0.00    -0.348 C  
HETATM    9  C   UNL     1     -12.860  10.789  71.453  1.00  0.00    -0.452 C  
HETATM   10  O   UNL     1     -12.911  13.992  70.886  1.00  0.00    -0.324 OA 
HETATM   11  C   UNL     1     -12.507  13.509  69.853  1.00  0.00    -0.134 C  
HETATM   12  OXT UNL     1     -13.272   9.672  71.745  1.00  0.00    -0.374 OA 
ENDROOT
BRANCH   4  13
HETATM   13  C   UNL     1     -11.031   8.727  70.435  1.00  0.00    -0.235 C  
BRANCH  13  14
HETATM   14  S   UNL     1      -9.708   8.639  71.680  1.00  0.00    -0.303 SA 
BRANCH  14  15
HETATM   15  C   UNL     1      -8.271   8.698  70.689  1.00  0.00    -0.137 A  
HETATM   16  N   UNL     1      -7.362   9.645  70.798  1.00  0.00    -0.295 NA 
HETATM   17  S   UNL     1      -7.967   7.575  69.432  1.00  0.00    -0.125 SA 
HETATM   18  N   UNL     1      -6.379   9.539  69.836  1.00  0.00    -0.047 NA 
HETATM   19  C   UNL     1      -5.700   8.123  67.911  1.00  0.00    -0.038 C  
HETATM   20  C   UNL     1      -6.573   8.502  69.048  1.00  0.00    -0.048 A  
ENDBRANCH  14  15
ENDBRANCH  13  14
ENDBRANCH   4  13
BRANCH   8  21
HETATM   21  N   UNL     1     -10.681  14.862  68.663  1.00  0.00    -0.243 N  
HETATM   22  C   UNL     1     -10.195  15.611  67.611  1.00  0.00    -0.261 C  
HETATM   23  H   UNL     1     -10.197  14.878  69.560  1.00  0.00     0.000 HD 
HETATM   24  O   UNL     1     -10.823  15.750  66.564  1.00  0.00    -0.304 OA 
BRANCH  22  25
HETATM   25  C   UNL     1      -8.849  16.253  67.845  1.00  0.00    -0.183 C  
BRANCH  25  26
HETATM   26  N   UNL     1      -8.984  17.629  68.242  1.00  0.00    -0.269 NA 
HETATM   27  C   UNL     1      -8.065  18.626  68.211  1.00  0.00    -0.314 A  
HETATM   28  N   UNL     1      -8.655  19.746  68.562  1.00  0.00    -0.278 NA 
HETATM   29  N   UNL     1      -9.967  19.418  68.809  1.00  0.00    -0.434 NA 
HETATM   30  N   UNL     1     -10.181  18.125  68.606  1.00  0.00    -0.384 NA 
ENDBRANCH  25  26
ENDBRANCH  22  25
ENDBRANCH   8  21
TORSDOF 6
ENDMDL
MODEL       64
REMARK 921   NORMALIZED FREE ENERGY PREDICTED BY IDOCK:   -5.67 KCAL/MOL
REMARK 922        TOTAL FREE ENERGY PREDICTED BY IDOCK:   -8.64 KCAL/MOL
REMARK 923 INTER-LIGAND FREE ENERGY PREDICTED BY IDOCK:   -7.62 KCAL/MOL
REMARK 924 INTRA-LIGAND FREE ENERGY PREDICTED BY IDOCK:   -1.01 KCAL/MOL
REMARK 927      BINDING AFFINITY PREDICTED BY RF-SCORE:    0.00 PKD
ROOT
HETATM    1  C   UNL     1      -8.617   9.357  67.703  1.00  0.00    -0.116 C  
HETATM    2  S   UNL     1      -8.753  10.597  69.003  1.00  0.00    -0.117 SA 
HETATM    3  C   UNL     1      -7.847   9.594  70.202  1.00  0.00    -0.174 C  
HETATM    4  C   UNL     1      -8.394   8.182  70.364  1.00  0.00    -0.120 C  
HETATM    5  O   UNL     1     -10.511   5.634  68.845  1.00  0.00    -0.220 OA 
HETATM    6  CA  UNL     1      -9.038   7.519  69.356  1.00  0.00    -0.142 C  
HETATM    7  N   UNL     1      -9.256   8.133  68.152  1.00  0.00    -0.134 N  
HETATM    8  CA  UNL     1      -9.684   9.412  66.564  1.00  0.00    -0.236 C  
HETATM    9  C   UNL     1      -9.452   6.075  69.545  1.00  0.00    -0.139 C  
HETATM   10  O   UNL     1     -10.968   7.194  66.893  1.00  0.00    -0.363 OA 
HETATM   11  C   UNL     1     -10.101   8.009  67.111  1.00  0.00    -0.263 C  
HETATM   12  OXT UNL     1      -8.827   5.306  70.266  1.00  0.00    -0.121 OA 
ENDROOT
BRANCH   4  13
HETATM   13  C   UNL     1      -8.173   7.547  71.743  1.00  0.00    -0.106 C  
BRANCH  13  14
HETATM   14  S   UNL     1      -9.194   8.154  73.120  1.00  0.00    -0.236 SA 
BRANCH  14  15
HETATM   15  C   UNL     1     -10.783   8.211  72.397  1.00  0.00    -0.334 A  
HETATM   16  N   UNL     1     -11.335   9.325  71.962  1.00  0.00    -0.284 NA 
HETATM   17  S   UNL     1     -11.793   6.834  72.273  1.00  0.00    -0.198 SA 
HETATM   18  N   UNL     1     -12.633   9.135  71.537  1.00  0.00    -0.328 NA 
HETATM   19  C   UNL     1     -14.346   7.351  71.286  1.00  0.00    -0.408 C  
HETATM   20  C   UNL     1     -13.007   7.877  71.648  1.00  0.00    -0.334 A  
ENDBRANCH  14  15
ENDBRANCH  13  14
ENDBRANCH   4  13
BRANCH   8  21
HETATM   21  N   UNL     1     -10.764  10.446  66.665  1.00  0.00    -0.174 N  
HETATM   22  C   UNL     1     -10.723  11.588  65.891  1.00  0.00    -0.272 C  
HETATM   23  H   UNL     1     -11.538  10.305  67.315  1.00  0.00     0.000 HD 
HETATM   24  O   UNL     1      -9.903  11.734  64.988  1.00  0.00    -0.246 OA 
BRANCH  22  25
HETATM   25  C   UNL     1     -11.760  12.632  66.226  1.00  0.00    -0.402 C  
BRANCH  25  26
HETATM   26  N   UNL     1     -11.915  13.580  65.156  1.00  0.00    -0.349 NA 
HETATM   27  C   UNL     1     -11.369  14.815  65.016  1.00  0.00    -0.391 A  
HETATM   28  N   UNL     1     -11.693  15.280  63.832  1.00  0.00    -0.189 NA 
HETATM   29  N   UNL     1     -12.454  14.302  63.237  1.00  0.00    -0.555 NA 
HETATM   30  N   UNL     1     -12.587  13.252  64.037  1.00  0.00    -0.673 NA 
ENDBRANCH  25  26
ENDBRANCH  22  25
ENDBRANCH   8  21
TORSDOF 6
ENDMDL
MODEL       65
REMARK 921   NORMALIZED FREE ENERGY PREDICTED BY IDOCK:   -5.64 KCAL/MOL
REMARK 922        TOTAL FREE ENERGY PREDICTED BY IDOCK:   -8.61 KCAL/MOL
REMARK 923 INTER-LIGAND FREE ENERGY PREDICTED BY IDOCK:   -7.56 KCAL/MOL
REMARK 924 INTRA-LIGAND FREE ENERGY PREDICTED BY IDOCK:   -1.04 KCAL/MOL
REMARK 927      BINDING AFFINITY PREDICTED BY RF-SCORE:    0.00 PKD
ROOT
HETATM    1  C   UNL     1     -11.698  11.700  67.646  1.00  0.00    -0.228 C  
HETATM    2  S   UNL     1     -10.121  11.439  66.817  1.00  0.00    -0.223 SA 
HETATM    3  C   UNL     1     -10.243   9.639  66.919  1.00  0.00    -0.237 C  
HETATM    4  C   UNL     1     -10.520   9.119  68.323  1.00  0.00    -0.254 C  
HETATM    5  O   UNL     1     -11.690  10.045  71.648  1.00  0.00    -0.345 OA 
HETATM    6  CA  UNL     1     -11.204   9.845  69.259  1.00  0.00    -0.130 C  
HETATM    7  N   UNL     1     -11.635  11.112  68.972  1.00  0.00    -0.295 N  
HETATM    8  CA  UNL     1     -11.906  13.081  68.347  1.00  0.00    -0.334 C  
HETATM    9  C   UNL     1     -11.548   9.222  70.595  1.00  0.00    -0.252 C  
HETATM   10  O   UNL     1     -12.063  12.424  70.841  1.00  0.00    -0.292 OA 
HETATM   11  C   UNL     1     -11.977  12.223  69.651  1.00  0.00    -0.279 C  
HETATM   12  OXT UNL     1     -11.743   8.019  70.724  1.00  0.00    -0.278 OA 
ENDROOT
BRANCH   4  13
HETATM   13  C   UNL     1      -9.978   7.715  68.621  1.00  0.00    -0.174 C  
BRANCH  13  14
HETATM   14  S   UNL     1      -8.181   7.538  68.839  1.00  0.00    -0.129 SA 
BRANCH  14  15
HETATM   15  C   UNL     1      -7.984   7.890  70.539  1.00  0.00    -0.097 A  
HETATM   16  N   UNL     1      -7.349   8.955  70.983  1.00  0.00    -0.096 NA 
HETATM   17  S   UNL     1      -8.525   6.831  71.771  1.00  0.00    -0.120 SA 
HETATM   18  N   UNL     1      -7.228   8.957  72.357  1.00  0.00    -0.335 NA 
HETATM   19  C   UNL     1      -7.824   7.603  74.354  1.00  0.00    -0.225 C  
HETATM   20  C   UNL     1      -7.794   7.899  72.901  1.00  0.00    -0.128 A  
ENDBRANCH  14  15
ENDBRANCH  13  14
ENDBRANCH   4  13
BRANCH   8  21
HETATM   21  N   UNL     1     -10.766  14.055  68.325  1.00  0.00    -0.247 N  
HETATM   22  C   UNL     1     -10.956  15.372  68.688  1.00  0.00    -0.273 C  
HETATM   23  H   UNL     1      -9.839  13.740  68.038  1.00  0.00     0.000 HD 
HETATM   24  O   UNL     1     -12.008  15.766  69.186  1.00  0.00    -0.387 OA 
BRANCH  22  25
HETATM   25  C   UNL     1      -9.781  16.286  68.439  1.00  0.00    -0.222 C  
BRANCH  25  26
HETATM   26  N   UNL     1     -10.033  17.179  67.340  1.00  0.00    -0.272 NA 
HETATM   27  C   UNL     1     -10.234  16.892  66.028  1.00  0.00    -0.336 A  
HETATM   28  N   UNL     1     -10.539  18.005  65.402  1.00  0.00    -0.580 NA 
HETATM   29  N   UNL     1     -10.525  18.992  66.359  1.00  0.00    -0.431 NA 
HETATM   30  N   UNL     1     -10.227  18.493  67.551  1.00  0.00    -0.365 NA 
ENDBRANCH  25  26
ENDBRANCH  22  25
ENDBRANCH   8  21
TORSDOF 6
ENDMDL
MODEL       66
REMARK 921   NORMALIZED FREE ENERGY PREDICTED BY IDOCK:   -5.62 KCAL/MOL
REMARK 922        TOTAL FREE ENERGY PREDICTED BY IDOCK:   -8.58 KCAL/MOL
REMARK 923 INTER-LIGAND FREE ENERGY PREDICTED BY IDOCK:   -7.02 KCAL/MOL
REMARK 924 INTRA-LIGAND FREE ENERGY PREDICTED BY IDOCK:   -1.56 KCAL/MOL
REMARK 927      BINDING AFFINITY PREDICTED BY RF-SCORE:    0.00 PKD
ROOT
HETATM    1  C   UNL     1      -8.684   9.311  67.578  1.00  0.00    -0.115 C  
HETATM    2  S   UNL     1      -8.808  10.584  68.845  1.00  0.00    -0.165 SA 
HETATM    3  C   UNL     1      -7.854   9.630  70.048  1.00  0.00    -0.165 C  
HETATM    4  C   UNL     1      -8.373   8.215  70.263  1.00  0.00    -0.124 C  
HETATM    5  O   UNL     1     -10.485   5.592  68.871  1.00  0.00    -0.223 OA 
HETATM    6  CA  UNL     1      -9.031   7.513  69.291  1.00  0.00    -0.136 C  
HETATM    7  N   UNL     1      -9.291   8.090  68.077  1.00  0.00    -0.138 N  
HETATM    8  CA  UNL     1      -9.780   9.316  66.465  1.00  0.00    -0.240 C  
HETATM    9  C   UNL     1      -9.416   6.069  69.530  1.00  0.00    -0.139 C  
HETATM   10  O   UNL     1     -11.018   7.088  66.889  1.00  0.00    -0.371 OA 
HETATM   11  C   UNL     1     -10.159   7.923  67.061  1.00  0.00    -0.277 C  
HETATM   12  OXT UNL     1      -8.760   5.330  70.256  1.00  0.00    -0.117 OA 
ENDROOT
BRANCH   4  13
HETATM   13  C   UNL     1      -8.106   7.622  71.653  1.00  0.00    -0.102 C  
BRANCH  13  14
HETATM   14  S   UNL     1      -9.112   8.241  73.036  1.00  0.00    -0.203 SA 
BRANCH  14  15
HETATM   15  C   UNL     1     -10.713   7.703  72.591  1.00  0.00    -0.321 A  
HETATM   16  N   UNL     1     -11.052   6.432  72.526  1.00  0.00    -0.252 NA 
HETATM   17  S   UNL     1     -11.954   8.784  72.117  1.00  0.00    -0.349 SA 
HETATM   18  N   UNL     1     -12.333   6.256  72.047  1.00  0.00    -0.264 NA 
HETATM   19  C   UNL     1     -14.296   7.553  71.247  1.00  0.00    -0.434 C  
HETATM   20  C   UNL     1     -12.921   7.404  71.785  1.00  0.00    -0.325 A  
ENDBRANCH  14  15
ENDBRANCH  13  14
ENDBRANCH   4  13
BRANCH   8  21
HETATM   21  N   UNL     1     -10.875  10.336  66.566  1.00  0.00    -0.067 N  
HETATM   22  C   UNL     1     -10.770  11.551  65.922  1.00  0.00    -0.272 C  
HETATM   23  H   UNL     1     -11.707  10.129  67.119  1.00  0.00     0.000 HD 
HETATM   24  O   UNL     1      -9.866  11.789  65.123  1.00  0.00    -0.243 OA 
BRANCH  22  25
HETATM   25  C   UNL     1     -11.844  12.556  66.259  1.00  0.00    -0.390 C  
BRANCH  25  26
HETATM   26  N   UNL     1     -11.817  12.905  67.654  1.00  0.00    -0.362 NA 
HETATM   27  C   UNL     1     -11.636  14.119  68.232  1.00  0.00    -0.321 A  
HETATM   28  N   UNL     1     -11.799  13.990  69.529  1.00  0.00    -0.304 NA 
HETATM   29  N   UNL     1     -12.089  12.663  69.742  1.00  0.00    -0.272 NA 
HETATM   30  N   UNL     1     -12.113  11.992  68.597  1.00  0.00    -0.328 NA 
ENDBRANCH  25  26
ENDBRANCH  22  25
ENDBRANCH   8  21
TORSDOF 6
ENDMDL
MODEL       67
REMARK 921   NORMALIZED FREE ENERGY PREDICTED BY IDOCK:   -5.61 KCAL/MOL
REMARK 922        TOTAL FREE ENERGY PREDICTED BY IDOCK:   -8.56 KCAL/MOL
REMARK 923 INTER-LIGAND FREE ENERGY PREDICTED BY IDOCK:   -7.74 KCAL/MOL
REMARK 924 INTRA-LIGAND FREE ENERGY PREDICTED BY IDOCK:   -0.81 KCAL/MOL
REMARK 927      BINDING AFFINITY PREDICTED BY RF-SCORE:    0.00 PKD
ROOT
HETATM    1  C   UNL     1      -8.416  10.267  66.641  1.00  0.00    -0.124 C  
HETATM    2  S   UNL     1      -9.547  11.429  67.424  1.00  0.00    -0.175 SA 
HETATM    3  C   UNL     1      -8.971  11.031  69.091  1.00  0.00     0.015 C  
HETATM    4  C   UNL     1      -8.986   9.543  69.409  1.00  0.00    -0.174 C  
HETATM    5  O   UNL     1      -9.142   6.205  67.955  1.00  0.00    -0.119 OA 
HETATM    6  CA  UNL     1      -8.832   8.580  68.449  1.00  0.00    -0.139 C  
HETATM    7  N   UNL     1      -8.701   8.930  67.133  1.00  0.00    -0.119 N  
HETATM    8  CA  UNL     1      -8.810   9.750  65.220  1.00  0.00    -0.175 C  
HETATM    9  C   UNL     1      -8.737   7.123  68.849  1.00  0.00    -0.128 C  
HETATM   10  O   UNL     1      -9.216   7.232  65.633  1.00  0.00     0.033 OA 
HETATM   11  C   UNL     1      -8.891   8.360  65.928  1.00  0.00    -0.175 C  
HETATM   12  OXT UNL     1      -8.266   6.770  69.924  1.00  0.00    -0.123 OA 
ENDROOT
BRANCH   4  13
HETATM   13  C   UNL     1      -9.185   9.190  70.889  1.00  0.00    -0.261 C  
BRANCH  13  14
HETATM   14  S   UNL     1     -10.890   9.142  71.518  1.00  0.00    -0.372 SA 
BRANCH  14  15
HETATM   15  C   UNL     1     -10.888   7.676  72.466  1.00  0.00    -0.314 A  
HETATM   16  N   UNL     1     -10.243   7.561  73.609  1.00  0.00    -0.326 NA 
HETATM   17  S   UNL     1     -11.655   6.236  71.945  1.00  0.00    -0.303 SA 
HETATM   18  N   UNL     1     -10.299   6.278  74.113  1.00  0.00    -0.315 NA 
HETATM   19  C   UNL     1     -11.238   4.035  73.600  1.00  0.00    -0.305 C  
HETATM   20  C   UNL     1     -11.002   5.476  73.340  1.00  0.00    -0.275 A  
ENDBRANCH  14  15
ENDBRANCH  13  14
ENDBRANCH   4  13
BRANCH   8  21
HETATM   21  N   UNL     1     -10.115  10.213  64.645  1.00  0.00    -0.350 N  
HETATM   22  C   UNL     1     -10.147  11.131  63.616  1.00  0.00    -0.379 C  
HETATM   23  H   UNL     1     -10.990   9.844  65.018  1.00  0.00     0.000 HD 
HETATM   24  O   UNL     1      -9.128  11.488  63.028  1.00  0.00    -0.244 OA 
BRANCH  22  25
HETATM   25  C   UNL     1     -11.517  11.655  63.260  1.00  0.00    -0.166 C  
BRANCH  25  26
HETATM   26  N   UNL     1     -11.734  12.969  63.804  1.00  0.00    -0.465 NA 
HETATM   27  C   UNL     1     -11.071  13.606  64.802  1.00  0.00    -0.370 A  
HETATM   28  N   UNL     1     -11.534  14.832  64.891  1.00  0.00    -0.395 NA 
HETATM   29  N   UNL     1     -12.502  14.941  63.920  1.00  0.00    -0.769 NA 
HETATM   30  N   UNL     1     -12.624  13.807  63.243  1.00  0.00    -0.734 NA 
ENDBRANCH  25  26
ENDBRANCH  22  25
ENDBRANCH   8  21
TORSDOF 6
ENDMDL
MODEL       68
REMARK 921   NORMALIZED FREE ENERGY PREDICTED BY IDOCK:   -5.60 KCAL/MOL
REMARK 922        TOTAL FREE ENERGY PREDICTED BY IDOCK:   -8.55 KCAL/MOL
REMARK 923 INTER-LIGAND FREE ENERGY PREDICTED BY IDOCK:   -7.58 KCAL/MOL
REMARK 924 INTRA-LIGAND FREE ENERGY PREDICTED BY IDOCK:   -0.97 KCAL/MOL
REMARK 927      BINDING AFFINITY PREDICTED BY RF-SCORE:    0.00 PKD
ROOT
HETATM    1  C   UNL     1     -12.221  11.659  69.229  1.00  0.00    -0.164 C  
HETATM    2  S   UNL     1     -11.970  12.871  70.537  1.00  0.00    -0.065 SA 
HETATM    3  C   UNL     1     -12.128  14.277  69.412  1.00  0.00    -0.318 C  
HETATM    4  C   UNL     1     -11.220  14.196  68.193  1.00  0.00    -0.299 C  
HETATM    5  O   UNL     1      -9.173  11.961  66.169  1.00  0.00    -0.224 OA 
HETATM    6  CA  UNL     1     -10.811  13.007  67.654  1.00  0.00    -0.239 C  
HETATM    7  N   UNL     1     -11.179  11.822  68.231  1.00  0.00    -0.233 N  
HETATM    8  CA  UNL     1     -11.656  10.225  69.481  1.00  0.00    -0.168 C  
HETATM    9  C   UNL     1     -10.006  12.996  66.371  1.00  0.00    -0.277 C  
HETATM   10  O   UNL     1      -9.818  10.022  67.676  1.00  0.00    -0.155 OA 
HETATM   11  C   UNL     1     -10.737  10.550  68.261  1.00  0.00    -0.229 C  
HETATM   12  OXT UNL     1     -10.131  13.863  65.514  1.00  0.00    -0.309 OA 
ENDROOT
BRANCH   4  13
HETATM   13  C   UNL     1     -10.790  15.545  67.604  1.00  0.00    -0.306 C  
BRANCH  13  14
HETATM   14  S   UNL     1     -10.531  16.922  68.764  1.00  0.00    -0.353 SA 
BRANCH  14  15
HETATM   15  C   UNL     1      -9.498  17.987  67.842  1.00  0.00    -0.273 A  
HETATM   16  N   UNL     1      -9.058  17.692  66.636  1.00  0.00    -0.257 NA 
HETATM   17  S   UNL     1      -8.900  19.465  68.465  1.00  0.00    -0.352 SA 
HETATM   18  N   UNL     1      -8.172  18.636  66.158  1.00  0.00    -0.447 NA 
HETATM   19  C   UNL     1      -7.091  20.779  66.804  1.00  0.00    -0.315 C  
HETATM   20  C   UNL     1      -7.991  19.618  67.016  1.00  0.00    -0.281 A  
ENDBRANCH  14  15
ENDBRANCH  13  14
ENDBRANCH   4  13
BRANCH   8  21
HETATM   21  N   UNL     1     -10.906   9.982  70.757  1.00  0.00    -0.342 N  
HETATM   22  C   UNL     1     -10.565   8.702  71.142  1.00  0.00    -0.228 C  
HETATM   23  H   UNL     1     -10.645  10.772  71.346  1.00  0.00     0.000 HD 
HETATM   24  O   UNL     1     -10.717   7.735  70.399  1.00  0.00    -0.227 OA 
BRANCH  22  25
HETATM   25  C   UNL     1      -9.985   8.579  72.530  1.00  0.00    -0.252 C  
BRANCH  25  26
HETATM   26  N   UNL     1      -8.554   8.719  72.516  1.00  0.00    -0.399 NA 
HETATM   27  C   UNL     1      -7.641   8.305  73.431  1.00  0.00    -0.122 A  
HETATM   28  N   UNL     1      -6.440   8.545  72.957  1.00  0.00    -0.158 NA 
HETATM   29  N   UNL     1      -6.630   9.116  71.721  1.00  0.00    -0.264 NA 
HETATM   30  N   UNL     1      -7.922   9.218  71.438  1.00  0.00    -0.322 NA 
ENDBRANCH  25  26
ENDBRANCH  22  25
ENDBRANCH   8  21
TORSDOF 6
ENDMDL
MODEL       69
REMARK 921   NORMALIZED FREE ENERGY PREDICTED BY IDOCK:   -5.60 KCAL/MOL
REMARK 922        TOTAL FREE ENERGY PREDICTED BY IDOCK:   -8.55 KCAL/MOL
REMARK 923 INTER-LIGAND FREE ENERGY PREDICTED BY IDOCK:   -7.50 KCAL/MOL
REMARK 924 INTRA-LIGAND FREE ENERGY PREDICTED BY IDOCK:   -1.05 KCAL/MOL
REMARK 927      BINDING AFFINITY PREDICTED BY RF-SCORE:    0.00 PKD
ROOT
HETATM    1  C   UNL     1     -10.859   9.459  67.651  1.00  0.00    -0.154 C  
HETATM    2  S   UNL     1     -10.436  10.985  68.508  1.00  0.00    -0.201 SA 
HETATM    3  C   UNL     1     -10.993  12.031  67.142  1.00  0.00    -0.270 C  
HETATM    4  C   UNL     1     -10.388  11.660  65.796  1.00  0.00    -0.292 C  
HETATM    5  O   UNL     1      -8.651   9.042  63.949  1.00  0.00    -0.191 OA 
HETATM    6  CA  UNL     1      -9.998  10.386  65.486  1.00  0.00    -0.282 C  
HETATM    7  N   UNL     1     -10.099   9.386  66.416  1.00  0.00    -0.272 N  
HETATM    8  CA  UNL     1     -10.108   8.165  68.104  1.00  0.00    -0.198 C  
HETATM    9  C   UNL     1      -9.515  10.061  64.088  1.00  0.00    -0.252 C  
HETATM   10  O   UNL     1      -8.728   7.555  66.007  1.00  0.00    -0.151 OA 
HETATM   11  C   UNL     1      -9.535   8.186  66.651  1.00  0.00    -0.213 C  
HETATM   12  OXT UNL     1      -9.923  10.662  63.101  1.00  0.00    -0.320 OA 
ENDROOT
BRANCH   4  13
HETATM   13  C   UNL     1     -10.246  12.817  64.799  1.00  0.00    -0.281 C  
BRANCH  13  14
HETATM   14  S   UNL     1     -11.750  13.747  64.374  1.00  0.00    -0.403 SA 
BRANCH  14  15
HETATM   15  C   UNL     1     -11.340  15.363  64.897  1.00  0.00    -0.363 A  
HETATM   16  N   UNL     1     -11.642  16.440  64.203  1.00  0.00    -1.029 NA 
HETATM   17  S   UNL     1     -10.432  15.673  66.316  1.00  0.00    -0.315 SA 
HETATM   18  N   UNL     1     -11.117  17.587  64.763  1.00  0.00    -0.812 NA 
HETATM   19  C   UNL     1      -9.762  18.349  66.702  1.00  0.00    -0.342 C  
HETATM   20  C   UNL     1     -10.453  17.332  65.872  1.00  0.00    -0.262 A  
ENDBRANCH  14  15
ENDBRANCH  13  14
ENDBRANCH   4  13
BRANCH   8  21
HETATM   21  N   UNL     1      -9.061   8.301  69.170  1.00  0.00    -0.147 N  
HETATM   22  C   UNL     1      -9.358   8.028  70.489  1.00  0.00    -0.155 C  
HETATM   23  H   UNL     1      -8.119   8.599  68.916  1.00  0.00     0.000 HD 
HETATM   24  O   UNL     1     -10.425   7.521  70.826  1.00  0.00    -0.210 OA 
BRANCH  22  25
HETATM   25  C   UNL     1      -8.278   8.387  71.481  1.00  0.00    -0.144 C  
BRANCH  25  26
HETATM   26  N   UNL     1      -7.033   8.675  70.820  1.00  0.00    -0.052 NA 
HETATM   27  C   UNL     1      -6.403   9.865  70.654  1.00  0.00    -0.104 A  
HETATM   28  N   UNL     1      -5.239   9.644  70.090  1.00  0.00    -0.031 NA 
HETATM   29  N   UNL     1      -5.159   8.283  69.911  1.00  0.00    -0.023 NA 
HETATM   30  N   UNL     1      -6.250   7.680  70.365  1.00  0.00    -0.033 NA 
ENDBRANCH  25  26
ENDBRANCH  22  25
ENDBRANCH   8  21
TORSDOF 6
ENDMDL
MODEL       70
REMARK 921   NORMALIZED FREE ENERGY PREDICTED BY IDOCK:   -5.60 KCAL/MOL
REMARK 922        TOTAL FREE ENERGY PREDICTED BY IDOCK:   -8.54 KCAL/MOL
REMARK 923 INTER-LIGAND FREE ENERGY PREDICTED BY IDOCK:   -8.00 KCAL/MOL
REMARK 924 INTRA-LIGAND FREE ENERGY PREDICTED BY IDOCK:   -0.54 KCAL/MOL
REMARK 927      BINDING AFFINITY PREDICTED BY RF-SCORE:    0.00 PKD
ROOT
HETATM    1  C   UNL     1     -11.178  11.896  68.653  1.00  0.00    -0.257 C  
HETATM    2  S   UNL     1      -9.576  11.124  68.935  1.00  0.00    -0.087 SA 
HETATM    3  C   UNL     1     -10.305   9.576  69.517  1.00  0.00    -0.217 C  
HETATM    4  C   UNL     1     -11.327   9.757  70.630  1.00  0.00    -0.401 C  
HETATM    5  O   UNL     1     -13.483  12.169  72.309  1.00  0.00    -0.491 OA 
HETATM    6  CA  UNL     1     -12.080  10.891  70.765  1.00  0.00    -0.368 C  
HETATM    7  N   UNL     1     -11.904  11.944  69.909  1.00  0.00    -0.340 N  
HETATM    8  CA  UNL     1     -11.216  13.458  68.654  1.00  0.00    -0.269 C  
HETATM    9  C   UNL     1     -13.163  10.958  71.821  1.00  0.00    -0.408 C  
HETATM   10  O   UNL     1     -12.668  13.981  70.727  1.00  0.00    -0.326 OA 
HETATM   11  C   UNL     1     -12.133  13.272  69.905  1.00  0.00    -0.308 C  
HETATM   12  OXT UNL     1     -13.772   9.963  72.197  1.00  0.00    -0.359 OA 
ENDROOT
BRANCH   4  13
HETATM   13  C   UNL     1     -11.460   8.574  71.597  1.00  0.00    -0.298 C  
BRANCH  13  14
HETATM   14  S   UNL     1     -12.392   7.121  71.023  1.00  0.00    -0.289 SA 
BRANCH  14  15
HETATM   15  C   UNL     1     -11.123   6.102  70.389  1.00  0.00    -0.352 A  
HETATM   16  N   UNL     1     -10.926   5.918  69.100  1.00  0.00    -0.341 NA 
HETATM   17  S   UNL     1     -10.081   5.188  71.395  1.00  0.00    -0.204 SA 
HETATM   18  N   UNL     1      -9.939   4.987  68.849  1.00  0.00    -0.174 NA 
HETATM   19  C   UNL     1      -8.340   3.496  70.030  1.00  0.00    -0.080 C  
HETATM   20  C   UNL     1      -9.414   4.517  69.961  1.00  0.00    -0.177 A  
ENDBRANCH  14  15
ENDBRANCH  13  14
ENDBRANCH   4  13
BRANCH   8  21
HETATM   21  N   UNL     1      -9.939  14.190  68.942  1.00  0.00    -0.374 N  
HETATM   22  C   UNL     1      -9.246  14.824  67.933  1.00  0.00    -0.191 C  
HETATM   23  H   UNL     1      -9.579  14.218  69.896  1.00  0.00     0.000 HD 
HETATM   24  O   UNL     1      -9.711  14.952  66.802  1.00  0.00    -0.234 OA 
BRANCH  22  25
HETATM   25  C   UNL     1      -7.887  15.355  68.318  1.00  0.00    -0.123 C  
BRANCH  25  26
HETATM   26  N   UNL     1      -7.913  16.781  68.501  1.00  0.00    -0.224 NA 
HETATM   27  C   UNL     1      -8.921  17.659  68.269  1.00  0.00    -0.276 A  
HETATM   28  N   UNL     1      -8.542  18.846  68.682  1.00  0.00    -0.349 NA 
HETATM   29  N   UNL     1      -7.271  18.683  69.180  1.00  0.00    -0.243 NA 
HETATM   30  N   UNL     1      -6.881  17.420  69.083  1.00  0.00    -0.240 NA 
ENDBRANCH  25  26
ENDBRANCH  22  25
ENDBRANCH   8  21
TORSDOF 6
ENDMDL
MODEL       71
REMARK 921   NORMALIZED FREE ENERGY PREDICTED BY IDOCK:   -5.59 KCAL/MOL
REMARK 922        TOTAL FREE ENERGY PREDICTED BY IDOCK:   -8.54 KCAL/MOL
REMARK 923 INTER-LIGAND FREE ENERGY PREDICTED BY IDOCK:   -7.44 KCAL/MOL
REMARK 924 INTRA-LIGAND FREE ENERGY PREDICTED BY IDOCK:   -1.10 KCAL/MOL
REMARK 927      BINDING AFFINITY PREDICTED BY RF-SCORE:    0.00 PKD
ROOT
HETATM    1  C   UNL     1      -9.021   8.869  71.277  1.00  0.00    -0.243 C  
HETATM    2  S   UNL     1      -8.895   8.888  69.480  1.00  0.00    -0.148 SA 
HETATM    3  C   UNL     1      -9.768  10.464  69.330  1.00  0.00    -0.214 C  
HETATM    4  C   UNL     1     -11.107  10.498  70.051  1.00  0.00    -0.376 C  
HETATM    5  O   UNL     1     -13.148   8.858  72.587  1.00  0.00    -0.418 OA 
HETATM    6  CA  UNL     1     -11.367   9.745  71.163  1.00  0.00    -0.389 C  
HETATM    7  N   UNL     1     -10.424   8.881  71.650  1.00  0.00    -0.312 N  
HETATM    8  CA  UNL     1      -8.921   7.474  71.974  1.00  0.00    -0.125 C  
HETATM    9  C   UNL     1     -12.678   9.915  71.902  1.00  0.00    -0.409 C  
HETATM   10  O   UNL     1     -11.276   7.193  73.000  1.00  0.00    -0.294 OA 
HETATM   11  C   UNL     1     -10.390   7.773  72.415  1.00  0.00    -0.253 C  
HETATM   12  OXT UNL     1     -13.280  10.982  71.927  1.00  0.00    -0.473 OA 
ENDROOT
BRANCH   4  13
HETATM   13  C   UNL     1     -12.155  11.442  69.446  1.00  0.00    -0.291 C  
BRANCH  13  14
HETATM   14  S   UNL     1     -11.553  12.805  68.404  1.00  0.00    -0.345 SA 
BRANCH  14  15
HETATM   15  C   UNL     1     -11.504  14.135  69.535  1.00  0.00    -0.281 A  
HETATM   16  N   UNL     1     -10.607  15.097  69.473  1.00  0.00    -0.259 NA 
HETATM   17  S   UNL     1     -12.567  14.251  70.873  1.00  0.00    -0.376 SA 
HETATM   18  N   UNL     1     -10.703  15.970  70.537  1.00  0.00    -0.218 NA 
HETATM   19  C   UNL     1     -12.038  16.376  72.593  1.00  0.00    -0.554 C  
HETATM   20  C   UNL     1     -11.684  15.644  71.353  1.00  0.00    -0.428 A  
ENDBRANCH  14  15
ENDBRANCH  13  14
ENDBRANCH   4  13
BRANCH   8  21
HETATM   21  N   UNL     1      -8.786   6.263  71.101  1.00  0.00    -0.142 N  
HETATM   22  C   UNL     1      -8.689   5.003  71.653  1.00  0.00    -0.132 C  
HETATM   23  H   UNL     1      -8.766   6.373  70.087  1.00  0.00     0.000 HD 
HETATM   24  O   UNL     1      -8.863   4.801  72.852  1.00  0.00    -0.116 OA 
BRANCH  22  25
HETATM   25  C   UNL     1      -8.365   3.895  70.679  1.00  0.00    -0.069 C  
BRANCH  25  26
HETATM   26  N   UNL     1      -8.624   4.296  69.322  1.00  0.00    -0.080 NA 
HETATM   27  C   UNL     1      -7.782   4.323  68.259  1.00  0.00    -0.075 A  
HETATM   28  N   UNL     1      -8.472   4.651  67.191  1.00  0.00    -0.105 NA 
HETATM   29  N   UNL     1      -9.767   4.826  67.618  1.00  0.00    -0.158 NA 
HETATM   30  N   UNL     1      -9.872   4.601  68.921  1.00  0.00    -0.164 NA 
ENDBRANCH  25  26
ENDBRANCH  22  25
ENDBRANCH   8  21
TORSDOF 6
ENDMDL
MODEL       72
REMARK 921   NORMALIZED FREE ENERGY PREDICTED BY IDOCK:   -5.58 KCAL/MOL
REMARK 922        TOTAL FREE ENERGY PREDICTED BY IDOCK:   -8.53 KCAL/MOL
REMARK 923 INTER-LIGAND FREE ENERGY PREDICTED BY IDOCK:   -7.47 KCAL/MOL
REMARK 924 INTRA-LIGAND FREE ENERGY PREDICTED BY IDOCK:   -1.05 KCAL/MOL
REMARK 927      BINDING AFFINITY PREDICTED BY RF-SCORE:    0.00 PKD
ROOT
HETATM    1  C   UNL     1      -9.803   9.208  70.758  1.00  0.00    -0.270 C  
HETATM    2  S   UNL     1      -9.713   9.161  68.960  1.00  0.00    -0.170 SA 
HETATM    3  C   UNL     1      -9.975  10.942  68.795  1.00  0.00    -0.195 C  
HETATM    4  C   UNL     1     -11.201  11.457  69.534  1.00  0.00    -0.322 C  
HETATM    5  O   UNL     1     -13.641  10.674  72.127  1.00  0.00    -0.288 OA 
HETATM    6  CA  UNL     1     -11.690  10.856  70.663  1.00  0.00    -0.316 C  
HETATM    7  N   UNL     1     -11.104   9.720  71.151  1.00  0.00    -0.360 N  
HETATM    8  CA  UNL     1     -10.190   7.876  71.478  1.00  0.00    -0.190 C  
HETATM    9  C   UNL     1     -12.841  11.488  71.417  1.00  0.00    -0.384 C  
HETATM   10  O   UNL     1     -12.471   8.458  72.543  1.00  0.00    -0.364 OA 
HETATM   11  C   UNL     1     -11.449   8.681  71.935  1.00  0.00    -0.348 C  
HETATM   12  OXT UNL     1     -13.025  12.699  71.433  1.00  0.00    -0.361 OA 
ENDROOT
BRANCH   4  13
HETATM   13  C   UNL     1     -11.859  12.703  68.928  1.00  0.00    -0.302 C  
BRANCH  13  14
HETATM   14  S   UNL     1     -11.124  13.384  67.411  1.00  0.00    -0.287 SA 
BRANCH  14  15
HETATM   15  C   UNL     1     -10.810  15.040  67.869  1.00  0.00    -0.280 A  
HETATM   16  N   UNL     1     -11.055  15.510  69.075  1.00  0.00    -0.249 NA 
HETATM   17  S   UNL     1     -10.239  16.214  66.761  1.00  0.00    -0.286 SA 
HETATM   18  N   UNL     1     -10.830  16.868  69.162  1.00  0.00    -0.289 NA 
HETATM   19  C   UNL     1     -10.085  18.799  67.787  1.00  0.00    -0.417 C  
HETATM   20  C   UNL     1     -10.405  17.370  68.022  1.00  0.00    -0.362 A  
ENDBRANCH  14  15
ENDBRANCH  13  14
ENDBRANCH   4  13
BRANCH   8  21
HETATM   21  N   UNL     1     -10.509   6.686  70.624  1.00  0.00    -0.212 N  
HETATM   22  C   UNL     1      -9.800   5.510  70.759  1.00  0.00    -0.188 C  
HETATM   23  H   UNL     1     -11.259   6.746  69.935  1.00  0.00     0.000 HD 
HETATM   24  O   UNL     1      -8.997   5.334  71.673  1.00  0.00    -0.133 OA 
BRANCH  22  25
HETATM   25  C   UNL     1     -10.089   4.459  69.715  1.00  0.00    -0.030 C  
BRANCH  25  26
HETATM   26  N   UNL     1      -9.940   4.985  68.385  1.00  0.00    -0.155 NA 
HETATM   27  C   UNL     1      -8.965   4.746  67.471  1.00  0.00    -0.110 A  
HETATM   28  N   UNL     1      -9.289   5.350  66.351  1.00  0.00    -0.145 NA 
HETATM   29  N   UNL     1     -10.493   5.970  66.592  1.00  0.00    -0.237 NA 
HETATM   30  N   UNL     1     -10.904   5.743  67.832  1.00  0.00    -0.224 NA 
ENDBRANCH  25  26
ENDBRANCH  22  25
ENDBRANCH   8  21
TORSDOF 6
ENDMDL
MODEL       73
REMARK 921   NORMALIZED FREE ENERGY PREDICTED BY IDOCK:   -5.55 KCAL/MOL
REMARK 922        TOTAL FREE ENERGY PREDICTED BY IDOCK:   -8.48 KCAL/MOL
REMARK 923 INTER-LIGAND FREE ENERGY PREDICTED BY IDOCK:   -6.94 KCAL/MOL
REMARK 924 INTRA-LIGAND FREE ENERGY PREDICTED BY IDOCK:   -1.54 KCAL/MOL
REMARK 927      BINDING AFFINITY PREDICTED BY RF-SCORE:    0.00 PKD
ROOT
HETATM    1  C   UNL     1      -8.529  12.799  67.434  1.00  0.00    -0.191 C  
HETATM    2  S   UNL     1      -7.396  12.625  68.822  1.00  0.00    -0.020 SA 
HETATM    3  C   UNL     1      -6.622  11.139  68.142  1.00  0.00    -0.058 C  
HETATM    4  C   UNL     1      -7.613  10.049  67.759  1.00  0.00    -0.090 C  
HETATM    5  O   UNL     1     -11.118   9.350  67.043  1.00  0.00    -0.005 OA 
HETATM    6  CA  UNL     1      -8.896  10.320  67.367  1.00  0.00    -0.131 C  
HETATM    7  N   UNL     1      -9.356  11.608  67.348  1.00  0.00    -0.166 N  
HETATM    8  CA  UNL     1      -9.842  13.605  67.694  1.00  0.00    -0.228 C  
HETATM    9  C   UNL     1      -9.792   9.198  66.885  1.00  0.00    -0.217 C  
HETATM   10  O   UNL     1     -11.671  11.800  67.414  1.00  0.00    -0.532 OA 
HETATM   11  C   UNL     1     -10.544  12.241  67.395  1.00  0.00    -0.222 C  
HETATM   12  OXT UNL     1      -9.348   8.203  66.325  1.00  0.00    -0.195 OA 
ENDROOT
BRANCH   4  13
HETATM   13  C   UNL     1      -7.074   8.615  67.839  1.00  0.00    -0.083 C  
BRANCH  13  14
HETATM   14  S   UNL     1      -6.855   7.893  69.494  1.00  0.00    -0.047 SA 
BRANCH  14  15
HETATM   15  C   UNL     1      -8.499   7.808  70.076  1.00  0.00    -0.135 A  
HETATM   16  N   UNL     1      -9.357   6.894  69.671  1.00  0.00    -0.146 NA 
HETATM   17  S   UNL     1      -9.160   8.961  71.156  1.00  0.00    -0.253 SA 
HETATM   18  N   UNL     1     -10.620   7.098  70.186  1.00  0.00    -0.223 NA 
HETATM   19  C   UNL     1     -11.878   8.642  71.674  1.00  0.00    -0.389 C  
HETATM   20  C   UNL     1     -10.664   8.151  70.977  1.00  0.00    -0.217 A  
ENDBRANCH  14  15
ENDBRANCH  13  14
ENDBRANCH   4  13
BRANCH   8  21
HETATM   21  N   UNL     1     -10.084  14.119  69.081  1.00  0.00    -0.426 N  
HETATM   22  C   UNL     1     -11.157  14.944  69.351  1.00  0.00    -0.280 C  
HETATM   23  H   UNL     1      -9.449  13.856  69.834  1.00  0.00     0.000 HD 
HETATM   24  O   UNL     1     -12.035  15.165  68.520  1.00  0.00    -0.304 OA 
BRANCH  22  25
HETATM   25  C   UNL     1     -11.177  15.544  70.736  1.00  0.00    -0.354 C  
BRANCH  25  26
HETATM   26  N   UNL     1     -12.163  14.908  71.569  1.00  0.00    -0.323 NA 
HETATM   27  C   UNL     1     -13.100  15.470  72.374  1.00  0.00    -0.437 A  
HETATM   28  N   UNL     1     -13.857  14.514  72.859  1.00  0.00    -0.540 NA 
HETATM   29  N   UNL     1     -13.368  13.341  72.333  1.00  0.00    -0.540 NA 
HETATM   30  N   UNL     1     -12.336  13.574  71.533  1.00  0.00    -0.191 NA 
ENDBRANCH  25  26
ENDBRANCH  22  25
ENDBRANCH   8  21
TORSDOF 6
ENDMDL
MODEL       74
REMARK 921   NORMALIZED FREE ENERGY PREDICTED BY IDOCK:   -5.50 KCAL/MOL
REMARK 922        TOTAL FREE ENERGY PREDICTED BY IDOCK:   -8.42 KCAL/MOL
REMARK 923 INTER-LIGAND FREE ENERGY PREDICTED BY IDOCK:   -7.59 KCAL/MOL
REMARK 924 INTRA-LIGAND FREE ENERGY PREDICTED BY IDOCK:   -0.83 KCAL/MOL
REMARK 927      BINDING AFFINITY PREDICTED BY RF-SCORE:    0.00 PKD
ROOT
HETATM    1  C   UNL     1      -8.507   8.206  66.652  1.00  0.00    -0.128 C  
HETATM    2  S   UNL     1      -9.978   9.140  67.106  1.00  0.00    -0.239 SA 
HETATM    3  C   UNL     1     -10.253   8.180  68.613  1.00  0.00    -0.207 C  
HETATM    4  C   UNL     1     -10.282   6.675  68.388  1.00  0.00    -0.188 C  
HETATM    5  O   UNL     1      -9.399   4.010  66.064  1.00  0.00    -0.147 OA 
HETATM    6  CA  UNL     1      -9.592   6.065  67.377  1.00  0.00    -0.112 C  
HETATM    7  N   UNL     1      -8.869   6.810  66.485  1.00  0.00    -0.138 N  
HETATM    8  CA  UNL     1      -8.109   8.210  65.141  1.00  0.00    -0.139 C  
HETATM    9  C   UNL     1      -9.568   4.554  67.281  1.00  0.00    -0.185 C  
HETATM   10  O   UNL     1      -8.428   5.735  64.473  1.00  0.00    -0.124 OA 
HETATM   11  C   UNL     1      -8.394   6.677  65.231  1.00  0.00    -0.111 C  
HETATM   12  OXT UNL     1      -9.650   3.836  68.271  1.00  0.00    -0.164 OA 
ENDROOT
BRANCH   4  13
HETATM   13  C   UNL     1     -11.143   5.880  69.379  1.00  0.00    -0.299 C  
BRANCH  13  14
HETATM   14  S   UNL     1     -10.870   6.176  71.152  1.00  0.00    -0.281 SA 
BRANCH  14  15
HETATM   15  C   UNL     1     -11.917   7.540  71.459  1.00  0.00    -0.307 A  
HETATM   16  N   UNL     1     -13.230   7.466  71.392  1.00  0.00    -0.362 NA 
HETATM   17  S   UNL     1     -11.319   9.111  71.788  1.00  0.00    -0.348 SA 
HETATM   18  N   UNL     1     -13.833   8.695  71.565  1.00  0.00    -0.361 NA 
HETATM   19  C   UNL     1     -13.278  11.080  71.986  1.00  0.00    -0.447 C  
HETATM   20  C   UNL     1     -12.950   9.649  71.776  1.00  0.00    -0.420 A  
ENDBRANCH  14  15
ENDBRANCH  13  14
ENDBRANCH   4  13
BRANCH   8  21
HETATM   21  N   UNL     1      -9.005   8.937  64.184  1.00  0.00    -0.413 N  
HETATM   22  C   UNL     1      -8.566  10.068  63.526  1.00  0.00    -0.208 C  
HETATM   23  H   UNL     1      -9.950   8.592  64.017  1.00  0.00     0.000 HD 
HETATM   24  O   UNL     1      -7.394  10.434  63.571  1.00  0.00    -0.117 OA 
BRANCH  22  25
HETATM   25  C   UNL     1      -9.621  10.810  62.743  1.00  0.00    -0.305 C  
BRANCH  25  26
HETATM   26  N   UNL     1     -10.483  11.568  63.611  1.00  0.00    -0.386 NA 
HETATM   27  C   UNL     1     -11.793  11.885  63.456  1.00  0.00    -0.460 A  
HETATM   28  N   UNL     1     -12.204  12.493  64.545  1.00  0.00    -0.435 NA 
HETATM   29  N   UNL     1     -11.114  12.543  65.383  1.00  0.00    -0.293 NA 
HETATM   30  N   UNL     1     -10.058  11.969  64.823  1.00  0.00    -0.265 NA 
ENDBRANCH  25  26
ENDBRANCH  22  25
ENDBRANCH   8  21
TORSDOF 6
ENDMDL
MODEL       75
REMARK 921   NORMALIZED FREE ENERGY PREDICTED BY IDOCK:   -5.48 KCAL/MOL
REMARK 922        TOTAL FREE ENERGY PREDICTED BY IDOCK:   -8.39 KCAL/MOL
REMARK 923 INTER-LIGAND FREE ENERGY PREDICTED BY IDOCK:   -7.33 KCAL/MOL
REMARK 924 INTRA-LIGAND FREE ENERGY PREDICTED BY IDOCK:   -1.06 KCAL/MOL
REMARK 927      BINDING AFFINITY PREDICTED BY RF-SCORE:    0.00 PKD
ROOT
HETATM    1  C   UNL     1      -8.338   9.470  69.772  1.00  0.00    -0.164 C  
HETATM    2  S   UNL     1      -8.649  10.006  68.081  1.00  0.00    -0.119 SA 
HETATM    3  C   UNL     1      -9.737  11.355  68.595  1.00  0.00    -0.176 C  
HETATM    4  C   UNL     1     -10.857  10.921  69.529  1.00  0.00    -0.286 C  
HETATM    5  O   UNL     1     -11.993   8.276  71.765  1.00  0.00    -0.283 OA 
HETATM    6  CA  UNL     1     -10.740   9.856  70.380  1.00  0.00    -0.318 C  
HETATM    7  N   UNL     1      -9.600   9.099  70.388  1.00  0.00    -0.206 N  
HETATM    8  CA  UNL     1      -7.888   7.987  69.970  1.00  0.00    -0.104 C  
HETATM    9  C   UNL     1     -11.847   9.552  71.367  1.00  0.00    -0.389 C  
HETATM   10  O   UNL     1      -9.869   6.971  71.281  1.00  0.00    -0.176 OA 
HETATM   11  C   UNL     1      -9.235   7.854  70.749  1.00  0.00    -0.157 C  
HETATM   12  OXT UNL     1     -12.563  10.429  71.836  1.00  0.00    -0.397 OA 
ENDROOT
BRANCH   4  13
HETATM   13  C   UNL     1     -12.136  11.765  69.456  1.00  0.00    -0.250 C  
BRANCH  13  14
HETATM   14  S   UNL     1     -11.946  13.572  69.381  1.00  0.00    -0.309 SA 
BRANCH  14  15
HETATM   15  C   UNL     1     -12.349  14.049  71.012  1.00  0.00    -0.369 A  
HETATM   16  N   UNL     1     -13.329  13.500  71.699  1.00  0.00    -0.358 NA 
HETATM   17  S   UNL     1     -11.558  15.333  71.823  1.00  0.00    -0.427 SA 
HETATM   18  N   UNL     1     -13.525  14.118  72.917  1.00  0.00    -0.667 NA 
HETATM   19  C   UNL     1     -12.627  15.966  74.316  1.00  0.00    -0.725 C  
HETATM   20  C   UNL     1     -12.670  15.101  73.111  1.00  0.00    -0.481 A  
ENDBRANCH  14  15
ENDBRANCH  13  14
ENDBRANCH   4  13
BRANCH   8  21
HETATM   21  N   UNL     1      -7.803   7.114  68.754  1.00  0.00    -0.119 N  
HETATM   22  C   UNL     1      -6.877   6.095  68.680  1.00  0.00    -0.070 C  
HETATM   23  H   UNL     1      -8.438   7.276  67.972  1.00  0.00     0.000 HD 
HETATM   24  O   UNL     1      -6.197   5.759  69.648  1.00  0.00    -0.029 OA 
BRANCH  22  25
HETATM   25  C   UNL     1      -6.766   5.419  67.335  1.00  0.00    -0.059 C  
BRANCH  25  26
HETATM   26  N   UNL     1      -8.060   5.056  66.822  1.00  0.00    -0.107 NA 
HETATM   27  C   UNL     1      -8.818   3.964  67.097  1.00  0.00    -0.122 A  
HETATM   28  N   UNL     1      -9.974   4.098  66.490  1.00  0.00    -0.199 NA 
HETATM   29  N   UNL     1      -9.917   5.304  65.831  1.00  0.00    -0.115 NA 
HETATM   30  N   UNL     1      -8.751   5.903  66.038  1.00  0.00    -0.144 NA 
ENDBRANCH  25  26
ENDBRANCH  22  25
ENDBRANCH   8  21
TORSDOF 6
ENDMDL
MODEL       76
REMARK 921   NORMALIZED FREE ENERGY PREDICTED BY IDOCK:   -5.48 KCAL/MOL
REMARK 922        TOTAL FREE ENERGY PREDICTED BY IDOCK:   -8.38 KCAL/MOL
REMARK 923 INTER-LIGAND FREE ENERGY PREDICTED BY IDOCK:   -7.20 KCAL/MOL
REMARK 924 INTRA-LIGAND FREE ENERGY PREDICTED BY IDOCK:   -1.18 KCAL/MOL
REMARK 927      BINDING AFFINITY PREDICTED BY RF-SCORE:    0.00 PKD
ROOT
HETATM    1  C   UNL     1      -9.675  13.595  68.326  1.00  0.00    -0.231 C  
HETATM    2  S   UNL     1     -10.414  12.117  67.612  1.00  0.00    -0.210 SA 
HETATM    3  C   UNL     1      -9.352  11.000  68.556  1.00  0.00    -0.188 C  
HETATM    4  C   UNL     1      -7.866  11.309  68.429  1.00  0.00    -0.136 C  
HETATM    5  O   UNL     1      -5.442  13.846  67.446  1.00  0.00    -0.345 OA 
HETATM    6  CA  UNL     1      -7.391  12.569  68.190  1.00  0.00    -0.110 C  
HETATM    7  N   UNL     1      -8.258  13.613  68.009  1.00  0.00    -0.150 N  
HETATM    8  CA  UNL     1      -9.803  14.915  67.500  1.00  0.00    -0.217 C  
HETATM    9  C   UNL     1      -5.899  12.828  68.194  1.00  0.00    -0.083 C  
HETATM   10  O   UNL     1      -7.346  15.433  66.889  1.00  0.00    -0.152 OA 
HETATM   11  C   UNL     1      -8.244  14.828  67.428  1.00  0.00    -0.196 C  
HETATM   12  OXT UNL     1      -5.125  12.175  68.885  1.00  0.00    -0.054 OA 
ENDROOT
BRANCH   4  13
HETATM   13  C   UNL     1      -6.930  10.104  68.590  1.00  0.00    -0.062 C  
BRANCH  13  14
HETATM   14  S   UNL     1      -6.360   9.277  67.074  1.00  0.00    -0.067 SA 
BRANCH  14  15
HETATM   15  C   UNL     1      -7.601   8.073  66.828  1.00  0.00    -0.094 A  
HETATM   16  N   UNL     1      -7.876   7.557  65.648  1.00  0.00    -0.103 NA 
HETATM   17  S   UNL     1      -8.624   7.527  68.088  1.00  0.00    -0.122 SA 
HETATM   18  N   UNL     1      -8.966   6.712  65.688  1.00  0.00    -0.037 NA 
HETATM   19  C   UNL     1     -10.640   5.786  67.275  1.00  0.00    -0.353 C  
HETATM   20  C   UNL     1      -9.461   6.607  66.904  1.00  0.00    -0.154 A  
ENDBRANCH  14  15
ENDBRANCH  13  14
ENDBRANCH   4  13
BRANCH   8  21
HETATM   21  N   UNL     1     -10.476  14.841  66.162  1.00  0.00    -0.293 N  
HETATM   22  C   UNL     1     -10.834  15.990  65.488  1.00  0.00    -0.292 C  
HETATM   23  H   UNL     1     -10.671  13.931  65.746  1.00  0.00     0.000 HD 
HETATM   24  O   UNL     1     -10.486  17.105  65.869  1.00  0.00    -0.386 OA 
BRANCH  22  25
HETATM   25  C   UNL     1     -11.671  15.777  64.250  1.00  0.00    -0.162 C  
BRANCH  25  26
HETATM   26  N   UNL     1     -12.256  14.463  64.231  1.00  0.00    -0.593 NA 
HETATM   27  C   UNL     1     -12.011  13.426  63.391  1.00  0.00    -0.344 A  
HETATM   28  N   UNL     1     -12.689  12.382  63.811  1.00  0.00    -0.758 NA 
HETATM   29  N   UNL     1     -13.361  12.798  64.937  1.00  0.00    -0.546 NA 
HETATM   30  N   UNL     1     -13.094  14.068  65.208  1.00  0.00    -0.765 NA 
ENDBRANCH  25  26
ENDBRANCH  22  25
ENDBRANCH   8  21
TORSDOF 6
ENDMDL
MODEL       77
REMARK 921   NORMALIZED FREE ENERGY PREDICTED BY IDOCK:   -5.47 KCAL/MOL
REMARK 922        TOTAL FREE ENERGY PREDICTED BY IDOCK:   -8.38 KCAL/MOL
REMARK 923 INTER-LIGAND FREE ENERGY PREDICTED BY IDOCK:   -7.40 KCAL/MOL
REMARK 924 INTRA-LIGAND FREE ENERGY PREDICTED BY IDOCK:   -0.97 KCAL/MOL
REMARK 927      BINDING AFFINITY PREDICTED BY RF-SCORE:    0.00 PKD
ROOT
HETATM    1  C   UNL     1     -11.195  10.124  68.398  1.00  0.00    -0.177 C  
HETATM    2  S   UNL     1     -12.173  11.076  69.573  1.00  0.00    -0.189 SA 
HETATM    3  C   UNL     1     -11.852  12.644  68.732  1.00  0.00    -0.300 C  
HETATM    4  C   UNL     1     -10.376  12.922  68.489  1.00  0.00    -0.239 C  
HETATM    5  O   UNL     1      -7.061  11.412  68.348  1.00  0.00    -0.070 OA 
HETATM    6  CA  UNL     1      -9.453  11.925  68.324  1.00  0.00    -0.197 C  
HETATM    7  N   UNL     1      -9.828  10.613  68.418  1.00  0.00    -0.156 N  
HETATM    8  CA  UNL     1     -10.636   8.752  68.896  1.00  0.00    -0.155 C  
HETATM    9  C   UNL     1      -8.023  12.271  67.967  1.00  0.00    -0.150 C  
HETATM   10  O   UNL     1      -8.083   9.148  68.874  1.00  0.00    -0.097 OA 
HETATM   11  C   UNL     1      -9.244   9.428  68.680  1.00  0.00    -0.131 C  
HETATM   12  OXT UNL     1      -7.735  13.267  67.313  1.00  0.00    -0.157 OA 
ENDROOT
BRANCH   4  13
HETATM   13  C   UNL     1      -9.987  14.405  68.439  1.00  0.00    -0.241 C  
BRANCH  13  14
HETATM   14  S   UNL     1     -10.737  15.425  67.133  1.00  0.00    -0.316 SA 
BRANCH  14  15
HETATM   15  C   UNL     1     -11.005  14.254  65.865  1.00  0.00    -0.304 A  
HETATM   16  N   UNL     1     -10.042  13.807  65.086  1.00  0.00    -0.320 NA 
HETATM   17  S   UNL     1     -12.561  13.655  65.473  1.00  0.00    -0.457 SA 
HETATM   18  N   UNL     1     -10.518  12.977  64.092  1.00  0.00    -0.416 NA 
HETATM   19  C   UNL     1     -12.634  11.990  63.241  1.00  0.00    -0.512 C  
HETATM   20  C   UNL     1     -11.822  12.814  64.170  1.00  0.00    -0.413 A  
ENDBRANCH  14  15
ENDBRANCH  13  14
ENDBRANCH   4  13
BRANCH   8  21
HETATM   21  N   UNL     1     -10.906   8.361  70.318  1.00  0.00    -0.239 N  
HETATM   22  C   UNL     1     -11.471   7.139  70.619  1.00  0.00    -0.308 C  
HETATM   23  H   UNL     1     -10.669   9.007  71.071  1.00  0.00     0.000 HD 
HETATM   24  O   UNL     1     -11.631   6.268  69.768  1.00  0.00    -0.436 OA 
BRANCH  22  25
HETATM   25  C   UNL     1     -11.865   6.949  72.063  1.00  0.00    -0.310 C  
BRANCH  25  26
HETATM   26  N   UNL     1     -10.710   6.862  72.916  1.00  0.00    -0.256 NA 
HETATM   27  C   UNL     1     -10.107   5.763  73.436  1.00  0.00    -0.195 A  
HETATM   28  N   UNL     1      -9.019   6.144  74.065  1.00  0.00    -0.126 NA 
HETATM   29  N   UNL     1      -8.960   7.511  73.919  1.00  0.00    -0.233 NA 
HETATM   30  N   UNL     1      -9.986   7.958  73.208  1.00  0.00    -0.303 NA 
ENDBRANCH  25  26
ENDBRANCH  22  25
ENDBRANCH   8  21
TORSDOF 6
ENDMDL
MODEL       78
REMARK 921   NORMALIZED FREE ENERGY PREDICTED BY IDOCK:   -5.47 KCAL/MOL
REMARK 922        TOTAL FREE ENERGY PREDICTED BY IDOCK:   -8.37 KCAL/MOL
REMARK 923 INTER-LIGAND FREE ENERGY PREDICTED BY IDOCK:   -7.32 KCAL/MOL
REMARK 924 INTRA-LIGAND FREE ENERGY PREDICTED BY IDOCK:   -1.06 KCAL/MOL
REMARK 927      BINDING AFFINITY PREDICTED BY RF-SCORE:    0.00 PKD
ROOT
HETATM    1  C   UNL     1      -8.778  10.907  68.534  1.00  0.00    -0.153 C  
HETATM    2  S   UNL     1     -10.328  10.408  69.303  1.00  0.00    -0.241 SA 
HETATM    3  C   UNL     1      -9.627   8.885  69.978  1.00  0.00    -0.178 C  
HETATM    4  C   UNL     1      -8.917   8.022  68.945  1.00  0.00    -0.141 C  
HETATM    5  O   UNL     1      -7.439   8.003  65.614  1.00  0.00    -0.077 OA 
HETATM    6  CA  UNL     1      -8.319   8.544  67.831  1.00  0.00    -0.126 C  
HETATM    7  N   UNL     1      -8.377   9.888  67.580  1.00  0.00    -0.115 N  
HETATM    8  CA  UNL     1      -8.876  11.896  67.329  1.00  0.00    -0.179 C  
HETATM    9  C   UNL     1      -7.528   7.644  66.906  1.00  0.00    -0.094 C  
HETATM   10  O   UNL     1      -8.008  10.465  65.360  1.00  0.00    -0.146 OA 
HETATM   11  C   UNL     1      -8.270  10.707  66.516  1.00  0.00    -0.138 C  
HETATM   12  OXT UNL     1      -6.942   6.646  67.309  1.00  0.00    -0.073 OA 
ENDROOT
BRANCH   4  13
HETATM   13  C   UNL     1      -8.916   6.516  69.238  1.00  0.00    -0.131 C  
BRANCH  13  14
HETATM   14  S   UNL     1      -8.020   5.950  70.716  1.00  0.00    -0.116 SA 
BRANCH  14  15
HETATM   15  C   UNL     1      -9.292   5.198  71.647  1.00  0.00    -0.147 A  
HETATM   16  N   UNL     1     -10.223   5.884  72.276  1.00  0.00    -0.186 NA 
HETATM   17  S   UNL     1      -9.383   3.505  71.890  1.00  0.00    -0.137 SA 
HETATM   18  N   UNL     1     -11.048   5.076  73.031  1.00  0.00    -0.289 NA 
HETATM   19  C   UNL     1     -11.404   2.689  73.625  1.00  0.00    -0.288 C  
HETATM   20  C   UNL     1     -10.719   3.805  72.927  1.00  0.00    -0.110 A  
ENDBRANCH  14  15
ENDBRANCH  13  14
ENDBRANCH   4  13
BRANCH   8  21
HETATM   21  N   UNL     1     -10.243  12.307  66.871  1.00  0.00    -0.212 N  
HETATM   22  C   UNL     1     -10.728  13.570  67.143  1.00  0.00    -0.279 C  
HETATM   23  H   UNL     1     -10.821  11.647  66.352  1.00  0.00     0.000 HD 
HETATM   24  O   UNL     1     -10.019  14.451  67.626  1.00  0.00    -0.222 OA 
BRANCH  22  25
HETATM   25  C   UNL     1     -12.181  13.791  66.798  1.00  0.00    -0.397 C  
BRANCH  25  26
HETATM   26  N   UNL     1     -12.431  13.555  65.402  1.00  0.00    -0.474 NA 
HETATM   27  C   UNL     1     -12.166  14.351  64.335  1.00  0.00    -0.458 A  
HETATM   28  N   UNL     1     -12.459  13.689  63.240  1.00  0.00    -0.773 NA 
HETATM   29  N   UNL     1     -12.910  12.457  63.654  1.00  0.00    -0.780 NA 
HETATM   30  N   UNL     1     -12.886  12.363  64.976  1.00  0.00    -0.658 NA 
ENDBRANCH  25  26
ENDBRANCH  22  25
ENDBRANCH   8  21
TORSDOF 6
ENDMDL
MODEL       79
REMARK 921   NORMALIZED FREE ENERGY PREDICTED BY IDOCK:   -5.47 KCAL/MOL
REMARK 922        TOTAL FREE ENERGY PREDICTED BY IDOCK:   -8.37 KCAL/MOL
REMARK 923 INTER-LIGAND FREE ENERGY PREDICTED BY IDOCK:   -7.78 KCAL/MOL
REMARK 924 INTRA-LIGAND FREE ENERGY PREDICTED BY IDOCK:   -0.59 KCAL/MOL
REMARK 927      BINDING AFFINITY PREDICTED BY RF-SCORE:    0.00 PKD
ROOT
HETATM    1  C   UNL     1     -10.056  14.491  68.195  1.00  0.00    -0.227 C  
HETATM    2  S   UNL     1     -10.277  15.461  69.695  1.00  0.00    -0.267 SA 
HETATM    3  C   UNL     1      -8.971  16.632  69.258  1.00  0.00    -0.052 C  
HETATM    4  C   UNL     1      -7.645  15.972  68.905  1.00  0.00    -0.192 C  
HETATM    5  O   UNL     1      -6.063  12.833  67.941  1.00  0.00    -0.086 OA 
HETATM    6  CA  UNL     1      -7.565  14.717  68.366  1.00  0.00    -0.119 C  
HETATM    7  N   UNL     1      -8.698  13.977  68.163  1.00  0.00    -0.173 N  
HETATM    8  CA  UNL     1     -10.540  13.006  68.239  1.00  0.00    -0.247 C  
HETATM    9  C   UNL     1      -6.224  14.167  67.927  1.00  0.00    -0.155 C  
HETATM   10  O   UNL     1      -8.330  11.690  67.987  1.00  0.00    -0.134 OA 
HETATM   11  C   UNL     1      -9.027  12.678  68.027  1.00  0.00    -0.200 C  
HETATM   12  OXT UNL     1      -5.321  14.892  67.524  1.00  0.00    -0.332 OA 
ENDROOT
BRANCH   4  13
HETATM   13  C   UNL     1      -6.396  16.814  69.193  1.00  0.00    -0.200 C  
BRANCH  13  14
HETATM   14  S   UNL     1      -5.806  17.919  67.874  1.00  0.00    -0.157 SA 
BRANCH  14  15
HETATM   15  C   UNL     1      -7.255  18.807  67.469  1.00  0.00    -0.215 A  
HETATM   16  N   UNL     1      -7.792  19.706  68.267  1.00  0.00    -0.318 NA 
HETATM   17  S   UNL     1      -8.146  18.520  66.035  1.00  0.00     0.018 SA 
HETATM   18  N   UNL     1      -8.988  20.190  67.779  1.00  0.00    -0.306 NA 
HETATM   19  C   UNL     1     -10.526  19.952  65.841  1.00  0.00    -0.567 C  
HETATM   20  C   UNL     1      -9.299  19.651  66.618  1.00  0.00    -0.376 A  
ENDBRANCH  14  15
ENDBRANCH  13  14
ENDBRANCH   4  13
BRANCH   8  21
HETATM   21  N   UNL     1     -11.095  12.489  69.533  1.00  0.00    -0.470 N  
HETATM   22  C   UNL     1     -12.026  11.471  69.545  1.00  0.00    -0.335 C  
HETATM   23  H   UNL     1     -10.781  12.896  70.414  1.00  0.00     0.000 HD 
HETATM   24  O   UNL     1     -12.321  10.845  68.529  1.00  0.00    -0.490 OA 
BRANCH  22  25
HETATM   25  C   UNL     1     -12.644  11.178  70.890  1.00  0.00    -0.386 C  
BRANCH  25  26
HETATM   26  N   UNL     1     -12.085   9.989  71.477  1.00  0.00    -0.395 NA 
HETATM   27  C   UNL     1     -12.710   8.983  72.140  1.00  0.00    -0.401 A  
HETATM   28  N   UNL     1     -11.827   8.047  72.402  1.00  0.00    -0.366 NA 
HETATM   29  N   UNL     1     -10.636   8.497  71.882  1.00  0.00    -0.295 NA 
HETATM   30  N   UNL     1     -10.787   9.681  71.304  1.00  0.00    -0.343 NA 
ENDBRANCH  25  26
ENDBRANCH  22  25
ENDBRANCH   8  21
TORSDOF 6
ENDMDL
MODEL       80
REMARK 921   NORMALIZED FREE ENERGY PREDICTED BY IDOCK:   -5.44 KCAL/MOL
REMARK 922        TOTAL FREE ENERGY PREDICTED BY IDOCK:   -8.33 KCAL/MOL
REMARK 923 INTER-LIGAND FREE ENERGY PREDICTED BY IDOCK:   -7.52 KCAL/MOL
REMARK 924 INTRA-LIGAND FREE ENERGY PREDICTED BY IDOCK:   -0.81 KCAL/MOL
REMARK 927      BINDING AFFINITY PREDICTED BY RF-SCORE:    0.00 PKD
ROOT
HETATM    1  C   UNL     1      -9.097   9.569  68.570  1.00  0.00    -0.131 C  
HETATM    2  S   UNL     1      -9.600   8.688  67.082  1.00  0.00    -0.189 SA 
HETATM    3  C   UNL     1      -9.912  10.209  66.157  1.00  0.00    -0.246 C  
HETATM    4  C   UNL     1     -10.832  11.188  66.873  1.00  0.00    -0.333 C  
HETATM    5  O   UNL     1     -12.285  12.070  70.097  1.00  0.00    -0.287 OA 
HETATM    6  CA  UNL     1     -10.921  11.257  68.237  1.00  0.00    -0.224 C  
HETATM    7  N   UNL     1     -10.201  10.398  69.022  1.00  0.00    -0.204 N  
HETATM    8  CA  UNL     1      -9.219   8.795  69.922  1.00  0.00    -0.157 C  
HETATM    9  C   UNL     1     -11.766  12.333  68.886  1.00  0.00    -0.328 C  
HETATM   10  O   UNL     1     -11.031  10.144  71.177  1.00  0.00    -0.245 OA 
HETATM   11  C   UNL     1     -10.265   9.902  70.272  1.00  0.00    -0.264 C  
HETATM   12  OXT UNL     1     -11.942  13.428  68.364  1.00  0.00    -0.348 OA 
ENDROOT
BRANCH   4  13
HETATM   13  C   UNL     1     -11.659  12.100  65.958  1.00  0.00    -0.358 C  
BRANCH  13  14
HETATM   14  S   UNL     1     -10.821  12.824  64.516  1.00  0.00    -0.372 SA 
BRANCH  14  15
HETATM   15  C   UNL     1     -10.610  14.485  65.012  1.00  0.00    -0.437 A  
HETATM   16  N   UNL     1     -11.183  15.497  64.395  1.00  0.00    -0.291 NA 
HETATM   17  S   UNL     1      -9.569  14.942  66.293  1.00  0.00    -0.316 SA 
HETATM   18  N   UNL     1     -10.778  16.715  64.901  1.00  0.00    -0.717 NA 
HETATM   19  C   UNL     1      -9.299  17.692  66.643  1.00  0.00    -0.289 C  
HETATM   20  C   UNL     1      -9.927  16.575  65.896  1.00  0.00    -0.317 A  
ENDBRANCH  14  15
ENDBRANCH  13  14
ENDBRANCH   4  13
BRANCH   8  21
HETATM   21  N   UNL     1      -9.793   7.410  69.886  1.00  0.00    -0.178 N  
HETATM   22  C   UNL     1      -9.018   6.317  70.211  1.00  0.00    -0.154 C  
HETATM   23  H   UNL     1     -10.768   7.275  69.617  1.00  0.00     0.000 HD 
HETATM   24  O   UNL     1      -7.891   6.434  70.688  1.00  0.00    -0.102 OA 
BRANCH  22  25
HETATM   25  C   UNL     1      -9.655   4.973  69.951  1.00  0.00    -0.176 C  
BRANCH  25  26
HETATM   26  N   UNL     1      -9.897   4.260  71.176  1.00  0.00    -0.185 NA 
HETATM   27  C   UNL     1     -10.451   4.703  72.333  1.00  0.00    -0.185 A  
HETATM   28  N   UNL     1     -10.579   3.683  73.149  1.00  0.00    -0.174 NA 
HETATM   29  N   UNL     1     -10.092   2.592  72.469  1.00  0.00    -0.155 NA 
HETATM   30  N   UNL     1      -9.681   2.935  71.255  1.00  0.00    -0.158 NA 
ENDBRANCH  25  26
ENDBRANCH  22  25
ENDBRANCH   8  21
TORSDOF 6
ENDMDL
MODEL       81
REMARK 921   NORMALIZED FREE ENERGY PREDICTED BY IDOCK:   -5.37 KCAL/MOL
REMARK 922        TOTAL FREE ENERGY PREDICTED BY IDOCK:   -8.23 KCAL/MOL
REMARK 923 INTER-LIGAND FREE ENERGY PREDICTED BY IDOCK:   -7.15 KCAL/MOL
REMARK 924 INTRA-LIGAND FREE ENERGY PREDICTED BY IDOCK:   -1.09 KCAL/MOL
REMARK 927      BINDING AFFINITY PREDICTED BY RF-SCORE:    0.00 PKD
ROOT
HETATM    1  C   UNL     1     -11.539   7.735  70.495  1.00  0.00    -0.158 C  
HETATM    2  S   UNL     1     -10.863   8.889  71.701  1.00  0.00    -0.371 SA 
HETATM    3  C   UNL     1     -11.232  10.336  70.683  1.00  0.00    -0.325 C  
HETATM    4  C   UNL     1     -10.699  10.241  69.260  1.00  0.00    -0.265 C  
HETATM    5  O   UNL     1      -9.432   7.957  66.718  1.00  0.00    -0.175 OA 
HETATM    6  CA  UNL     1     -10.531   9.048  68.612  1.00  0.00    -0.200 C  
HETATM    7  N   UNL     1     -10.802   7.869  69.251  1.00  0.00    -0.130 N  
HETATM    8  CA  UNL     1     -11.020   6.263  70.561  1.00  0.00    -0.312 C  
HETATM    9  C   UNL     1     -10.110   9.031  67.157  1.00  0.00    -0.243 C  
HETATM   10  O   UNL     1      -9.763   6.012  68.317  1.00  0.00    -0.119 OA 
HETATM   11  C   UNL     1     -10.451   6.573  69.139  1.00  0.00    -0.221 C  
HETATM   12  OXT UNL     1     -10.409   9.931  66.380  1.00  0.00    -0.227 OA 
ENDROOT
BRANCH   4  13
HETATM   13  C   UNL     1     -10.362  11.582  68.595  1.00  0.00    -0.210 C  
BRANCH  13  14
HETATM   14  S   UNL     1     -11.751  12.642  68.093  1.00  0.00    -0.334 SA 
BRANCH  14  15
HETATM   15  C   UNL     1     -11.639  13.956  69.238  1.00  0.00    -0.309 A  
HETATM   16  N   UNL     1     -10.818  14.975  69.084  1.00  0.00    -0.241 NA 
HETATM   17  S   UNL     1     -12.526  13.985  70.703  1.00  0.00    -0.366 SA 
HETATM   18  N   UNL     1     -10.830  15.825  70.170  1.00  0.00    -0.326 NA 
HETATM   19  C   UNL     1     -11.912  16.115  72.389  1.00  0.00    -0.649 C  
HETATM   20  C   UNL     1     -11.676  15.425  71.097  1.00  0.00    -0.368 A  
ENDBRANCH  14  15
ENDBRANCH  13  14
ENDBRANCH   4  13
BRANCH   8  21
HETATM   21  N   UNL     1      -9.966   5.938  71.577  1.00  0.00    -0.177 N  
HETATM   22  C   UNL     1     -10.311   5.450  72.820  1.00  0.00    -0.195 C  
HETATM   23  H   UNL     1      -8.982   6.079  71.346  1.00  0.00     0.000 HD 
HETATM   24  O   UNL     1     -11.462   5.117  73.094  1.00  0.00    -0.323 OA 
BRANCH  22  25
HETATM   25  C   UNL     1      -9.177   5.346  73.810  1.00  0.00    -0.125 C  
BRANCH  25  26
HETATM   26  N   UNL     1      -8.343   6.518  73.779  1.00  0.00    -0.117 NA 
HETATM   27  C   UNL     1      -8.523   7.716  74.391  1.00  0.00    -0.213 A  
HETATM   28  N   UNL     1      -7.459   8.455  74.177  1.00  0.00    -0.303 NA 
HETATM   29  N   UNL     1      -6.611   7.684  73.418  1.00  0.00    -0.066 NA 
HETATM   30  N   UNL     1      -7.140   6.491  73.178  1.00  0.00    -0.077 NA 
ENDBRANCH  25  26
ENDBRANCH  22  25
ENDBRANCH   8  21
TORSDOF 6
ENDMDL
MODEL       82
REMARK 921   NORMALIZED FREE ENERGY PREDICTED BY IDOCK:   -5.35 KCAL/MOL
REMARK 922        TOTAL FREE ENERGY PREDICTED BY IDOCK:   -8.21 KCAL/MOL
REMARK 923 INTER-LIGAND FREE ENERGY PREDICTED BY IDOCK:   -7.19 KCAL/MOL
REMARK 924 INTRA-LIGAND FREE ENERGY PREDICTED BY IDOCK:   -1.03 KCAL/MOL
REMARK 927      BINDING AFFINITY PREDICTED BY RF-SCORE:    0.00 PKD
ROOT
HETATM    1  C   UNL     1      -9.911  11.224  65.657  1.00  0.00    -0.247 C  
HETATM    2  S   UNL     1     -11.376  11.679  66.601  1.00  0.00    -0.193 SA 
HETATM    3  C   UNL     1     -10.922  13.427  66.667  1.00  0.00    -0.287 C  
HETATM    4  C   UNL     1      -9.512  13.679  67.182  1.00  0.00    -0.244 C  
HETATM    5  O   UNL     1      -6.273  12.136  67.821  1.00  0.00    -0.067 OA 
HETATM    6  CA  UNL     1      -8.496  12.776  67.027  1.00  0.00    -0.153 C  
HETATM    7  N   UNL     1      -8.729  11.568  66.428  1.00  0.00    -0.186 N  
HETATM    8  CA  UNL     1      -9.449   9.735  65.748  1.00  0.00    -0.240 C  
HETATM    9  C   UNL     1      -7.090  13.139  67.457  1.00  0.00    -0.150 C  
HETATM   10  O   UNL     1      -7.161   9.929  66.932  1.00  0.00    -0.089 OA 
HETATM   11  C   UNL     1      -8.171  10.342  66.410  1.00  0.00    -0.141 C  
HETATM   12  OXT UNL     1      -6.678  14.293  67.435  1.00  0.00    -0.259 OA 
ENDROOT
BRANCH   4  13
HETATM   13  C   UNL     1      -9.303  15.024  67.891  1.00  0.00    -0.183 C  
BRANCH  13  14
HETATM   14  S   UNL     1     -10.488  16.355  67.530  1.00  0.00    -0.302 SA 
BRANCH  14  15
HETATM   15  C   UNL     1      -9.433  17.662  67.050  1.00  0.00    -0.266 A  
HETATM   16  N   UNL     1      -8.695  17.625  65.959  1.00  0.00    -0.523 NA 
HETATM   17  S   UNL     1      -9.205  19.065  68.005  1.00  0.00    -0.322 SA 
HETATM   18  N   UNL     1      -7.865  18.722  65.853  1.00  0.00    -0.482 NA 
HETATM   19  C   UNL     1      -7.269  20.821  67.042  1.00  0.00    -0.369 C  
HETATM   20  C   UNL     1      -8.023  19.556  66.860  1.00  0.00    -0.277 A  
ENDBRANCH  14  15
ENDBRANCH  13  14
ENDBRANCH   4  13
BRANCH   8  21
HETATM   21  N   UNL     1     -10.220   8.817  66.650  1.00  0.00    -0.284 N  
HETATM   22  C   UNL     1      -9.952   7.464  66.675  1.00  0.00    -0.191 C  
HETATM   23  H   UNL     1     -10.950   9.198  67.251  1.00  0.00     0.000 HD 
HETATM   24  O   UNL     1      -8.985   6.979  66.090  1.00  0.00    -0.156 OA 
BRANCH  22  25
HETATM   25  C   UNL     1     -10.921   6.629  67.477  1.00  0.00    -0.338 C  
BRANCH  25  26
HETATM   26  N   UNL     1     -10.811   6.904  68.884  1.00  0.00    -0.224 NA 
HETATM   27  C   UNL     1     -11.493   6.357  69.922  1.00  0.00    -0.415 A  
HETATM   28  N   UNL     1     -10.990   6.824  71.042  1.00  0.00    -0.245 NA 
HETATM   29  N   UNL     1      -9.975   7.675  70.672  1.00  0.00    -0.183 NA 
HETATM   30  N   UNL     1      -9.851   7.722  69.353  1.00  0.00    -0.173 NA 
ENDBRANCH  25  26
ENDBRANCH  22  25
ENDBRANCH   8  21
TORSDOF 6
ENDMDL
MODEL       83
REMARK 921   NORMALIZED FREE ENERGY PREDICTED BY IDOCK:   -5.33 KCAL/MOL
REMARK 922        TOTAL FREE ENERGY PREDICTED BY IDOCK:   -8.18 KCAL/MOL
REMARK 923 INTER-LIGAND FREE ENERGY PREDICTED BY IDOCK:   -6.55 KCAL/MOL
REMARK 924 INTRA-LIGAND FREE ENERGY PREDICTED BY IDOCK:   -1.62 KCAL/MOL
REMARK 927      BINDING AFFINITY PREDICTED BY RF-SCORE:    0.00 PKD
ROOT
HETATM    1  C   UNL     1      -8.158  10.634  68.025  1.00  0.00    -0.112 C  
HETATM    2  S   UNL     1      -7.617  11.873  66.836  1.00  0.00    -0.041 SA 
HETATM    3  C   UNL     1      -8.078  13.255  67.905  1.00  0.00    -0.159 C  
HETATM    4  C   UNL     1      -9.511  13.188  68.415  1.00  0.00    -0.166 C  
HETATM    5  O   UNL     1     -12.384  10.998  68.897  1.00  0.00    -0.516 OA 
HETATM    6  CA  UNL     1     -10.175  12.007  68.600  1.00  0.00    -0.177 C  
HETATM    7  N   UNL     1      -9.575  10.818  68.285  1.00  0.00    -0.160 N  
HETATM    8  CA  UNL     1      -8.519   9.224  67.457  1.00  0.00    -0.115 C  
HETATM    9  C   UNL     1     -11.556  12.006  69.222  1.00  0.00    -0.321 C  
HETATM   10  O   UNL     1     -11.053   9.060  67.937  1.00  0.00    -0.035 OA 
HETATM   11  C   UNL     1      -9.954   9.564  67.975  1.00  0.00    -0.167 C  
HETATM   12  OXT UNL     1     -11.908  12.855  70.032  1.00  0.00    -0.326 OA 
ENDROOT
BRANCH   4  13
HETATM   13  C   UNL     1     -10.166  14.544  68.711  1.00  0.00    -0.244 C  
BRANCH  13  14
HETATM   14  S   UNL     1     -10.463  15.657  67.303  1.00  0.00    -0.295 SA 
BRANCH  14  15
HETATM   15  C   UNL     1     -11.313  14.615  66.188  1.00  0.00    -0.350 A  
HETATM   16  N   UNL     1     -12.528  14.162  66.414  1.00  0.00    -0.416 NA 
HETATM   17  S   UNL     1     -10.601  14.027  64.746  1.00  0.00    -0.390 SA 
HETATM   18  N   UNL     1     -12.942  13.272  65.444  1.00  0.00    -0.627 NA 
HETATM   19  C   UNL     1     -12.166  12.202  63.340  1.00  0.00    -0.635 C  
HETATM   20  C   UNL     1     -12.029  13.102  64.511  1.00  0.00    -0.389 A  
ENDBRANCH  14  15
ENDBRANCH  13  14
ENDBRANCH   4  13
BRANCH   8  21
HETATM   21  N   UNL     1      -8.443   9.027  65.972  1.00  0.00    -0.124 N  
HETATM   22  C   UNL     1      -8.286   7.766  65.435  1.00  0.00    -0.136 C  
HETATM   23  H   UNL     1      -8.507   9.835  65.353  1.00  0.00     0.000 HD 
HETATM   24  O   UNL     1      -8.359   6.750  66.123  1.00  0.00    -0.118 OA 
BRANCH  22  25
HETATM   25  C   UNL     1      -8.032   7.726  63.948  1.00  0.00    -0.103 C  
BRANCH  25  26
HETATM   26  N   UNL     1      -7.215   8.832  63.525  1.00  0.00    -0.093 NA 
HETATM   27  C   UNL     1      -5.888   8.862  63.244  1.00  0.00    -0.084 A  
HETATM   28  N   UNL     1      -5.587  10.056  62.788  1.00  0.00    -0.096 NA 
HETATM   29  N   UNL     1      -6.764  10.767  62.789  1.00  0.00    -0.013 NA 
HETATM   30  N   UNL     1      -7.769  10.022  63.229  1.00  0.00    -0.143 NA 
ENDBRANCH  25  26
ENDBRANCH  22  25
ENDBRANCH   8  21
TORSDOF 6
ENDMDL
MODEL       84
REMARK 921   NORMALIZED FREE ENERGY PREDICTED BY IDOCK:   -5.32 KCAL/MOL
REMARK 922        TOTAL FREE ENERGY PREDICTED BY IDOCK:   -8.17 KCAL/MOL
REMARK 923 INTER-LIGAND FREE ENERGY PREDICTED BY IDOCK:   -7.42 KCAL/MOL
REMARK 924 INTRA-LIGAND FREE ENERGY PREDICTED BY IDOCK:   -0.75 KCAL/MOL
REMARK 927      BINDING AFFINITY PREDICTED BY RF-SCORE:    0.00 PKD
ROOT
HETATM    1  C   UNL     1      -9.730  14.470  66.695  1.00  0.00    -0.273 C  
HETATM    2  S   UNL     1      -9.019  13.393  67.951  1.00  0.00    -0.211 SA 
HETATM    3  C   UNL     1      -8.454  12.176  66.740  1.00  0.00    -0.138 C  
HETATM    4  C   UNL     1      -9.541  11.705  65.785  1.00  0.00    -0.255 C  
HETATM    5  O   UNL     1     -12.847  12.467  64.454  1.00  0.00    -0.714 OA 
HETATM    6  CA  UNL     1     -10.605  12.489  65.432  1.00  0.00    -0.281 C  
HETATM    7  N   UNL     1     -10.755  13.738  65.972  1.00  0.00    -0.281 N  
HETATM    8  CA  UNL     1     -10.858  15.446  67.161  1.00  0.00    -0.321 C  
HETATM    9  C   UNL     1     -11.588  12.004  64.387  1.00  0.00    -0.336 C  
HETATM   10  O   UNL     1     -12.920  14.573  65.871  1.00  0.00    -0.198 OA 
HETATM   11  C   UNL     1     -11.752  14.618  66.183  1.00  0.00    -0.313 C  
HETATM   12  OXT UNL     1     -11.255  11.255  63.475  1.00  0.00    -0.344 OA 
ENDROOT
BRANCH   4  13
HETATM   13  C   UNL     1      -9.365  10.282  65.240  1.00  0.00    -0.215 C  
BRANCH  13  14
HETATM   14  S   UNL     1      -7.665   9.667  65.038  1.00  0.00    -0.125 SA 
BRANCH  14  15
HETATM   15  C   UNL     1      -7.606   8.370  66.207  1.00  0.00    -0.086 A  
HETATM   16  N   UNL     1      -8.033   8.501  67.446  1.00  0.00    -0.102 NA 
HETATM   17  S   UNL     1      -6.907   6.845  65.862  1.00  0.00    -0.057 SA 
HETATM   18  N   UNL     1      -7.780   7.378  68.207  1.00  0.00    -0.118 NA 
HETATM   19  C   UNL     1      -6.775   5.111  68.038  1.00  0.00    -0.055 C  
HETATM   20  C   UNL     1      -7.188   6.433  67.506  1.00  0.00    -0.086 A  
ENDBRANCH  14  15
ENDBRANCH  13  14
ENDBRANCH   4  13
BRANCH   8  21
HETATM   21  N   UNL     1     -11.299  15.373  68.592  1.00  0.00    -0.311 N  
HETATM   22  C   UNL     1     -10.994  16.388  69.476  1.00  0.00    -0.317 C  
HETATM   23  H   UNL     1     -11.829  14.565  68.916  1.00  0.00     0.000 HD 
HETATM   24  O   UNL     1     -10.496  17.448  69.106  1.00  0.00    -0.341 OA 
BRANCH  22  25
HETATM   25  C   UNL     1     -11.326  16.105  70.921  1.00  0.00    -0.359 C  
BRANCH  25  26
HETATM   26  N   UNL     1     -12.330  15.082  71.039  1.00  0.00    -0.304 NA 
HETATM   27  C   UNL     1     -12.177  13.739  71.164  1.00  0.00    -0.278 A  
HETATM   28  N   UNL     1     -13.361  13.202  71.354  1.00  0.00    -0.211 NA 
HETATM   29  N   UNL     1     -14.254  14.248  71.347  1.00  0.00    -0.286 NA 
HETATM   30  N   UNL     1     -13.630  15.404  71.165  1.00  0.00    -0.502 NA 
ENDBRANCH  25  26
ENDBRANCH  22  25
ENDBRANCH   8  21
TORSDOF 6
ENDMDL
MODEL       85
REMARK 921   NORMALIZED FREE ENERGY PREDICTED BY IDOCK:   -5.30 KCAL/MOL
REMARK 922        TOTAL FREE ENERGY PREDICTED BY IDOCK:   -8.14 KCAL/MOL
REMARK 923 INTER-LIGAND FREE ENERGY PREDICTED BY IDOCK:   -6.65 KCAL/MOL
REMARK 924 INTRA-LIGAND FREE ENERGY PREDICTED BY IDOCK:   -1.49 KCAL/MOL
REMARK 927      BINDING AFFINITY PREDICTED BY RF-SCORE:    0.00 PKD
ROOT
HETATM    1  C   UNL     1      -8.754   9.777  66.708  1.00  0.00    -0.131 C  
HETATM    2  S   UNL     1     -10.514   9.692  66.338  1.00  0.00    -0.040 SA 
HETATM    3  C   UNL     1     -10.493  11.217  65.368  1.00  0.00    -0.259 C  
HETATM    4  C   UNL     1      -9.871  12.401  66.095  1.00  0.00    -0.263 C  
HETATM    5  O   UNL     1      -7.756  13.377  68.897  1.00  0.00    -0.070 OA 
HETATM    6  CA  UNL     1      -8.904  12.256  67.051  1.00  0.00    -0.205 C  
HETATM    7  N   UNL     1      -8.483  11.009  67.427  1.00  0.00    -0.131 N  
HETATM    8  CA  UNL     1      -8.263   9.012  67.979  1.00  0.00    -0.110 C  
HETATM    9  C   UNL     1      -8.243  13.480  67.649  1.00  0.00    -0.178 C  
HETATM   10  O   UNL     1      -7.459  10.931  69.511  1.00  0.00    -0.137 OA 
HETATM   11  C   UNL     1      -7.889  10.439  68.492  1.00  0.00    -0.107 C  
HETATM   12  OXT UNL     1      -8.103  14.521  67.018  1.00  0.00    -0.191 OA 
ENDROOT
BRANCH   4  13
HETATM   13  C   UNL     1     -10.404  13.779  65.680  1.00  0.00    -0.311 C  
BRANCH  13  14
HETATM   14  S   UNL     1     -12.064  14.244  66.258  1.00  0.00    -0.382 SA 
BRANCH  14  15
HETATM   15  C   UNL     1     -11.833  14.349  67.986  1.00  0.00    -0.325 A  
HETATM   16  N   UNL     1     -12.070  13.344  68.804  1.00  0.00    -0.310 NA 
HETATM   17  S   UNL     1     -11.360  15.796  68.771  1.00  0.00    -0.379 SA 
HETATM   18  N   UNL     1     -11.920  13.701  70.128  1.00  0.00    -0.335 NA 
HETATM   19  C   UNL     1     -11.325  15.650  71.552  1.00  0.00    -0.454 C  
HETATM   20  C   UNL     1     -11.556  14.960  70.259  1.00  0.00    -0.286 A  
ENDBRANCH  14  15
ENDBRANCH  13  14
ENDBRANCH   4  13
BRANCH   8  21
HETATM   21  N   UNL     1      -9.294   8.318  68.819  1.00  0.00    -0.144 N  
HETATM   22  C   UNL     1      -9.376   6.941  68.839  1.00  0.00    -0.134 C  
HETATM   23  H   UNL     1      -9.941   8.870  69.381  1.00  0.00     0.000 HD 
HETATM   24  O   UNL     1      -8.527   6.229  68.307  1.00  0.00    -0.114 OA 
BRANCH  22  25
HETATM   25  C   UNL     1     -10.571   6.377  69.569  1.00  0.00    -0.253 C  
BRANCH  25  26
HETATM   26  N   UNL     1     -10.842   7.108  70.777  1.00  0.00    -0.239 NA 
HETATM   27  C   UNL     1     -12.036   7.439  71.332  1.00  0.00    -0.310 A  
HETATM   28  N   UNL     1     -11.810   8.010  72.492  1.00  0.00    -0.375 NA 
HETATM   29  N   UNL     1     -10.444   8.024  72.646  1.00  0.00    -0.314 NA 
HETATM   30  N   UNL     1      -9.843   7.464  71.605  1.00  0.00    -0.165 NA 
ENDBRANCH  25  26
ENDBRANCH  22  25
ENDBRANCH   8  21
TORSDOF 6
ENDMDL
MODEL       86
REMARK 921   NORMALIZED FREE ENERGY PREDICTED BY IDOCK:   -5.24 KCAL/MOL
REMARK 922        TOTAL FREE ENERGY PREDICTED BY IDOCK:   -8.07 KCAL/MOL
REMARK 923 INTER-LIGAND FREE ENERGY PREDICTED BY IDOCK:   -7.48 KCAL/MOL
REMARK 924 INTRA-LIGAND FREE ENERGY PREDICTED BY IDOCK:   -0.59 KCAL/MOL
REMARK 927      BINDING AFFINITY PREDICTED BY RF-SCORE:    0.00 PKD
ROOT
HETATM    1  C   UNL     1      -9.778  10.047  69.649  1.00  0.00    -0.229 C  
HETATM    2  S   UNL     1     -10.095  10.083  67.877  1.00  0.00    -0.180 SA 
HETATM    3  C   UNL     1     -10.300  11.879  67.842  1.00  0.00    -0.198 C  
HETATM    4  C   UNL     1     -11.303  12.405  68.859  1.00  0.00    -0.342 C  
HETATM    5  O   UNL     1     -13.136  11.595  71.903  1.00  0.00    -0.478 OA 
HETATM    6  CA  UNL     1     -11.555  11.771  70.044  1.00  0.00    -0.236 C  
HETATM    7  N   UNL     1     -10.931  10.591  70.345  1.00  0.00    -0.252 N  
HETATM    8  CA  UNL     1     -10.058   8.699  70.387  1.00  0.00    -0.188 C  
HETATM    9  C   UNL     1     -12.476  12.410  71.062  1.00  0.00    -0.256 C  
HETATM   10  O   UNL     1     -12.013   9.318  71.960  1.00  0.00    -0.364 OA 
HETATM   11  C   UNL     1     -11.143   9.529  71.146  1.00  0.00    -0.379 C  
HETATM   12  OXT UNL     1     -12.593  13.626  71.165  1.00  0.00    -0.350 OA 
ENDROOT
BRANCH   4  13
HETATM   13  C   UNL     1     -12.018  13.704  68.464  1.00  0.00    -0.361 C  
BRANCH  13  14
HETATM   14  S   UNL     1     -11.500  14.509  66.918  1.00  0.00    -0.369 SA 
BRANCH  14  15
HETATM   15  C   UNL     1     -10.870  16.033  67.494  1.00  0.00    -0.292 A  
HETATM   16  N   UNL     1     -10.901  16.389  68.762  1.00  0.00    -0.318 NA 
HETATM   17  S   UNL     1     -10.238  17.229  66.444  1.00  0.00    -0.317 SA 
HETATM   18  N   UNL     1     -10.448  17.678  68.954  1.00  0.00    -0.322 NA 
HETATM   19  C   UNL     1      -9.551  19.623  67.692  1.00  0.00    -0.454 C  
HETATM   20  C   UNL     1     -10.073  18.240  67.823  1.00  0.00    -0.356 A  
ENDBRANCH  14  15
ENDBRANCH  13  14
ENDBRANCH   4  13
BRANCH   8  21
HETATM   21  N   UNL     1     -10.619   7.564  69.582  1.00  0.00    -0.237 N  
HETATM   22  C   UNL     1      -9.792   6.580  69.080  1.00  0.00    -0.144 C  
HETATM   23  H   UNL     1     -11.622   7.520  69.404  1.00  0.00     0.000 HD 
HETATM   24  O   UNL     1      -8.607   6.501  69.393  1.00  0.00    -0.132 OA 
BRANCH  22  25
HETATM   25  C   UNL     1     -10.450   5.607  68.132  1.00  0.00    -0.195 C  
BRANCH  25  26
HETATM   26  N   UNL     1      -9.888   4.289  68.259  1.00  0.00    -0.088 NA 
HETATM   27  C   UNL     1      -9.238   3.540  67.334  1.00  0.00    -0.194 A  
HETATM   28  N   UNL     1      -8.800   2.448  67.917  1.00  0.00    -0.113 NA 
HETATM   29  N   UNL     1      -9.194   2.538  69.231  1.00  0.00    -0.125 NA 
HETATM   30  N   UNL     1      -9.852   3.668  69.452  1.00  0.00    -0.007 NA 
ENDBRANCH  25  26
ENDBRANCH  22  25
ENDBRANCH   8  21
TORSDOF 6
ENDMDL
MODEL       87
REMARK 921   NORMALIZED FREE ENERGY PREDICTED BY IDOCK:   -5.22 KCAL/MOL
REMARK 922        TOTAL FREE ENERGY PREDICTED BY IDOCK:   -8.04 KCAL/MOL
REMARK 923 INTER-LIGAND FREE ENERGY PREDICTED BY IDOCK:   -7.96 KCAL/MOL
REMARK 924 INTRA-LIGAND FREE ENERGY PREDICTED BY IDOCK:   -0.08 KCAL/MOL
REMARK 927      BINDING AFFINITY PREDICTED BY RF-SCORE:    0.00 PKD
ROOT
HETATM    1  C   UNL     1      -8.933  12.673  68.055  1.00  0.00    -0.200 C  
HETATM    2  S   UNL     1     -10.386  12.647  66.991  1.00  0.00    -0.233 SA 
HETATM    3  C   UNL     1     -10.611  10.861  67.162  1.00  0.00    -0.255 C  
HETATM    4  C   UNL     1      -9.361  10.050  66.851  1.00  0.00    -0.188 C  
HETATM    5  O   UNL     1      -5.742  10.221  66.457  1.00  0.00    -0.052 OA 
HETATM    6  CA  UNL     1      -8.097  10.541  67.035  1.00  0.00    -0.118 C  
HETATM    7  N   UNL     1      -7.909  11.824  67.473  1.00  0.00    -0.139 N  
HETATM    8  CA  UNL     1      -7.946  13.869  67.868  1.00  0.00    -0.160 C  
HETATM    9  C   UNL     1      -6.899   9.641  66.820  1.00  0.00    -0.084 C  
HETATM   10  O   UNL     1      -5.811  12.702  66.998  1.00  0.00    -0.319 OA 
HETATM   11  C   UNL     1      -6.939  12.757  67.433  1.00  0.00    -0.129 C  
HETATM   12  OXT UNL     1      -6.947   8.431  67.011  1.00  0.00    -0.072 OA 
ENDROOT
BRANCH   4  13
HETATM   13  C   UNL     1      -9.613   8.635  66.316  1.00  0.00    -0.252 C  
BRANCH  13  14
HETATM   14  S   UNL     1     -10.747   7.571  67.259  1.00  0.00    -0.240 SA 
BRANCH  14  15
HETATM   15  C   UNL     1     -10.038   7.607  68.855  1.00  0.00    -0.197 A  
HETATM   16  N   UNL     1      -9.060   6.805  69.224  1.00  0.00    -0.139 NA 
HETATM   17  S   UNL     1     -10.614   8.630  70.101  1.00  0.00    -0.227 SA 
HETATM   18  N   UNL     1      -8.745   6.945  70.560  1.00  0.00    -0.149 NA 
HETATM   19  C   UNL     1      -9.399   8.242  72.577  1.00  0.00    -0.350 C  
HETATM   20  C   UNL     1      -9.486   7.864  71.145  1.00  0.00    -0.158 A  
ENDBRANCH  14  15
ENDBRANCH  13  14
ENDBRANCH   4  13
BRANCH   8  21
HETATM   21  N   UNL     1      -8.250  14.866  66.789  1.00  0.00    -0.373 N  
HETATM   22  C   UNL     1      -9.044  15.964  67.046  1.00  0.00    -0.217 C  
HETATM   23  H   UNL     1      -7.865  14.730  65.854  1.00  0.00     0.000 HD 
HETATM   24  O   UNL     1      -9.403  16.257  68.184  1.00  0.00    -0.205 OA 
BRANCH  22  25
HETATM   25  C   UNL     1      -9.428  16.780  65.836  1.00  0.00    -0.150 C  
BRANCH  25  26
HETATM   26  N   UNL     1     -10.497  16.157  65.101  1.00  0.00    -0.608 NA 
HETATM   27  C   UNL     1     -10.966  14.886  65.177  1.00  0.00    -0.399 A  
HETATM   28  N   UNL     1     -12.022  14.786  64.404  1.00  0.00    -0.447 NA 
HETATM   29  N   UNL     1     -12.200  16.030  63.846  1.00  0.00    -0.803 NA 
HETATM   30  N   UNL     1     -11.276  16.880  64.275  1.00  0.00    -1.099 NA 
ENDBRANCH  25  26
ENDBRANCH  22  25
ENDBRANCH   8  21
TORSDOF 6
ENDMDL
MODEL       88
REMARK 921   NORMALIZED FREE ENERGY PREDICTED BY IDOCK:   -5.21 KCAL/MOL
REMARK 922        TOTAL FREE ENERGY PREDICTED BY IDOCK:   -8.02 KCAL/MOL
REMARK 923 INTER-LIGAND FREE ENERGY PREDICTED BY IDOCK:   -8.27 KCAL/MOL
REMARK 924 INTRA-LIGAND FREE ENERGY PREDICTED BY IDOCK:    0.24 KCAL/MOL
REMARK 927      BINDING AFFINITY PREDICTED BY RF-SCORE:    0.00 PKD
ROOT
HETATM    1  C   UNL     1     -10.176  14.183  67.029  1.00  0.00    -0.260 C  
HETATM    2  S   UNL     1      -9.745  13.345  68.564  1.00  0.00    -0.098 SA 
HETATM    3  C   UNL     1      -8.615  12.196  67.745  1.00  0.00    -0.164 C  
HETATM    4  C   UNL     1      -9.233  11.462  66.563  1.00  0.00    -0.200 C  
HETATM    5  O   UNL     1     -11.996  11.470  64.187  1.00  0.00    -0.185 OA 
HETATM    6  CA  UNL     1     -10.238  11.996  65.805  1.00  0.00    -0.242 C  
HETATM    7  N   UNL     1     -10.766  13.220  66.117  1.00  0.00    -0.277 N  
HETATM    8  CA  UNL     1     -11.542  14.940  67.000  1.00  0.00    -0.304 C  
HETATM    9  C   UNL     1     -10.725  11.264  64.572  1.00  0.00    -0.323 C  
HETATM   10  O   UNL     1     -12.887  13.599  65.247  1.00  0.00    -0.672 OA 
HETATM   11  C   UNL     1     -11.911  13.894  65.899  1.00  0.00    -0.407 C  
HETATM   12  OXT UNL     1      -9.990  10.544  63.907  1.00  0.00    -0.325 OA 
ENDROOT
BRANCH   4  13
HETATM   13  C   UNL     1      -8.648  10.073  66.275  1.00  0.00    -0.129 C  
BRANCH  13  14
HETATM   14  S   UNL     1      -7.083   9.636  67.093  1.00  0.00    -0.086 SA 
BRANCH  14  15
HETATM   15  C   UNL     1      -7.573   9.493  68.764  1.00  0.00    -0.076 A  
HETATM   16  N   UNL     1      -6.825   9.901  69.769  1.00  0.00    -0.070 NA 
HETATM   17  S   UNL     1      -9.031   8.730  69.238  1.00  0.00    -0.145 SA 
HETATM   18  N   UNL     1      -7.375   9.580  70.992  1.00  0.00    -0.319 NA 
HETATM   19  C   UNL     1      -9.364   8.473  71.991  1.00  0.00    -0.353 C  
HETATM   20  C   UNL     1      -8.529   8.959  70.865  1.00  0.00    -0.186 A  
ENDBRANCH  14  15
ENDBRANCH  13  14
ENDBRANCH   4  13
BRANCH   8  21
HETATM   21  N   UNL     1     -12.410  14.866  68.221  1.00  0.00    -0.556 N  
HETATM   22  C   UNL     1     -12.094  15.585  69.355  1.00  0.00    -0.277 C  
HETATM   23  H   UNL     1     -13.242  14.277  68.212  1.00  0.00     0.000 HD 
HETATM   24  O   UNL     1     -11.196  16.424  69.367  1.00  0.00    -0.316 OA 
BRANCH  22  25
HETATM   25  C   UNL     1     -12.935  15.275  70.570  1.00  0.00    -0.333 C  
BRANCH  25  26
HETATM   26  N   UNL     1     -12.804  13.897  70.961  1.00  0.00    -0.334 NA 
HETATM   27  C   UNL     1     -13.373  13.244  72.006  1.00  0.00    -0.489 A  
HETATM   28  N   UNL     1     -13.065  11.970  71.915  1.00  0.00    -0.435 NA 
HETATM   29  N   UNL     1     -12.293  11.849  70.784  1.00  0.00    -0.366 NA 
HETATM   30  N   UNL     1     -12.136  13.023  70.188  1.00  0.00    -0.338 NA 
ENDBRANCH  25  26
ENDBRANCH  22  25
ENDBRANCH   8  21
TORSDOF 6
ENDMDL
MODEL       89
REMARK 921   NORMALIZED FREE ENERGY PREDICTED BY IDOCK:   -5.19 KCAL/MOL
REMARK 922        TOTAL FREE ENERGY PREDICTED BY IDOCK:   -7.99 KCAL/MOL
REMARK 923 INTER-LIGAND FREE ENERGY PREDICTED BY IDOCK:   -7.46 KCAL/MOL
REMARK 924 INTRA-LIGAND FREE ENERGY PREDICTED BY IDOCK:   -0.53 KCAL/MOL
REMARK 927      BINDING AFFINITY PREDICTED BY RF-SCORE:    0.00 PKD
ROOT
HETATM    1  C   UNL     1      -9.386  11.088  68.195  1.00  0.00    -0.173 C  
HETATM    2  S   UNL     1     -10.487  10.646  66.840  1.00  0.00    -0.246 SA 
HETATM    3  C   UNL     1     -10.401   8.878  67.207  1.00  0.00    -0.280 C  
HETATM    4  C   UNL     1      -8.982   8.338  67.311  1.00  0.00    -0.149 C  
HETATM    5  O   UNL     1      -5.484   9.266  67.742  1.00  0.00    -0.037 OA 
HETATM    6  CA  UNL     1      -7.925   9.109  67.710  1.00  0.00    -0.101 C  
HETATM    7  N   UNL     1      -8.104  10.436  67.993  1.00  0.00    -0.109 N  
HETATM    8  CA  UNL     1      -8.632  12.451  68.073  1.00  0.00    -0.180 C  
HETATM    9  C   UNL     1      -6.562   8.480  67.907  1.00  0.00    -0.061 C  
HETATM   10  O   UNL     1      -6.163  11.709  67.894  1.00  0.00    -0.047 OA 
HETATM   11  C   UNL     1      -7.353  11.553  68.045  1.00  0.00    -0.091 C  
HETATM   12  OXT UNL     1      -6.426   7.312  68.252  1.00  0.00    -0.042 OA 
ENDROOT
BRANCH   4  13
HETATM   13  C   UNL     1      -8.814   6.859  66.939  1.00  0.00    -0.120 C  
BRANCH  13  14
HETATM   14  S   UNL     1     -10.264   5.778  67.122  1.00  0.00    -0.236 SA 
BRANCH  14  15
HETATM   15  C   UNL     1     -10.438   5.691  68.857  1.00  0.00    -0.240 A  
HETATM   16  N   UNL     1     -11.435   6.253  69.508  1.00  0.00    -0.411 NA 
HETATM   17  S   UNL     1      -9.276   4.939  69.867  1.00  0.00    -0.135 SA 
HETATM   18  N   UNL     1     -11.295   6.142  70.876  1.00  0.00    -0.310 NA 
HETATM   19  C   UNL     1      -9.765   5.205  72.596  1.00  0.00    -0.178 C  
HETATM   20  C   UNL     1     -10.204   5.482  71.206  1.00  0.00    -0.222 A  
ENDBRANCH  14  15
ENDBRANCH  13  14
ENDBRANCH   4  13
BRANCH   8  21
HETATM   21  N   UNL     1      -8.835  13.254  66.823  1.00  0.00    -0.391 N  
HETATM   22  C   UNL     1     -10.003  13.957  66.619  1.00  0.00    -0.279 C  
HETATM   23  H   UNL     1      -8.100  13.279  66.116  1.00  0.00     0.000 HD 
HETATM   24  O   UNL     1     -10.850  14.086  67.500  1.00  0.00    -0.265 OA 
BRANCH  22  25
HETATM   25  C   UNL     1     -10.160  14.563  65.245  1.00  0.00    -0.357 C  
BRANCH  25  26
HETATM   26  N   UNL     1     -10.357  15.986  65.318  1.00  0.00    -0.533 NA 
HETATM   27  C   UNL     1      -9.668  16.913  66.030  1.00  0.00    -0.233 A  
HETATM   28  N   UNL     1     -10.120  18.104  65.709  1.00  0.00    -0.566 NA 
HETATM   29  N   UNL     1     -11.108  17.892  64.777  1.00  0.00    -0.488 NA 
HETATM   30  N   UNL     1     -11.253  16.599  64.523  1.00  0.00    -0.982 NA 
ENDBRANCH  25  26
ENDBRANCH  22  25
ENDBRANCH   8  21
TORSDOF 6
ENDMDL
MODEL       90
REMARK 921   NORMALIZED FREE ENERGY PREDICTED BY IDOCK:   -5.18 KCAL/MOL
REMARK 922        TOTAL FREE ENERGY PREDICTED BY IDOCK:   -7.98 KCAL/MOL
REMARK 923 INTER-LIGAND FREE ENERGY PREDICTED BY IDOCK:   -7.25 KCAL/MOL
REMARK 924 INTRA-LIGAND FREE ENERGY PREDICTED BY IDOCK:   -0.73 KCAL/MOL
REMARK 927      BINDING AFFINITY PREDICTED BY RF-SCORE:    0.00 PKD
ROOT
HETATM    1  C   UNL     1      -8.101  10.646  67.122  1.00  0.00    -0.121 C  
HETATM    2  S   UNL     1      -9.427  10.402  68.316  1.00  0.00    -0.153 SA 
HETATM    3  C   UNL     1      -8.846   8.755  68.784  1.00  0.00    -0.134 C  
HETATM    4  C   UNL     1      -8.632   7.818  67.604  1.00  0.00    -0.123 C  
HETATM    5  O   UNL     1      -8.206   7.659  63.988  1.00  0.00    -0.094 OA 
HETATM    6  CA  UNL     1      -8.296   8.266  66.356  1.00  0.00    -0.117 C  
HETATM    7  N   UNL     1      -8.182   9.607  66.109  1.00  0.00    -0.115 N  
HETATM    8  CA  UNL     1      -8.363  11.679  65.980  1.00  0.00     0.110 C  
HETATM    9  C   UNL     1      -7.981   7.274  65.256  1.00  0.00    -0.127 C  
HETATM   10  O   UNL     1      -8.372  10.190  63.868  1.00  0.00    -0.157 OA 
HETATM   11  C   UNL     1      -8.241  10.432  65.047  1.00  0.00    -0.152 C  
HETATM   12  OXT UNL     1      -7.493   6.174  65.489  1.00  0.00    -0.077 OA 
ENDROOT
BRANCH   4  13
HETATM   13  C   UNL     1      -8.817   6.326  67.909  1.00  0.00    -0.112 C  
BRANCH  13  14
HETATM   14  S   UNL     1     -10.519   5.687  67.968  1.00  0.00    -0.175 SA 
BRANCH  14  15
HETATM   15  C   UNL     1     -10.893   5.803  69.670  1.00  0.00    -0.348 A  
HETATM   16  N   UNL     1     -11.900   6.511  70.137  1.00  0.00    -0.374 NA 
HETATM   17  S   UNL     1      -9.926   5.075  70.882  1.00  0.00    -0.224 SA 
HETATM   18  N   UNL     1     -11.925   6.539  71.516  1.00  0.00    -0.337 NA 
HETATM   19  C   UNL     1     -10.691   5.673  73.492  1.00  0.00    -0.311 C  
HETATM   20  C   UNL     1     -10.945   5.833  72.039  1.00  0.00    -0.260 A  
ENDBRANCH  14  15
ENDBRANCH  13  14
ENDBRANCH   4  13
BRANCH   8  21
HETATM   21  N   UNL     1      -9.707  12.343  65.932  1.00  0.00    -0.303 N  
HETATM   22  C   UNL     1      -9.896  13.594  66.481  1.00  0.00    -0.293 C  
HETATM   23  H   UNL     1     -10.490  11.863  65.488  1.00  0.00     0.000 HD 
HETATM   24  O   UNL     1      -8.958  14.277  66.886  1.00  0.00    -0.231 OA 
BRANCH  22  25
HETATM   25  C   UNL     1     -11.329  14.064  66.537  1.00  0.00    -0.336 C  
BRANCH  25  26
HETATM   26  N   UNL     1     -11.632  14.957  65.450  1.00  0.00    -0.317 NA 
HETATM   27  C   UNL     1     -11.001  16.099  65.076  1.00  0.00    -0.344 A  
HETATM   28  N   UNL     1     -11.549  16.529  63.962  1.00  0.00    -1.124 NA 
HETATM   29  N   UNL     1     -12.535  15.623  63.653  1.00  0.00    -0.290 NA 
HETATM   30  N   UNL     1     -12.586  14.651  64.553  1.00  0.00    -0.613 NA 
ENDBRANCH  25  26
ENDBRANCH  22  25
ENDBRANCH   8  21
TORSDOF 6
ENDMDL
MODEL       91
REMARK 921   NORMALIZED FREE ENERGY PREDICTED BY IDOCK:   -5.16 KCAL/MOL
REMARK 922        TOTAL FREE ENERGY PREDICTED BY IDOCK:   -7.95 KCAL/MOL
REMARK 923 INTER-LIGAND FREE ENERGY PREDICTED BY IDOCK:   -6.98 KCAL/MOL
REMARK 924 INTRA-LIGAND FREE ENERGY PREDICTED BY IDOCK:   -0.97 KCAL/MOL
REMARK 927      BINDING AFFINITY PREDICTED BY RF-SCORE:    0.00 PKD
ROOT
HETATM    1  C   UNL     1      -9.029   9.304  66.874  1.00  0.00    -0.130 C  
HETATM    2  S   UNL     1     -10.718   9.899  67.065  1.00  0.00    -0.111 SA 
HETATM    3  C   UNL     1     -10.370  11.472  66.245  1.00  0.00    -0.239 C  
HETATM    4  C   UNL     1      -9.175  12.217  66.822  1.00  0.00    -0.210 C  
HETATM    5  O   UNL     1      -6.192  11.882  68.888  1.00  0.00    -0.055 OA 
HETATM    6  CA  UNL     1      -8.122  11.578  67.417  1.00  0.00    -0.146 C  
HETATM    7  N   UNL     1      -8.128  10.217  67.557  1.00  0.00    -0.113 N  
HETATM    8  CA  UNL     1      -8.554   8.201  67.873  1.00  0.00    -0.132 C  
HETATM    9  C   UNL     1      -6.912  12.370  67.863  1.00  0.00    -0.106 C  
HETATM   10  O   UNL     1      -6.704   9.416  69.209  1.00  0.00    -0.048 OA 
HETATM   11  C   UNL     1      -7.540   9.294  68.342  1.00  0.00    -0.086 C  
HETATM   12  OXT UNL     1      -6.555  13.395  67.293  1.00  0.00    -0.234 OA 
ENDROOT
BRANCH   4  13
HETATM   13  C   UNL     1      -9.228  13.745  66.690  1.00  0.00    -0.223 C  
BRANCH  13  14
HETATM   14  S   UNL     1     -10.680  14.465  65.863  1.00  0.00    -0.319 SA 
BRANCH  14  15
HETATM   15  C   UNL     1     -10.514  16.161  66.247  1.00  0.00    -0.315 A  
HETATM   16  N   UNL     1     -10.165  17.068  65.358  1.00  0.00    -0.617 NA 
HETATM   17  S   UNL     1     -10.707  16.772  67.835  1.00  0.00    -0.321 SA 
HETATM   18  N   UNL     1      -9.994  18.314  65.924  1.00  0.00    -0.556 NA 
HETATM   19  C   UNL     1     -10.131  19.483  68.112  1.00  0.00    -0.537 C  
HETATM   20  C   UNL     1     -10.238  18.305  67.217  1.00  0.00    -0.373 A  
ENDBRANCH  14  15
ENDBRANCH  13  14
ENDBRANCH   4  13
BRANCH   8  21
HETATM   21  N   UNL     1      -9.511   7.766  68.942  1.00  0.00    -0.150 N  
HETATM   22  C   UNL     1     -10.064   6.502  68.921  1.00  0.00    -0.164 C  
HETATM   23  H   UNL     1      -9.757   8.411  69.692  1.00  0.00     0.000 HD 
HETATM   24  O   UNL     1      -9.686   5.638  68.133  1.00  0.00    -0.117 OA 
BRANCH  22  25
HETATM   25  C   UNL     1     -11.153   6.257  69.937  1.00  0.00    -0.401 C  
BRANCH  25  26
HETATM   26  N   UNL     1     -10.912   6.990  71.151  1.00  0.00    -0.242 NA 
HETATM   27  C   UNL     1     -10.231   6.613  72.262  1.00  0.00    -0.187 A  
HETATM   28  N   UNL     1     -10.168   7.639  73.079  1.00  0.00    -0.291 NA 
HETATM   29  N   UNL     1     -10.827   8.666  72.446  1.00  0.00    -0.311 NA 
HETATM   30  N   UNL     1     -11.278   8.281  71.259  1.00  0.00    -0.251 NA 
ENDBRANCH  25  26
ENDBRANCH  22  25
ENDBRANCH   8  21
TORSDOF 6
ENDMDL
MODEL       92
REMARK 921   NORMALIZED FREE ENERGY PREDICTED BY IDOCK:   -5.13 KCAL/MOL
REMARK 922        TOTAL FREE ENERGY PREDICTED BY IDOCK:   -7.91 KCAL/MOL
REMARK 923 INTER-LIGAND FREE ENERGY PREDICTED BY IDOCK:   -7.15 KCAL/MOL
REMARK 924 INTRA-LIGAND FREE ENERGY PREDICTED BY IDOCK:   -0.76 KCAL/MOL
REMARK 927      BINDING AFFINITY PREDICTED BY RF-SCORE:    0.00 PKD
ROOT
HETATM    1  C   UNL     1      -8.702  14.611  66.560  1.00  0.00    -0.080 C  
HETATM    2  S   UNL     1      -8.752  14.461  68.353  1.00  0.00    -0.182 SA 
HETATM    3  C   UNL     1      -9.533  12.831  68.301  1.00  0.00    -0.203 C  
HETATM    4  C   UNL     1     -10.791  12.778  67.445  1.00  0.00    -0.265 C  
HETATM    5  O   UNL     1     -12.674  14.491  64.837  1.00  0.00    -0.571 OA 
HETATM    6  CA  UNL     1     -10.988  13.599  66.369  1.00  0.00    -0.297 C  
HETATM    7  N   UNL     1     -10.059  14.549  66.044  1.00  0.00    -0.303 N  
HETATM    8  CA  UNL     1      -8.624  16.059  65.977  1.00  0.00    -0.157 C  
HETATM    9  C   UNL     1     -12.207  13.413  65.490  1.00  0.00    -0.455 C  
HETATM   10  O   UNL     1     -10.880  16.286  64.737  1.00  0.00    -0.671 OA 
HETATM   11  C   UNL     1     -10.020  15.713  65.367  1.00  0.00    -0.276 C  
HETATM   12  OXT UNL     1     -12.733  12.318  65.327  1.00  0.00    -0.543 OA 
ENDROOT
BRANCH   4  13
HETATM   13  C   UNL     1     -11.831  11.733  67.871  1.00  0.00    -0.219 C  
BRANCH  13  14
HETATM   14  S   UNL     1     -11.265  10.374  68.940  1.00  0.00    -0.214 SA 
BRANCH  14  15
HETATM   15  C   UNL     1     -10.025   9.631  67.959  1.00  0.00    -0.160 A  
HETATM   16  N   UNL     1      -8.852   9.271  68.437  1.00  0.00    -0.129 NA 
HETATM   17  S   UNL     1     -10.201   9.388  66.273  1.00  0.00    -0.148 SA 
HETATM   18  N   UNL     1      -8.005   8.811  67.450  1.00  0.00    -0.098 NA 
HETATM   19  C   UNL     1      -7.929   8.401  65.000  1.00  0.00    -0.139 C  
HETATM   20  C   UNL     1      -8.579   8.823  66.265  1.00  0.00    -0.131 A  
ENDBRANCH  14  15
ENDBRANCH  13  14
ENDBRANCH   4  13
BRANCH   8  21
HETATM   21  N   UNL     1      -8.653  17.205  66.943  1.00  0.00    -0.221 N  
HETATM   22  C   UNL     1      -7.509  17.595  67.609  1.00  0.00    -0.198 C  
HETATM   23  H   UNL     1      -9.528  17.701  67.111  1.00  0.00     0.000 HD 
HETATM   24  O   UNL     1      -6.404  17.136  67.331  1.00  0.00    -0.130 OA 
BRANCH  22  25
HETATM   25  C   UNL     1      -7.713  18.629  68.690  1.00  0.00    -0.317 C  
BRANCH  25  26
HETATM   26  N   UNL     1      -8.890  19.419  68.446  1.00  0.00    -0.344 NA 
HETATM   27  C   UNL     1     -10.009  19.550  69.202  1.00  0.00    -0.355 A  
HETATM   28  N   UNL     1     -10.778  20.461  68.651  1.00  0.00     0.156 NA 
HETATM   29  N   UNL     1     -10.107  20.894  67.533  1.00  0.00    -0.154 NA 
HETATM   30  N   UNL     1      -8.944  20.269  67.404  1.00  0.00    -0.348 NA 
ENDBRANCH  25  26
ENDBRANCH  22  25
ENDBRANCH   8  21
TORSDOF 6
ENDMDL
MODEL       93
REMARK 921   NORMALIZED FREE ENERGY PREDICTED BY IDOCK:   -5.10 KCAL/MOL
REMARK 922        TOTAL FREE ENERGY PREDICTED BY IDOCK:   -7.87 KCAL/MOL
REMARK 923 INTER-LIGAND FREE ENERGY PREDICTED BY IDOCK:   -6.80 KCAL/MOL
REMARK 924 INTRA-LIGAND FREE ENERGY PREDICTED BY IDOCK:   -1.07 KCAL/MOL
REMARK 927      BINDING AFFINITY PREDICTED BY RF-SCORE:    0.00 PKD
ROOT
HETATM    1  C   UNL     1      -9.435  10.490  69.049  1.00  0.00    -0.201 C  
HETATM    2  S   UNL     1      -8.964  10.753  67.332  1.00  0.00    -0.139 SA 
HETATM    3  C   UNL     1      -8.656  12.518  67.575  1.00  0.00    -0.183 C  
HETATM    4  C   UNL     1      -9.815  13.262  68.223  1.00  0.00    -0.231 C  
HETATM    5  O   UNL     1     -12.892  12.862  70.136  1.00  0.00     0.120 OA 
HETATM    6  CA  UNL     1     -10.695  12.658  69.079  1.00  0.00    -0.094 C  
HETATM    7  N   UNL     1     -10.587  11.322  69.354  1.00  0.00    -0.156 N  
HETATM    8  CA  UNL     1     -10.340   9.252  69.349  1.00  0.00    -0.215 C  
HETATM    9  C   UNL     1     -11.753  13.482  69.781  1.00  0.00    -0.295 C  
HETATM   10  O   UNL     1     -12.534  10.348  70.163  1.00  0.00    -0.264 OA 
HETATM   11  C   UNL     1     -11.383  10.328  69.793  1.00  0.00    -0.273 C  
HETATM   12  OXT UNL     1     -11.579  14.661  70.068  1.00  0.00    -0.260 OA 
ENDROOT
BRANCH   4  13
HETATM   13  C   UNL     1      -9.933  14.746  67.851  1.00  0.00    -0.213 C  
BRANCH  13  14
HETATM   14  S   UNL     1      -9.649  15.200  66.114  1.00  0.00    -0.328 SA 
BRANCH  14  15
HETATM   15  C   UNL     1     -10.924  14.330  65.296  1.00  0.00    -0.343 A  
HETATM   16  N   UNL     1     -12.202  14.560  65.512  1.00  0.00    -0.324 NA 
HETATM   17  S   UNL     1     -10.616  13.044  64.208  1.00  0.00    -0.381 SA 
HETATM   18  N   UNL     1     -13.014  13.674  64.835  1.00  0.00    -0.719 NA 
HETATM   19  C   UNL     1     -12.894  11.736  63.284  1.00  0.00    -0.224 C  
HETATM   20  C   UNL     1     -12.316  12.819  64.116  1.00  0.00    -0.407 A  
ENDBRANCH  14  15
ENDBRANCH  13  14
ENDBRANCH   4  13
BRANCH   8  21
HETATM   21  N   UNL     1     -10.790   8.417  68.188  1.00  0.00    -0.456 N  
HETATM   22  C   UNL     1     -10.716   7.040  68.239  1.00  0.00    -0.182 C  
HETATM   23  H   UNL     1     -11.154   8.872  67.351  1.00  0.00     0.000 HD 
HETATM   24  O   UNL     1     -10.433   6.440  69.274  1.00  0.00    -0.191 OA 
BRANCH  22  25
HETATM   25  C   UNL     1     -11.017   6.329  66.942  1.00  0.00    -0.329 C  
BRANCH  25  26
HETATM   26  N   UNL     1      -9.814   5.860  66.309  1.00  0.00    -0.119 NA 
HETATM   27  C   UNL     1      -8.897   6.553  65.586  1.00  0.00    -0.042 A  
HETATM   28  N   UNL     1      -7.903   5.746  65.295  1.00  0.00    -0.100 NA 
HETATM   29  N   UNL     1      -8.224   4.534  65.858  1.00  0.00    -0.109 NA 
HETATM   30  N   UNL     1      -9.388   4.597  66.490  1.00  0.00    -0.138 NA 
ENDBRANCH  25  26
ENDBRANCH  22  25
ENDBRANCH   8  21
TORSDOF 6
ENDMDL
MODEL       94
REMARK 921   NORMALIZED FREE ENERGY PREDICTED BY IDOCK:   -5.06 KCAL/MOL
REMARK 922        TOTAL FREE ENERGY PREDICTED BY IDOCK:   -7.82 KCAL/MOL
REMARK 923 INTER-LIGAND FREE ENERGY PREDICTED BY IDOCK:   -7.08 KCAL/MOL
REMARK 924 INTRA-LIGAND FREE ENERGY PREDICTED BY IDOCK:   -0.74 KCAL/MOL
REMARK 927      BINDING AFFINITY PREDICTED BY RF-SCORE:    0.00 PKD
ROOT
HETATM    1  C   UNL     1      -9.334   9.217  67.231  1.00  0.00    -0.135 C  
HETATM    2  S   UNL     1     -10.006   9.703  65.632  1.00  0.00    -0.145 SA 
HETATM    3  C   UNL     1     -10.282  11.413  66.149  1.00  0.00    -0.239 C  
HETATM    4  C   UNL     1     -11.077  11.547  67.440  1.00  0.00    -0.339 C  
HETATM    5  O   UNL     1     -12.220   9.772  70.411  1.00  0.00    -0.184 OA 
HETATM    6  CA  UNL     1     -11.058  10.594  68.421  1.00  0.00    -0.272 C  
HETATM    7  N   UNL     1     -10.342   9.440  68.252  1.00  0.00    -0.204 N  
HETATM    8  CA  UNL     1      -9.407   7.699  67.592  1.00  0.00    -0.142 C  
HETATM    9  C   UNL     1     -11.777  10.843  69.731  1.00  0.00    -0.338 C  
HETATM   10  O   UNL     1     -11.023   7.681  69.609  1.00  0.00    -0.226 OA 
HETATM   11  C   UNL     1     -10.345   8.186  68.743  1.00  0.00    -0.202 C  
HETATM   12  OXT UNL     1     -11.916  11.968  70.195  1.00  0.00    -0.333 OA 
ENDROOT
BRANCH   4  13
HETATM   13  C   UNL     1     -11.906  12.831  67.571  1.00  0.00    -0.343 C  
BRANCH  13  14
HETATM   14  S   UNL     1     -11.607  14.149  66.354  1.00  0.00    -0.384 SA 
BRANCH  14  15
HETATM   15  C   UNL     1     -11.075  15.468  67.369  1.00  0.00    -0.285 A  
HETATM   16  N   UNL     1     -11.312  15.518  68.664  1.00  0.00    -0.324 NA 
HETATM   17  S   UNL     1     -10.275  16.849  66.748  1.00  0.00    -0.302 SA 
HETATM   18  N   UNL     1     -10.892  16.705  69.226  1.00  0.00    -0.327 NA 
HETATM   19  C   UNL     1      -9.794  18.851  68.623  1.00  0.00    -0.463 C  
HETATM   20  C   UNL     1     -10.335  17.500  68.337  1.00  0.00    -0.378 A  
ENDBRANCH  14  15
ENDBRANCH  13  14
ENDBRANCH   4  13
BRANCH   8  21
HETATM   21  N   UNL     1     -10.075   6.778  66.615  1.00  0.00    -0.353 N  
HETATM   22  C   UNL     1     -10.134   5.420  66.853  1.00  0.00    -0.209 C  
HETATM   23  H   UNL     1     -10.490   7.160  65.766  1.00  0.00     0.000 HD 
HETATM   24  O   UNL     1      -9.790   4.930  67.926  1.00  0.00    -0.151 OA 
BRANCH  22  25
HETATM   25  C   UNL     1     -10.659   4.588  65.709  1.00  0.00    -0.187 C  
BRANCH  25  26
HETATM   26  N   UNL     1      -9.598   3.881  65.043  1.00  0.00    -0.170 NA 
HETATM   27  C   UNL     1      -9.072   2.661  65.319  1.00  0.00    -0.138 A  
HETATM   28  N   UNL     1      -8.198   2.365  64.385  1.00  0.00    -0.082 NA 
HETATM   29  N   UNL     1      -8.195   3.433  63.519  1.00  0.00    -0.088 NA 
HETATM   30  N   UNL     1      -9.058   4.362  63.908  1.00  0.00    -0.143 NA 
ENDBRANCH  25  26
ENDBRANCH  22  25
ENDBRANCH   8  21
TORSDOF 6
ENDMDL
MODEL       95
REMARK 921   NORMALIZED FREE ENERGY PREDICTED BY IDOCK:   -5.03 KCAL/MOL
REMARK 922        TOTAL FREE ENERGY PREDICTED BY IDOCK:   -7.78 KCAL/MOL
REMARK 923 INTER-LIGAND FREE ENERGY PREDICTED BY IDOCK:   -6.42 KCAL/MOL
REMARK 924 INTRA-LIGAND FREE ENERGY PREDICTED BY IDOCK:   -1.36 KCAL/MOL
REMARK 927      BINDING AFFINITY PREDICTED BY RF-SCORE:    0.00 PKD
ROOT
HETATM    1  C   UNL     1      -8.279  11.478  68.188  1.00  0.00    -0.149 C  
HETATM    2  S   UNL     1      -9.924  11.861  67.563  1.00  0.00    -0.189 SA 
HETATM    3  C   UNL     1     -10.017  10.349  66.576  1.00  0.00    -0.217 C  
HETATM    4  C   UNL     1      -8.825  10.142  65.653  1.00  0.00    -0.185 C  
HETATM    5  O   UNL     1      -5.389  11.157  64.978  1.00  0.00    -0.211 OA 
HETATM    6  CA  UNL     1      -7.577  10.627  65.936  1.00  0.00    -0.138 C  
HETATM    7  N   UNL     1      -7.363  11.370  67.066  1.00  0.00    -0.137 N  
HETATM    8  CA  UNL     1      -7.416  12.684  68.682  1.00  0.00    -0.094 C  
HETATM    9  C   UNL     1      -6.410  10.284  65.035  1.00  0.00    -0.123 C  
HETATM   10  O   UNL     1      -5.464  12.706  66.989  1.00  0.00    -0.340 OA 
HETATM   11  C   UNL     1      -6.473  12.280  67.504  1.00  0.00    -0.137 C  
HETATM   12  OXT UNL     1      -6.355   9.231  64.409  1.00  0.00    -0.074 OA 
ENDROOT
BRANCH   4  13
HETATM   13  C   UNL     1      -9.115   9.347  64.373  1.00  0.00    -0.127 C  
BRANCH  13  14
HETATM   14  S   UNL     1      -9.522  10.291  62.873  1.00  0.00    -0.250 SA 
BRANCH  14  15
HETATM   15  C   UNL     1     -10.323  11.696  63.533  1.00  0.00    -0.441 A  
HETATM   16  N   UNL     1      -9.675  12.772  63.929  1.00  0.00    -0.076 NA 
HETATM   17  S   UNL     1     -12.013  11.757  63.800  1.00  0.00    -0.281 SA 
HETATM   18  N   UNL     1     -10.511  13.700  64.514  1.00  0.00    -0.435 NA 
HETATM   19  C   UNL     1     -12.902  14.062  65.087  1.00  0.00    -0.368 C  
HETATM   20  C   UNL     1     -11.764  13.297  64.520  1.00  0.00    -0.378 A  
ENDBRANCH  14  15
ENDBRANCH  13  14
ENDBRANCH   4  13
BRANCH   8  21
HETATM   21  N   UNL     1      -7.996  14.060  68.549  1.00  0.00    -0.140 N  
HETATM   22  C   UNL     1      -7.389  15.143  69.152  1.00  0.00    -0.167 C  
HETATM   23  H   UNL     1      -8.848  14.198  68.006  1.00  0.00     0.000 HD 
HETATM   24  O   UNL     1      -6.284  15.058  69.684  1.00  0.00    -0.115 OA 
BRANCH  22  25
HETATM   25  C   UNL     1      -8.172  16.432  69.102  1.00  0.00    -0.189 C  
BRANCH  25  26
HETATM   26  N   UNL     1      -9.590  16.186  69.112  1.00  0.00    -0.241 NA 
HETATM   27  C   UNL     1     -10.539  16.594  68.233  1.00  0.00    -0.338 A  
HETATM   28  N   UNL     1     -11.683  16.045  68.571  1.00  0.00    -0.333 NA 
HETATM   29  N   UNL     1     -11.419  15.282  69.684  1.00  0.00    -0.282 NA 
HETATM   30  N   UNL     1     -10.137  15.354  70.017  1.00  0.00    -0.265 NA 
ENDBRANCH  25  26
ENDBRANCH  22  25
ENDBRANCH   8  21
TORSDOF 6
ENDMDL
MODEL       96
REMARK 921   NORMALIZED FREE ENERGY PREDICTED BY IDOCK:   -5.03 KCAL/MOL
REMARK 922        TOTAL FREE ENERGY PREDICTED BY IDOCK:   -7.78 KCAL/MOL
REMARK 923 INTER-LIGAND FREE ENERGY PREDICTED BY IDOCK:   -6.92 KCAL/MOL
REMARK 924 INTRA-LIGAND FREE ENERGY PREDICTED BY IDOCK:   -0.86 KCAL/MOL
REMARK 927      BINDING AFFINITY PREDICTED BY RF-SCORE:    0.00 PKD
ROOT
HETATM    1  C   UNL     1     -11.010  11.541  68.469  1.00  0.00    -0.223 C  
HETATM    2  S   UNL     1      -9.445  10.701  68.763  1.00  0.00    -0.188 SA 
HETATM    3  C   UNL     1     -10.244   9.180  69.325  1.00  0.00    -0.210 C  
HETATM    4  C   UNL     1     -11.272   9.394  70.426  1.00  0.00    -0.309 C  
HETATM    5  O   UNL     1     -13.346  11.881  72.099  1.00  0.00    -0.503 OA 
HETATM    6  CA  UNL     1     -11.979  10.558  70.562  1.00  0.00    -0.342 C  
HETATM    7  N   UNL     1     -11.749  11.610  69.717  1.00  0.00    -0.331 N  
HETATM    8  CA  UNL     1     -10.984  13.103  68.482  1.00  0.00    -0.263 C  
HETATM    9  C   UNL     1     -13.071  10.662  71.605  1.00  0.00    -0.450 C  
HETATM   10  O   UNL     1     -12.438  13.670  70.541  1.00  0.00    -0.338 OA 
HETATM   11  C   UNL     1     -11.922  12.945  69.721  1.00  0.00    -0.296 C  
HETATM   12  OXT UNL     1     -13.725   9.690  71.966  1.00  0.00    -0.379 OA 
ENDROOT
BRANCH   4  13
HETATM   13  C   UNL     1     -11.466   8.211  71.383  1.00  0.00    -0.263 C  
BRANCH  13  14
HETATM   14  S   UNL     1     -11.937   6.613  70.654  1.00  0.00    -0.241 SA 
BRANCH  14  15
HETATM   15  C   UNL     1     -11.241   5.477  71.783  1.00  0.00    -0.094 A  
HETATM   16  N   UNL     1     -11.619   5.393  73.042  1.00  0.00    -0.267 NA 
HETATM   17  S   UNL     1      -9.946   4.436  71.369  1.00  0.00    -0.148 SA 
HETATM   18  N   UNL     1     -10.849   4.502  73.761  1.00  0.00    -0.271 NA 
HETATM   19  C   UNL     1      -8.937   2.938  73.489  1.00  0.00    -0.084 C  
HETATM   20  C   UNL     1      -9.929   3.932  73.011  1.00  0.00    -0.137 A  
ENDBRANCH  14  15
ENDBRANCH  13  14
ENDBRANCH   4  13
BRANCH   8  21
HETATM   21  N   UNL     1      -9.681  13.779  68.792  1.00  0.00    -0.400 N  
HETATM   22  C   UNL     1      -8.851  14.209  67.777  1.00  0.00    -0.185 C  
HETATM   23  H   UNL     1      -9.406  13.922  69.763  1.00  0.00     0.000 HD 
HETATM   24  O   UNL     1      -9.202  14.202  66.600  1.00  0.00    -0.265 OA 
BRANCH  22  25
HETATM   25  C   UNL     1      -7.492  14.695  68.219  1.00  0.00    -0.117 C  
BRANCH  25  26
HETATM   26  N   UNL     1      -6.564  13.605  68.358  1.00  0.00    -0.085 NA 
HETATM   27  C   UNL     1      -6.111  13.002  69.486  1.00  0.00    -0.115 A  
HETATM   28  N   UNL     1      -5.363  11.980  69.139  1.00  0.00    -0.055 NA 
HETATM   29  N   UNL     1      -5.365  11.962  67.764  1.00  0.00    -0.055 NA 
HETATM   30  N   UNL     1      -6.107  12.948  67.277  1.00  0.00    -0.308 NA 
ENDBRANCH  25  26
ENDBRANCH  22  25
ENDBRANCH   8  21
TORSDOF 6
ENDMDL
MODEL       97
REMARK 921   NORMALIZED FREE ENERGY PREDICTED BY IDOCK:   -5.02 KCAL/MOL
REMARK 922        TOTAL FREE ENERGY PREDICTED BY IDOCK:   -7.77 KCAL/MOL
REMARK 923 INTER-LIGAND FREE ENERGY PREDICTED BY IDOCK:   -6.97 KCAL/MOL
REMARK 924 INTRA-LIGAND FREE ENERGY PREDICTED BY IDOCK:   -0.80 KCAL/MOL
REMARK 927      BINDING AFFINITY PREDICTED BY RF-SCORE:    0.00 PKD
ROOT
HETATM    1  C   UNL     1     -10.934   6.688  71.944  1.00  0.00    -0.244 C  
HETATM    2  S   UNL     1     -11.264   6.618  70.175  1.00  0.00    -0.383 SA 
HETATM    3  C   UNL     1     -10.315   5.096  69.950  1.00  0.00    -0.277 C  
HETATM    4  C   UNL     1      -8.902   5.162  70.512  1.00  0.00    -0.142 C  
HETATM    5  O   UNL     1      -6.693   6.985  72.767  1.00  0.00    -0.067 OA 
HETATM    6  CA  UNL     1      -8.565   5.957  71.574  1.00  0.00    -0.132 C  
HETATM    7  N   UNL     1      -9.499   6.771  72.153  1.00  0.00    -0.141 N  
HETATM    8  CA  UNL     1     -11.043   8.089  72.626  1.00  0.00    -0.387 C  
HETATM    9  C   UNL     1      -7.170   5.886  72.158  1.00  0.00    -0.089 C  
HETATM   10  O   UNL     1      -8.609   8.540  73.368  1.00  0.00    -0.350 OA 
HETATM   11  C   UNL     1      -9.517   7.893  72.898  1.00  0.00    -0.257 C  
HETATM   12  OXT UNL     1      -6.502   4.859  72.131  1.00  0.00    -0.032 OA 
ENDROOT
BRANCH   4  13
HETATM   13  C   UNL     1      -7.872   4.272  69.805  1.00  0.00    -0.053 C  
BRANCH  13  14
HETATM   14  S   UNL     1      -8.067   4.023  68.014  1.00  0.00    -0.089 SA 
BRANCH  14  15
HETATM   15  C   UNL     1      -8.029   5.663  67.413  1.00  0.00    -0.102 A  
HETATM   16  N   UNL     1      -7.067   6.513  67.707  1.00  0.00    -0.085 NA 
HETATM   17  S   UNL     1      -9.286   6.328  66.458  1.00  0.00    -0.154 SA 
HETATM   18  N   UNL     1      -7.315   7.775  67.207  1.00  0.00    -0.090 NA 
HETATM   19  C   UNL     1      -8.998   9.038  65.886  1.00  0.00    -0.233 C  
HETATM   20  C   UNL     1      -8.446   7.824  66.535  1.00  0.00    -0.132 A  
ENDBRANCH  14  15
ENDBRANCH  13  14
ENDBRANCH   4  13
BRANCH   8  21
HETATM   21  N   UNL     1     -11.355   9.269  71.755  1.00  0.00    -0.385 N  
HETATM   22  C   UNL     1     -12.640   9.764  71.671  1.00  0.00    -0.416 C  
HETATM   23  H   UNL     1     -10.609   9.710  71.217  1.00  0.00     0.000 HD 
HETATM   24  O   UNL     1     -13.540   9.371  72.410  1.00  0.00    -0.457 OA 
BRANCH  22  25
HETATM   25  C   UNL     1     -12.855  10.824  70.619  1.00  0.00    -0.293 C  
BRANCH  25  26
HETATM   26  N   UNL     1     -12.809  12.145  71.186  1.00  0.00    -0.287 NA 
HETATM   27  C   UNL     1     -12.225  13.269  70.700  1.00  0.00    -0.338 A  
HETATM   28  N   UNL     1     -12.527  14.271  71.493  1.00  0.00    -0.349 NA 
HETATM   29  N   UNL     1     -13.317  13.740  72.486  1.00  0.00    -0.537 NA 
HETATM   30  N   UNL     1     -13.503  12.440  72.300  1.00  0.00    -0.471 NA 
ENDBRANCH  25  26
ENDBRANCH  22  25
ENDBRANCH   8  21
TORSDOF 6
ENDMDL
MODEL       98
REMARK 921   NORMALIZED FREE ENERGY PREDICTED BY IDOCK:   -5.00 KCAL/MOL
REMARK 922        TOTAL FREE ENERGY PREDICTED BY IDOCK:   -7.74 KCAL/MOL
REMARK 923 INTER-LIGAND FREE ENERGY PREDICTED BY IDOCK:   -6.67 KCAL/MOL
REMARK 924 INTRA-LIGAND FREE ENERGY PREDICTED BY IDOCK:   -1.07 KCAL/MOL
REMARK 927      BINDING AFFINITY PREDICTED BY RF-SCORE:    0.00 PKD
ROOT
HETATM    1  C   UNL     1      -9.619   8.599  72.058  1.00  0.00    -0.314 C  
HETATM    2  S   UNL     1      -8.712   8.045  70.605  1.00  0.00    -0.133 SA 
HETATM    3  C   UNL     1      -8.701   9.689  69.853  1.00  0.00    -0.219 C  
HETATM    4  C   UNL     1     -10.078  10.331  69.757  1.00  0.00    -0.244 C  
HETATM    5  O   UNL     1     -13.501  10.200  71.002  1.00  0.00    -0.351 OA 
HETATM    6  CA  UNL     1     -11.086  10.054  70.639  1.00  0.00    -0.335 C  
HETATM    7  N   UNL     1     -10.901   9.136  71.637  1.00  0.00    -0.360 N  
HETATM    8  CA  UNL     1     -10.416   7.511  72.848  1.00  0.00    -0.318 C  
HETATM    9  C   UNL     1     -12.392  10.816  70.558  1.00  0.00    -0.369 C  
HETATM   10  O   UNL     1     -12.867   8.258  72.509  1.00  0.00    -0.262 OA 
HETATM   11  C   UNL     1     -11.663   8.348  72.418  1.00  0.00    -0.382 C  
HETATM   12  OXT UNL     1     -12.450  11.971  70.151  1.00  0.00    -0.166 OA 
ENDROOT
BRANCH   4  13
HETATM   13  C   UNL     1     -10.262  11.317  68.596  1.00  0.00    -0.203 C  
BRANCH  13  14
HETATM   14  S   UNL     1      -8.762  11.931  67.772  1.00  0.00    -0.167 SA 
BRANCH  14  15
HETATM   15  C   UNL     1      -9.145  11.684  66.086  1.00  0.00    -0.203 A  
HETATM   16  N   UNL     1     -10.011  12.429  65.430  1.00  0.00    -0.260 NA 
HETATM   17  S   UNL     1      -8.491  10.395  65.168  1.00  0.00    -0.169 SA 
HETATM   18  N   UNL     1     -10.226  11.971  64.146  1.00  0.00    -0.318 NA 
HETATM   19  C   UNL     1      -9.513  10.173  62.587  1.00  0.00    -0.277 C  
HETATM   20  C   UNL     1      -9.499  10.907  63.876  1.00  0.00    -0.261 A  
ENDBRANCH  14  15
ENDBRANCH  13  14
ENDBRANCH   4  13
BRANCH   8  21
HETATM   21  N   UNL     1     -10.412   6.112  72.309  1.00  0.00    -0.193 N  
HETATM   22  C   UNL     1     -10.545   5.029  73.154  1.00  0.00    -0.225 C  
HETATM   23  H   UNL     1     -10.309   5.958  71.305  1.00  0.00     0.000 HD 
HETATM   24  O   UNL     1     -10.825   5.161  74.343  1.00  0.00    -0.323 OA 
BRANCH  22  25
HETATM   25  C   UNL     1     -10.332   3.680  72.512  1.00  0.00    -0.127 C  
BRANCH  25  26
HETATM   26  N   UNL     1      -9.290   3.727  71.522  1.00  0.00    -0.124 NA 
HETATM   27  C   UNL     1      -9.323   3.344  70.221  1.00  0.00    -0.172 A  
HETATM   28  N   UNL     1      -8.181   3.671  69.662  1.00  0.00    -0.053 NA 
HETATM   29  N   UNL     1      -7.436   4.270  70.650  1.00  0.00    -0.048 NA 
HETATM   30  N   UNL     1      -8.112   4.319  71.791  1.00  0.00    -0.090 NA 
ENDBRANCH  25  26
ENDBRANCH  22  25
ENDBRANCH   8  21
TORSDOF 6
ENDMDL
MODEL       99
REMARK 921   NORMALIZED FREE ENERGY PREDICTED BY IDOCK:   -4.95 KCAL/MOL
REMARK 922        TOTAL FREE ENERGY PREDICTED BY IDOCK:   -7.67 KCAL/MOL
REMARK 923 INTER-LIGAND FREE ENERGY PREDICTED BY IDOCK:   -6.33 KCAL/MOL
REMARK 924 INTRA-LIGAND FREE ENERGY PREDICTED BY IDOCK:   -1.34 KCAL/MOL
REMARK 927      BINDING AFFINITY PREDICTED BY RF-SCORE:    0.00 PKD
ROOT
HETATM    1  C   UNL     1      -8.203  11.550  66.857  1.00  0.00    -0.167 C  
HETATM    2  S   UNL     1      -8.638  12.006  68.544  1.00  0.00    -0.036 SA 
HETATM    3  C   UNL     1      -7.524  10.783  69.275  1.00  0.00    -0.135 C  
HETATM    4  C   UNL     1      -7.720   9.373  68.738  1.00  0.00    -0.080 C  
HETATM    5  O   UNL     1      -9.161   7.409  66.026  1.00  0.00    -0.159 OA 
HETATM    6  CA  UNL     1      -8.182   9.120  67.475  1.00  0.00    -0.108 C  
HETATM    7  N   UNL     1      -8.534  10.151  66.647  1.00  0.00    -0.126 N  
HETATM    8  CA  UNL     1      -9.247  11.889  65.745  1.00  0.00    -0.103 C  
HETATM    9  C   UNL     1      -8.240   7.696  66.962  1.00  0.00    -0.117 C  
HETATM   10  O   UNL     1      -9.967   9.549  64.920  1.00  0.00    -0.067 OA 
HETATM   11  C   UNL     1      -9.320  10.339  65.570  1.00  0.00    -0.199 C  
HETATM   12  OXT UNL     1      -7.454   6.834  67.338  1.00  0.00    -0.092 OA 
ENDROOT
BRANCH   4  13
HETATM   13  C   UNL     1      -7.361   8.244  69.712  1.00  0.00    -0.065 C  
BRANCH  13  14
HETATM   14  S   UNL     1      -8.009   8.361  71.407  1.00  0.00    -0.137 SA 
BRANCH  14  15
HETATM   15  C   UNL     1      -9.656   7.818  71.206  1.00  0.00    -0.157 A  
HETATM   16  N   UNL     1     -10.058   7.113  70.169  1.00  0.00    -0.187 NA 
HETATM   17  S   UNL     1     -10.907   8.233  72.300  1.00  0.00    -0.357 SA 
HETATM   18  N   UNL     1     -11.421   6.899  70.179  1.00  0.00    -0.315 NA 
HETATM   19  C   UNL     1     -13.448   7.392  71.530  1.00  0.00    -0.445 C  
HETATM   20  C   UNL     1     -11.995   7.437  71.235  1.00  0.00    -0.313 A  
ENDBRANCH  14  15
ENDBRANCH  13  14
ENDBRANCH   4  13
BRANCH   8  21
HETATM   21  N   UNL     1     -10.543  12.512  66.169  1.00  0.00    -0.249 N  
HETATM   22  C   UNL     1     -10.779  13.857  65.969  1.00  0.00    -0.287 C  
HETATM   23  H   UNL     1     -11.259  11.935  66.610  1.00  0.00     0.000 HD 
HETATM   24  O   UNL     1     -10.019  14.561  65.307  1.00  0.00    -0.363 OA 
BRANCH  22  25
HETATM   25  C   UNL     1     -12.035  14.394  66.611  1.00  0.00    -0.392 C  
BRANCH  25  26
HETATM   26  N   UNL     1     -11.852  14.616  68.020  1.00  0.00    -0.334 NA 
HETATM   27  C   UNL     1     -11.598  15.773  68.682  1.00  0.00    -0.386 A  
HETATM   28  N   UNL     1     -11.618  15.526  69.971  1.00  0.00    -0.312 NA 
HETATM   29  N   UNL     1     -11.892  14.185  70.094  1.00  0.00    -0.301 NA 
HETATM   30  N   UNL     1     -12.048  13.621  68.904  1.00  0.00    -0.342 NA 
ENDBRANCH  25  26
ENDBRANCH  22  25
ENDBRANCH   8  21
TORSDOF 6
ENDMDL
MODEL      100
REMARK 921   NORMALIZED FREE ENERGY PREDICTED BY IDOCK:   -4.93 KCAL/MOL
REMARK 922        TOTAL FREE ENERGY PREDICTED BY IDOCK:   -7.65 KCAL/MOL
REMARK 923 INTER-LIGAND FREE ENERGY PREDICTED BY IDOCK:   -6.68 KCAL/MOL
REMARK 924 INTRA-LIGAND FREE ENERGY PREDICTED BY IDOCK:   -0.97 KCAL/MOL
REMARK 927      BINDING AFFINITY PREDICTED BY RF-SCORE:    0.00 PKD
ROOT
HETATM    1  C   UNL     1     -11.414  11.607  64.790  1.00  0.00    -0.155 C  
HETATM    2  S   UNL     1      -9.869  11.940  63.926  1.00  0.00    -0.224 SA 
HETATM    3  C   UNL     1      -9.342  10.212  63.981  1.00  0.00    -0.287 C  
HETATM    4  C   UNL     1      -9.379   9.600  65.374  1.00  0.00    -0.320 C  
HETATM    5  O   UNL     1     -10.712   9.986  68.744  1.00  0.00    -0.207 OA 
HETATM    6  CA  UNL     1     -10.251  10.017  66.342  1.00  0.00    -0.221 C  
HETATM    7  N   UNL     1     -11.111  11.054  66.098  1.00  0.00    -0.093 N  
HETATM    8  CA  UNL     1     -12.078  12.810  65.532  1.00  0.00    -0.465 C  
HETATM    9  C   UNL     1     -10.316   9.287  67.666  1.00  0.00    -0.253 C  
HETATM   10  O   UNL     1     -11.926  12.092  68.010  1.00  0.00    -0.465 OA 
HETATM   11  C   UNL     1     -11.807  11.958  66.813  1.00  0.00    -0.087 C  
HETATM   12  OXT UNL     1     -10.068   8.091  67.766  1.00  0.00    -0.172 OA 
ENDROOT
BRANCH   4  13
HETATM   13  C   UNL     1      -8.367   8.474  65.623  1.00  0.00    -0.148 C  
BRANCH  13  14
HETATM   14  S   UNL     1      -6.602   8.881  65.455  1.00  0.00    -0.068 SA 
BRANCH  14  15
HETATM   15  C   UNL     1      -6.454  10.290  66.476  1.00  0.00    -0.080 A  
HETATM   16  N   UNL     1      -6.011  11.451  66.039  1.00  0.00    -0.095 NA 
HETATM   17  S   UNL     1      -6.791  10.256  68.155  1.00  0.00    -0.066 SA 
HETATM   18  N   UNL     1      -5.879  12.376  67.053  1.00  0.00    -0.303 NA 
HETATM   19  C   UNL     1      -6.213  12.623  69.503  1.00  0.00    -0.121 C  
HETATM   20  C   UNL     1      -6.247  11.884  68.218  1.00  0.00    -0.050 A  
ENDBRANCH  14  15
ENDBRANCH  13  14
ENDBRANCH   4  13
BRANCH   8  21
HETATM   21  N   UNL     1     -11.359  14.126  65.517  1.00  0.00    -0.312 N  
HETATM   22  C   UNL     1     -11.621  15.062  64.538  1.00  0.00    -0.343 C  
HETATM   23  H   UNL     1     -10.668  14.331  66.238  1.00  0.00     0.000 HD 
HETATM   24  O   UNL     1     -12.548  14.931  63.741  1.00  0.00    -0.791 OA 
BRANCH  22  25
HETATM   25  C   UNL     1     -10.697  16.256  64.523  1.00  0.00     0.281 C  
BRANCH  25  26
HETATM   26  N   UNL     1     -10.649  16.898  65.809  1.00  0.00    -0.398 NA 
HETATM   27  C   UNL     1     -10.706  18.220  66.112  1.00  0.00    -0.159 A  
HETATM   28  N   UNL     1     -10.740  18.345  67.419  1.00  0.00    -0.407 NA 
HETATM   29  N   UNL     1     -10.706  17.065  67.921  1.00  0.00    -0.362 NA 
HETATM   30  N   UNL     1     -10.660  16.172  66.942  1.00  0.00    -0.306 NA 
ENDBRANCH  25  26
ENDBRANCH  22  25
ENDBRANCH   8  21
TORSDOF 6
ENDMDL
MODEL      101
REMARK 921   NORMALIZED FREE ENERGY PREDICTED BY IDOCK:   -4.90 KCAL/MOL
REMARK 922        TOTAL FREE ENERGY PREDICTED BY IDOCK:   -7.60 KCAL/MOL
REMARK 923 INTER-LIGAND FREE ENERGY PREDICTED BY IDOCK:   -6.27 KCAL/MOL
REMARK 924 INTRA-LIGAND FREE ENERGY PREDICTED BY IDOCK:   -1.32 KCAL/MOL
REMARK 927      BINDING AFFINITY PREDICTED BY RF-SCORE:    0.00 PKD
ROOT
HETATM    1  C   UNL     1      -7.621   8.839  68.097  1.00  0.00    -0.097 C  
HETATM    2  S   UNL     1      -7.691   9.317  69.832  1.00  0.00    -0.117 SA 
HETATM    3  C   UNL     1      -7.653   7.606  70.415  1.00  0.00    -0.088 C  
HETATM    4  C   UNL     1      -8.706   6.713  69.774  1.00  0.00    -0.140 C  
HETATM    5  O   UNL     1     -11.021   6.401  66.976  1.00  0.00    -0.365 OA 
HETATM    6  CA  UNL     1      -9.196   6.933  68.516  1.00  0.00    -0.129 C  
HETATM    7  N   UNL     1      -8.777   8.014  67.789  1.00  0.00    -0.127 N  
HETATM    8  CA  UNL     1      -8.172   9.870  67.060  1.00  0.00    -0.117 C  
HETATM    9  C   UNL     1     -10.153   5.939  67.893  1.00  0.00    -0.162 C  
HETATM   10  O   UNL     1     -10.222   8.639  66.081  1.00  0.00    -0.210 OA 
HETATM   11  C   UNL     1      -9.230   8.760  66.764  1.00  0.00    -0.169 C  
HETATM   12  OXT UNL     1     -10.123   4.745  68.165  1.00  0.00    -0.120 OA 
ENDROOT
BRANCH   4  13
HETATM   13  C   UNL     1      -9.186   5.540  70.639  1.00  0.00    -0.150 C  
BRANCH  13  14
HETATM   14  S   UNL     1      -9.601   5.893  72.374  1.00  0.00    -0.154 SA 
BRANCH  14  15
HETATM   15  C   UNL     1     -10.961   6.976  72.211  1.00  0.00    -0.245 A  
HETATM   16  N   UNL     1     -12.189   6.558  71.984  1.00  0.00    -0.329 NA 
HETATM   17  S   UNL     1     -10.795   8.681  72.246  1.00  0.00    -0.249 SA 
HETATM   18  N   UNL     1     -13.068   7.603  71.784  1.00  0.00    -0.337 NA 
HETATM   19  C   UNL     1     -13.140  10.086  71.712  1.00  0.00    -0.562 C  
HETATM   20  C   UNL     1     -12.472   8.772  71.886  1.00  0.00    -0.372 A  
ENDBRANCH  14  15
ENDBRANCH  13  14
ENDBRANCH   4  13
BRANCH   8  21
HETATM   21  N   UNL     1      -8.762  11.144  67.586  1.00  0.00    -0.128 N  
HETATM   22  C   UNL     1      -8.037  12.318  67.570  1.00  0.00    -0.170 C  
HETATM   23  H   UNL     1      -9.711  11.143  67.961  1.00  0.00     0.000 HD 
HETATM   24  O   UNL     1      -6.955  12.408  66.992  1.00  0.00    -0.115 OA 
BRANCH  22  25
HETATM   25  C   UNL     1      -8.669  13.477  68.300  1.00  0.00    -0.172 C  
BRANCH  25  26
HETATM   26  N   UNL     1     -10.000  13.737  67.820  1.00  0.00    -0.236 NA 
HETATM   27  C   UNL     1     -10.428  14.678  66.941  1.00  0.00    -0.270 A  
HETATM   28  N   UNL     1     -11.705  14.478  66.709  1.00  0.00    -0.383 NA 
HETATM   29  N   UNL     1     -12.060  13.387  67.466  1.00  0.00    -0.323 NA 
HETATM   30  N   UNL     1     -11.019  12.919  68.142  1.00  0.00    -0.237 NA 
ENDBRANCH  25  26
ENDBRANCH  22  25
ENDBRANCH   8  21
TORSDOF 6
ENDMDL
MODEL      102
REMARK 921   NORMALIZED FREE ENERGY PREDICTED BY IDOCK:   -4.90 KCAL/MOL
REMARK 922        TOTAL FREE ENERGY PREDICTED BY IDOCK:   -7.60 KCAL/MOL
REMARK 923 INTER-LIGAND FREE ENERGY PREDICTED BY IDOCK:   -6.55 KCAL/MOL
REMARK 924 INTRA-LIGAND FREE ENERGY PREDICTED BY IDOCK:   -1.05 KCAL/MOL
REMARK 927      BINDING AFFINITY PREDICTED BY RF-SCORE:    0.00 PKD
ROOT
HETATM    1  C   UNL     1     -11.381   7.410  70.559  1.00  0.00    -0.271 C  
HETATM    2  S   UNL     1     -10.791   8.742  71.618  1.00  0.00    -0.355 SA 
HETATM    3  C   UNL     1     -11.274  10.031  70.447  1.00  0.00    -0.323 C  
HETATM    4  C   UNL     1     -10.739   9.815  69.038  1.00  0.00    -0.238 C  
HETATM    5  O   UNL     1      -9.308   7.359  66.758  1.00  0.00    -0.146 OA 
HETATM    6  CA  UNL     1     -10.482   8.572  68.527  1.00  0.00    -0.167 C  
HETATM    7  N   UNL     1     -10.659   7.457  69.300  1.00  0.00    -0.220 N  
HETATM    8  CA  UNL     1     -10.750   5.999  70.786  1.00  0.00    -0.276 C  
HETATM    9  C   UNL     1     -10.065   8.422  67.080  1.00  0.00    -0.284 C  
HETATM   10  O   UNL     1      -9.484   5.590  68.571  1.00  0.00    -0.115 OA 
HETATM   11  C   UNL     1     -10.210   6.187  69.332  1.00  0.00    -0.197 C  
HETATM   12  OXT UNL     1     -10.434   9.201  66.209  1.00  0.00    -0.185 OA 
ENDROOT
BRANCH   4  13
HETATM   13  C   UNL     1     -10.508  11.093  68.221  1.00  0.00    -0.191 C  
BRANCH  13  14
HETATM   14  S   UNL     1     -11.337  12.610  68.784  1.00  0.00    -0.310 SA 
BRANCH  14  15
HETATM   15  C   UNL     1     -10.716  13.801  67.668  1.00  0.00    -0.249 A  
HETATM   16  N   UNL     1     -10.825  13.686  66.360  1.00  0.00    -0.289 NA 
HETATM   17  S   UNL     1      -9.834  15.178  68.179  1.00  0.00    -0.220 SA 
HETATM   18  N   UNL     1     -10.162  14.692  65.689  1.00  0.00    -0.337 NA 
HETATM   19  C   UNL     1      -8.795  16.724  66.109  1.00  0.00    -0.298 C  
HETATM   20  C   UNL     1      -9.592  15.542  66.518  1.00  0.00    -0.272 A  
ENDBRANCH  14  15
ENDBRANCH  13  14
ENDBRANCH   4  13
BRANCH   8  21
HETATM   21  N   UNL     1      -9.671   5.873  71.820  1.00  0.00    -0.155 N  
HETATM   22  C   UNL     1      -9.962   5.425  73.092  1.00  0.00    -0.169 C  
HETATM   23  H   UNL     1      -8.711   6.121  71.580  1.00  0.00     0.000 HD 
HETATM   24  O   UNL     1     -11.065   4.969  73.387  1.00  0.00    -0.297 OA 
BRANCH  22  25
HETATM   25  C   UNL     1      -8.831   5.527  74.086  1.00  0.00    -0.119 C  
BRANCH  25  26
HETATM   26  N   UNL     1      -8.072   6.734  73.897  1.00  0.00    -0.112 NA 
HETATM   27  C   UNL     1      -8.232   7.950  74.478  1.00  0.00    -0.208 A  
HETATM   28  N   UNL     1      -7.245   8.726  74.094  1.00  0.00    -0.401 NA 
HETATM   29  N   UNL     1      -6.465   7.960  73.260  1.00  0.00    -0.069 NA 
HETATM   30  N   UNL     1      -6.958   6.735  73.141  1.00  0.00    -0.075 NA 
ENDBRANCH  25  26
ENDBRANCH  22  25
ENDBRANCH   8  21
TORSDOF 6
ENDMDL
MODEL      103
REMARK 921   NORMALIZED FREE ENERGY PREDICTED BY IDOCK:   -4.87 KCAL/MOL
REMARK 922        TOTAL FREE ENERGY PREDICTED BY IDOCK:   -7.57 KCAL/MOL
REMARK 923 INTER-LIGAND FREE ENERGY PREDICTED BY IDOCK:   -6.09 KCAL/MOL
REMARK 924 INTRA-LIGAND FREE ENERGY PREDICTED BY IDOCK:   -1.47 KCAL/MOL
REMARK 927      BINDING AFFINITY PREDICTED BY RF-SCORE:    0.00 PKD
ROOT
HETATM    1  C   UNL     1      -9.676   7.549  71.378  1.00  0.00    -0.166 C  
HETATM    2  S   UNL     1      -8.926   7.874  69.773  1.00  0.00    -0.145 SA 
HETATM    3  C   UNL     1      -9.058   9.667  69.955  1.00  0.00    -0.225 C  
HETATM    4  C   UNL     1     -10.457  10.150  70.311  1.00  0.00    -0.284 C  
HETATM    5  O   UNL     1     -13.705   9.120  71.604  1.00  0.00    -0.382 OA 
HETATM    6  CA  UNL     1     -11.346   9.384  71.015  1.00  0.00    -0.337 C  
HETATM    7  N   UNL     1     -11.015   8.112  71.394  1.00  0.00    -0.231 N  
HETATM    8  CA  UNL     1     -10.339   6.149  71.575  1.00  0.00    -0.209 C  
HETATM    9  C   UNL     1     -12.676   9.969  71.439  1.00  0.00    -0.415 C  
HETATM   10  O   UNL     1     -12.836   6.748  71.867  1.00  0.00    -0.338 OA 
HETATM   11  C   UNL     1     -11.655   6.976  71.733  1.00  0.00    -0.280 C  
HETATM   12  OXT UNL     1     -12.819  11.163  71.677  1.00  0.00    -0.427 OA 
ENDROOT
BRANCH   4  13
HETATM   13  C   UNL     1     -10.807  11.563  69.827  1.00  0.00     0.114 C  
BRANCH  13  14
HETATM   14  S   UNL     1     -11.591  11.718  68.193  1.00  0.00    -0.314 SA 
BRANCH  14  15
HETATM   15  C   UNL     1     -10.531  10.761  67.188  1.00  0.00    -0.237 A  
HETATM   16  N   UNL     1     -10.779   9.506  66.875  1.00  0.00    -0.169 NA 
HETATM   17  S   UNL     1      -9.036  11.350  66.596  1.00  0.00    -0.186 SA 
HETATM   18  N   UNL     1      -9.745   8.930  66.165  1.00  0.00    -0.271 NA 
HETATM   19  C   UNL     1      -7.506   9.466  65.230  1.00  0.00    -0.100 C  
HETATM   20  C   UNL     1      -8.763   9.781  65.952  1.00  0.00    -0.139 A  
ENDBRANCH  14  15
ENDBRANCH  13  14
ENDBRANCH   4  13
BRANCH   8  21
HETATM   21  N   UNL     1     -10.352   5.210  70.406  1.00  0.00    -0.271 N  
HETATM   22  C   UNL     1      -9.486   4.136  70.354  1.00  0.00    -0.177 C  
HETATM   23  H   UNL     1     -11.007   5.366  69.640  1.00  0.00     0.000 HD 
HETATM   24  O   UNL     1      -8.789   3.814  71.313  1.00  0.00    -0.089 OA 
BRANCH  22  25
HETATM   25  C   UNL     1      -9.467   3.386  69.045  1.00  0.00    -0.132 C  
BRANCH  25  26
HETATM   26  N   UNL     1      -9.148   4.256  67.945  1.00  0.00    -0.123 NA 
HETATM   27  C   UNL     1      -9.917   4.625  66.889  1.00  0.00    -0.211 A  
HETATM   28  N   UNL     1      -9.260   5.521  66.190  1.00  0.00    -0.156 NA 
HETATM   29  N   UNL     1      -8.063   5.703  66.840  1.00  0.00    -0.102 NA 
HETATM   30  N   UNL     1      -7.989   4.940  67.922  1.00  0.00    -0.093 NA 
ENDBRANCH  25  26
ENDBRANCH  22  25
ENDBRANCH   8  21
TORSDOF 6
ENDMDL
MODEL      104
REMARK 921   NORMALIZED FREE ENERGY PREDICTED BY IDOCK:   -4.85 KCAL/MOL
REMARK 922        TOTAL FREE ENERGY PREDICTED BY IDOCK:   -7.54 KCAL/MOL
REMARK 923 INTER-LIGAND FREE ENERGY PREDICTED BY IDOCK:   -6.15 KCAL/MOL
REMARK 924 INTRA-LIGAND FREE ENERGY PREDICTED BY IDOCK:   -1.39 KCAL/MOL
REMARK 927      BINDING AFFINITY PREDICTED BY RF-SCORE:    0.00 PKD
ROOT
HETATM    1  C   UNL     1     -11.830   6.742  70.856  1.00  0.00    -0.385 C  
HETATM    2  S   UNL     1     -10.994   7.079  69.297  1.00  0.00    -0.136 SA 
HETATM    3  C   UNL     1     -10.457   5.365  69.092  1.00  0.00    -0.207 C  
HETATM    4  C   UNL     1      -9.725   4.800  70.302  1.00  0.00    -0.296 C  
HETATM    5  O   UNL     1      -9.075   5.271  73.857  1.00  0.00    -0.122 OA 
HETATM    6  CA  UNL     1      -9.963   5.231  71.578  1.00  0.00    -0.182 C  
HETATM    7  N   UNL     1     -10.858   6.240  71.812  1.00  0.00    -0.239 N  
HETATM    8  CA  UNL     1     -12.041   7.956  71.818  1.00  0.00    -0.303 C  
HETATM    9  C   UNL     1      -9.288   4.544  72.746  1.00  0.00    -0.128 C  
HETATM   10  O   UNL     1     -10.569   7.325  73.846  1.00  0.00    -0.344 OA 
HETATM   11  C   UNL     1     -11.099   7.153  72.772  1.00  0.00    -0.300 C  
HETATM   12  OXT UNL     1      -8.982   3.358  72.719  1.00  0.00    -0.087 OA 
ENDROOT
BRANCH   4  13
HETATM   13  C   UNL     1      -8.695   3.705  69.993  1.00  0.00    -0.070 C  
BRANCH  13  14
HETATM   14  S   UNL     1      -7.128   4.220  69.229  1.00  0.00    -0.051 SA 
BRANCH  14  15
HETATM   15  C   UNL     1      -6.610   5.507  70.291  1.00  0.00    -0.042 A  
HETATM   16  N   UNL     1      -6.151   5.294  71.506  1.00  0.00    -0.028 NA 
HETATM   17  S   UNL     1      -6.739   7.162  69.869  1.00  0.00    -0.049 SA 
HETATM   18  N   UNL     1      -5.912   6.469  72.188  1.00  0.00    -0.038 NA 
HETATM   19  C   UNL     1      -6.042   8.934  71.902  1.00  0.00    -0.075 C  
HETATM   20  C   UNL     1      -6.183   7.527  71.453  1.00  0.00    -0.035 A  
ENDBRANCH  14  15
ENDBRANCH  13  14
ENDBRANCH   4  13
BRANCH   8  21
HETATM   21  N   UNL     1     -11.487   9.285  71.399  1.00  0.00    -0.339 N  
HETATM   22  C   UNL     1     -12.306  10.246  70.842  1.00  0.00    -0.373 C  
HETATM   23  H   UNL     1     -10.495   9.480  71.527  1.00  0.00     0.000 HD 
HETATM   24  O   UNL     1     -13.528  10.122  70.809  1.00  0.00    -0.311 OA 
BRANCH  22  25
HETATM   25  C   UNL     1     -11.595  11.458  70.291  1.00  0.00    -0.243 C  
BRANCH  25  26
HETATM   26  N   UNL     1     -11.688  11.514  68.856  1.00  0.00    -0.312 NA 
HETATM   27  C   UNL     1     -12.023  12.558  68.057  1.00  0.00    -0.223 A  
HETATM   28  N   UNL     1     -11.870  12.190  66.806  1.00  0.00    -0.606 NA 
HETATM   29  N   UNL     1     -11.429  10.888  66.848  1.00  0.00    -0.296 NA 
HETATM   30  N   UNL     1     -11.305  10.469  68.100  1.00  0.00    -0.325 NA 
ENDBRANCH  25  26
ENDBRANCH  22  25
ENDBRANCH   8  21
TORSDOF 6
ENDMDL
MODEL      105
REMARK 921   NORMALIZED FREE ENERGY PREDICTED BY IDOCK:   -4.81 KCAL/MOL
REMARK 922        TOTAL FREE ENERGY PREDICTED BY IDOCK:   -7.48 KCAL/MOL
REMARK 923 INTER-LIGAND FREE ENERGY PREDICTED BY IDOCK:   -6.29 KCAL/MOL
REMARK 924 INTRA-LIGAND FREE ENERGY PREDICTED BY IDOCK:   -1.19 KCAL/MOL
REMARK 927      BINDING AFFINITY PREDICTED BY RF-SCORE:    0.00 PKD
ROOT
HETATM    1  C   UNL     1     -10.908  10.462  67.306  1.00  0.00    -0.264 C  
HETATM    2  S   UNL     1     -10.033  11.252  68.667  1.00  0.00    -0.191 SA 
HETATM    3  C   UNL     1     -10.985  12.783  68.532  1.00  0.00    -0.258 C  
HETATM    4  C   UNL     1     -11.008  13.372  67.129  1.00  0.00    -0.292 C  
HETATM    5  O   UNL     1     -10.414  12.655  63.605  1.00  0.00    -0.414 OA 
HETATM    6  CA  UNL     1     -10.898  12.604  66.002  1.00  0.00    -0.277 C  
HETATM    7  N   UNL     1     -10.716  11.251  66.102  1.00  0.00    -0.266 N  
HETATM    8  CA  UNL     1     -10.168   9.297  66.575  1.00  0.00    -0.246 C  
HETATM    9  C   UNL     1     -11.048  13.239  64.636  1.00  0.00    -0.357 C  
HETATM   10  O   UNL     1      -9.807  10.263  64.206  1.00  0.00    -0.329 OA 
HETATM   11  C   UNL     1     -10.224  10.255  65.341  1.00  0.00    -0.242 C  
HETATM   12  OXT UNL     1     -11.756  14.222  64.447  1.00  0.00    -0.406 OA 
ENDROOT
BRANCH   4  13
HETATM   13  C   UNL     1     -11.164  14.897  67.060  1.00  0.00    -0.344 C  
BRANCH  13  14
HETATM   14  S   UNL     1     -11.045  15.823  68.620  1.00  0.00    -0.347 SA 
BRANCH  14  15
HETATM   15  C   UNL     1      -9.389  16.379  68.588  1.00  0.00    -0.233 A  
HETATM   16  N   UNL     1      -9.059  17.644  68.426  1.00  0.00    -0.272 NA 
HETATM   17  S   UNL     1      -8.053  15.311  68.677  1.00  0.00    -0.169 SA 
HETATM   18  N   UNL     1      -7.695  17.819  68.324  1.00  0.00    -0.256 NA 
HETATM   19  C   UNL     1      -5.570  16.531  68.353  1.00  0.00    -0.117 C  
HETATM   20  C   UNL     1      -7.044  16.680  68.432  1.00  0.00    -0.167 A  
ENDBRANCH  14  15
ENDBRANCH  13  14
ENDBRANCH   4  13
BRANCH   8  21
HETATM   21  N   UNL     1      -8.775   8.964  67.020  1.00  0.00    -0.122 N  
HETATM   22  C   UNL     1      -8.207   7.746  66.710  1.00  0.00    -0.120 C  
HETATM   23  H   UNL     1      -8.242   9.647  67.558  1.00  0.00     0.000 HD 
HETATM   24  O   UNL     1      -8.743   6.954  65.937  1.00  0.00    -0.152 OA 
BRANCH  22  25
HETATM   25  C   UNL     1      -6.883   7.463  67.377  1.00  0.00    -0.078 C  
BRANCH  25  26
HETATM   26  N   UNL     1      -6.990   7.539  68.809  1.00  0.00    -0.076 NA 
HETATM   27  C   UNL     1      -6.106   8.036  69.711  1.00  0.00    -0.029 A  
HETATM   28  N   UNL     1      -6.663   8.004  70.899  1.00  0.00    -0.037 NA 
HETATM   29  N   UNL     1      -7.919   7.476  70.712  1.00  0.00    -0.102 NA 
HETATM   30  N   UNL     1      -8.132   7.198  69.433  1.00  0.00    -0.128 NA 
ENDBRANCH  25  26
ENDBRANCH  22  25
ENDBRANCH   8  21
TORSDOF 6
ENDMDL
MODEL      106
REMARK 921   NORMALIZED FREE ENERGY PREDICTED BY IDOCK:   -4.80 KCAL/MOL
REMARK 922        TOTAL FREE ENERGY PREDICTED BY IDOCK:   -7.47 KCAL/MOL
REMARK 923 INTER-LIGAND FREE ENERGY PREDICTED BY IDOCK:   -6.29 KCAL/MOL
REMARK 924 INTRA-LIGAND FREE ENERGY PREDICTED BY IDOCK:   -1.18 KCAL/MOL
REMARK 927      BINDING AFFINITY PREDICTED BY RF-SCORE:    0.00 PKD
ROOT
HETATM    1  C   UNL     1      -7.691   9.967  67.565  1.00  0.00    -0.091 C  
HETATM    2  S   UNL     1      -8.456   9.671  69.169  1.00  0.00    -0.154 SA 
HETATM    3  C   UNL     1      -7.478   8.182  69.479  1.00  0.00    -0.087 C  
HETATM    4  C   UNL     1      -7.534   7.162  68.350  1.00  0.00    -0.106 C  
HETATM    5  O   UNL     1      -8.376   6.674  64.838  1.00  0.00    -0.120 OA 
HETATM    6  CA  UNL     1      -7.736   7.515  67.044  1.00  0.00    -0.111 C  
HETATM    7  N   UNL     1      -7.944   8.824  66.705  1.00  0.00    -0.097 N  
HETATM    8  CA  UNL     1      -8.507  10.824  66.545  1.00  0.00    -0.147 C  
HETATM    9  C   UNL     1      -7.662   6.464  65.957  1.00  0.00    -0.093 C  
HETATM   10  O   UNL     1      -9.000   9.129  64.658  1.00  0.00    -0.192 OA 
HETATM   11  C   UNL     1      -8.509   9.513  65.695  1.00  0.00    -0.133 C  
HETATM   12  OXT UNL     1      -6.945   5.474  66.053  1.00  0.00    -0.063 OA 
ENDROOT
BRANCH   4  13
HETATM   13  C   UNL     1      -7.346   5.700  68.777  1.00  0.00    -0.083 C  
BRANCH  13  14
HETATM   14  S   UNL     1      -7.819   5.255  70.476  1.00  0.00    -0.085 SA 
BRANCH  14  15
HETATM   15  C   UNL     1      -9.505   5.709  70.515  1.00  0.00    -0.163 A  
HETATM   16  N   UNL     1     -10.309   5.576  69.481  1.00  0.00    -0.262 NA 
HETATM   17  S   UNL     1     -10.233   6.446  71.879  1.00  0.00    -0.197 SA 
HETATM   18  N   UNL     1     -11.560   6.104  69.720  1.00  0.00    -0.316 NA 
HETATM   19  C   UNL     1     -12.872   7.248  71.494  1.00  0.00    -0.430 C  
HETATM   20  C   UNL     1     -11.660   6.599  70.936  1.00  0.00    -0.361 A  
ENDBRANCH  14  15
ENDBRANCH  13  14
ENDBRANCH   4  13
BRANCH   8  21
HETATM   21  N   UNL     1      -9.874  11.284  66.952  1.00  0.00    -0.191 N  
HETATM   22  C   UNL     1     -10.604  12.132  66.144  1.00  0.00    -0.255 C  
HETATM   23  H   UNL     1     -10.270  10.967  67.837  1.00  0.00     0.000 HD 
HETATM   24  O   UNL     1     -10.242  12.419  65.005  1.00  0.00    -0.282 OA 
BRANCH  22  25
HETATM   25  C   UNL     1     -11.875  12.670  66.754  1.00  0.00    -0.370 C  
BRANCH  25  26
HETATM   26  N   UNL     1     -11.940  12.391  68.164  1.00  0.00    -0.380 NA 
HETATM   27  C   UNL     1     -11.904  13.251  69.213  1.00  0.00    -0.331 A  
HETATM   28  N   UNL     1     -12.106  12.569  70.317  1.00  0.00    -0.341 NA 
HETATM   29  N   UNL     1     -12.271  11.261  69.926  1.00  0.00    -0.300 NA 
HETATM   30  N   UNL     1     -12.181  11.144  68.608  1.00  0.00    -0.549 NA 
ENDBRANCH  25  26
ENDBRANCH  22  25
ENDBRANCH   8  21
TORSDOF 6
ENDMDL
MODEL      107
REMARK 921   NORMALIZED FREE ENERGY PREDICTED BY IDOCK:   -4.79 KCAL/MOL
REMARK 922        TOTAL FREE ENERGY PREDICTED BY IDOCK:   -7.45 KCAL/MOL
REMARK 923 INTER-LIGAND FREE ENERGY PREDICTED BY IDOCK:   -6.49 KCAL/MOL
REMARK 924 INTRA-LIGAND FREE ENERGY PREDICTED BY IDOCK:   -0.96 KCAL/MOL
REMARK 927      BINDING AFFINITY PREDICTED BY RF-SCORE:    0.00 PKD
ROOT
HETATM    1  C   UNL     1      -7.825  10.172  68.409  1.00  0.00    -0.093 C  
HETATM    2  S   UNL     1      -6.817  11.188  67.317  1.00  0.00    -0.104 SA 
HETATM    3  C   UNL     1      -7.397  12.737  68.047  1.00  0.00    -0.117 C  
HETATM    4  C   UNL     1      -8.913  12.862  68.105  1.00  0.00    -0.202 C  
HETATM    5  O   UNL     1     -12.046  11.009  67.923  1.00  0.00    -0.600 OA 
HETATM    6  CA  UNL     1      -9.741  11.777  68.203  1.00  0.00    -0.192 C  
HETATM    7  N   UNL     1      -9.223  10.510  68.209  1.00  0.00    -0.147 N  
HETATM    8  CA  UNL     1      -8.175   8.734  67.909  1.00  0.00    -0.111 C  
HETATM    9  C   UNL     1     -11.231  11.977  68.376  1.00  0.00    -0.262 C  
HETATM   10  O   UNL     1     -10.740   8.852  67.616  1.00  0.00    -0.244 OA 
HETATM   11  C   UNL     1      -9.646   9.261  67.932  1.00  0.00    -0.142 C  
HETATM   12  OXT UNL     1     -11.697  12.955  68.949  1.00  0.00    -0.289 OA 
ENDROOT
BRANCH   4  13
HETATM   13  C   UNL     1      -9.456  14.295  68.046  1.00  0.00    -0.204 C  
BRANCH  13  14
HETATM   14  S   UNL     1     -10.132  14.871  66.459  1.00  0.00    -0.282 SA 
BRANCH  14  15
HETATM   15  C   UNL     1     -10.116  16.606  66.665  1.00  0.00    -0.301 A  
HETATM   16  N   UNL     1      -9.769  17.439  65.706  1.00  0.00    -0.543 NA 
HETATM   17  S   UNL     1     -10.468  17.364  68.160  1.00  0.00    -0.388 SA 
HETATM   18  N   UNL     1      -9.728  18.748  66.140  1.00  0.00    -0.477 NA 
HETATM   19  C   UNL     1     -10.108  20.125  68.174  1.00  0.00    -0.498 C  
HETATM   20  C   UNL     1     -10.066  18.855  67.409  1.00  0.00    -0.361 A  
ENDBRANCH  14  15
ENDBRANCH  13  14
ENDBRANCH   4  13
BRANCH   8  21
HETATM   21  N   UNL     1      -7.698   8.332  66.545  1.00  0.00    -0.091 N  
HETATM   22  C   UNL     1      -8.015   7.096  66.022  1.00  0.00    -0.112 C  
HETATM   23  H   UNL     1      -7.131   8.980  65.999  1.00  0.00     0.000 HD 
HETATM   24  O   UNL     1      -8.818   6.343  66.570  1.00  0.00    -0.126 OA 
BRANCH  22  25
HETATM   25  C   UNL     1      -7.317   6.742  64.732  1.00  0.00    -0.088 C  
BRANCH  25  26
HETATM   26  N   UNL     1      -7.148   7.898  63.892  1.00  0.00    -0.076 NA 
HETATM   27  C   UNL     1      -8.004   8.433  62.986  1.00  0.00    -0.161 A  
HETATM   28  N   UNL     1      -7.483   9.550  62.532  1.00  0.00    -0.105 NA 
HETATM   29  N   UNL     1      -6.281   9.696  63.183  1.00  0.00    -0.102 NA 
HETATM   30  N   UNL     1      -6.072   8.694  64.026  1.00  0.00    -0.071 NA 
ENDBRANCH  25  26
ENDBRANCH  22  25
ENDBRANCH   8  21
TORSDOF 6
ENDMDL
MODEL      108
REMARK 921   NORMALIZED FREE ENERGY PREDICTED BY IDOCK:   -4.76 KCAL/MOL
REMARK 922        TOTAL FREE ENERGY PREDICTED BY IDOCK:   -7.41 KCAL/MOL
REMARK 923 INTER-LIGAND FREE ENERGY PREDICTED BY IDOCK:   -6.32 KCAL/MOL
REMARK 924 INTRA-LIGAND FREE ENERGY PREDICTED BY IDOCK:   -1.09 KCAL/MOL
REMARK 927      BINDING AFFINITY PREDICTED BY RF-SCORE:    0.00 PKD
ROOT
HETATM    1  C   UNL     1      -9.213   8.758  70.562  1.00  0.00    -0.188 C  
HETATM    2  S   UNL     1      -9.025   7.599  69.196  1.00  0.00    -0.134 SA 
HETATM    3  C   UNL     1      -9.070   8.902  67.944  1.00  0.00    -0.139 C  
HETATM    4  C   UNL     1     -10.270   9.831  68.064  1.00  0.00    -0.229 C  
HETATM    5  O   UNL     1     -12.930  10.963  70.284  1.00  0.00    -0.214 OA 
HETATM    6  CA  UNL     1     -10.889  10.089  69.256  1.00  0.00    -0.230 C  
HETATM    7  N   UNL     1     -10.467   9.473  70.403  1.00  0.00    -0.256 N  
HETATM    8  CA  UNL     1      -9.791   8.186  71.896  1.00  0.00    -0.212 C  
HETATM    9  C   UNL     1     -12.001  11.114  69.324  1.00  0.00    -0.351 C  
HETATM   10  O   UNL     1     -12.049   9.426  72.104  1.00  0.00    -0.332 OA 
HETATM   11  C   UNL     1     -10.974   9.167  71.612  1.00  0.00    -0.374 C  
HETATM   12  OXT UNL     1     -12.046  12.081  68.571  1.00  0.00    -0.367 OA 
ENDROOT
BRANCH   4  13
HETATM   13  C   UNL     1     -10.744  10.463  66.749  1.00  0.00    -0.168 C  
BRANCH  13  14
HETATM   14  S   UNL     1      -9.502  11.327  65.739  1.00  0.00    -0.232 SA 
BRANCH  14  15
HETATM   15  C   UNL     1      -9.559  12.944  66.395  1.00  0.00    -0.252 A  
HETATM   16  N   UNL     1      -9.256  13.222  67.646  1.00  0.00    -0.200 NA 
HETATM   17  S   UNL     1     -10.097  14.293  65.487  1.00  0.00    -0.329 SA 
HETATM   18  N   UNL     1      -9.483  14.547  67.957  1.00  0.00    -0.204 NA 
HETATM   19  C   UNL     1     -10.280  16.666  66.932  1.00  0.00    -0.291 C  
HETATM   20  C   UNL     1      -9.931  15.225  66.920  1.00  0.00    -0.239 A  
ENDBRANCH  14  15
ENDBRANCH  13  14
ENDBRANCH   4  13
BRANCH   8  21
HETATM   21  N   UNL     1     -10.195   6.742  71.921  1.00  0.00    -0.189 N  
HETATM   22  C   UNL     1     -10.440   6.099  73.117  1.00  0.00    -0.236 C  
HETATM   23  H   UNL     1     -10.290   6.230  71.045  1.00  0.00     0.000 HD 
HETATM   24  O   UNL     1     -10.492   6.705  74.185  1.00  0.00    -0.353 OA 
BRANCH  22  25
HETATM   25  C   UNL     1     -10.649   4.608  73.016  1.00  0.00    -0.213 C  
BRANCH  25  26
HETATM   26  N   UNL     1      -9.441   3.887  73.318  1.00  0.00    -0.111 NA 
HETATM   27  C   UNL     1      -9.290   2.664  73.887  1.00  0.00    -0.080 A  
HETATM   28  N   UNL     1      -8.015   2.352  73.869  1.00  0.00    -0.054 NA 
HETATM   29  N   UNL     1      -7.377   3.413  73.270  1.00  0.00    -0.054 NA 
HETATM   30  N   UNL     1      -8.244   4.353  72.920  1.00  0.00    -0.094 NA 
ENDBRANCH  25  26
ENDBRANCH  22  25
ENDBRANCH   8  21
TORSDOF 6
ENDMDL
MODEL      109
REMARK 921   NORMALIZED FREE ENERGY PREDICTED BY IDOCK:   -4.75 KCAL/MOL
REMARK 922        TOTAL FREE ENERGY PREDICTED BY IDOCK:   -7.40 KCAL/MOL
REMARK 923 INTER-LIGAND FREE ENERGY PREDICTED BY IDOCK:   -6.64 KCAL/MOL
REMARK 924 INTRA-LIGAND FREE ENERGY PREDICTED BY IDOCK:   -0.76 KCAL/MOL
REMARK 927      BINDING AFFINITY PREDICTED BY RF-SCORE:    0.00 PKD
ROOT
HETATM    1  C   UNL     1     -10.785   8.579  68.759  1.00  0.00    -0.054 C  
HETATM    2  S   UNL     1     -10.878   9.273  70.417  1.00  0.00    -0.272 SA 
HETATM    3  C   UNL     1     -11.349  10.913  69.820  1.00  0.00    -0.301 C  
HETATM    4  C   UNL     1     -10.416  11.473  68.756  1.00  0.00    -0.227 C  
HETATM    5  O   UNL     1      -7.824  10.614  66.342  1.00  0.00    -0.131 OA 
HETATM    6  CA  UNL     1      -9.711  10.674  67.897  1.00  0.00    -0.161 C  
HETATM    7  N   UNL     1      -9.788   9.312  67.997  1.00  0.00    -0.157 N  
HETATM    8  CA  UNL     1      -9.889   7.312  68.575  1.00  0.00    -0.156 C  
HETATM    9  C   UNL     1      -8.893  11.297  66.786  1.00  0.00    -0.170 C  
HETATM   10  O   UNL     1      -8.009   8.176  67.026  1.00  0.00    -0.102 OA 
HETATM   11  C   UNL     1      -9.046   8.244  67.647  1.00  0.00    -0.131 C  
HETATM   12  OXT UNL     1      -9.205  12.360  66.262  1.00  0.00    -0.219 OA 
ENDROOT
BRANCH   4  13
HETATM   13  C   UNL     1     -10.318  13.003  68.708  1.00  0.00    -0.129 C  
BRANCH  13  14
HETATM   14  S   UNL     1     -11.870  13.938  68.548  1.00  0.00    -0.365 SA 
BRANCH  14  15
HETATM   15  C   UNL     1     -12.011  14.682  70.121  1.00  0.00    -0.313 A  
HETATM   16  N   UNL     1     -11.481  15.852  70.413  1.00  0.00    -0.352 NA 
HETATM   17  S   UNL     1     -12.778  13.910  71.444  1.00  0.00    -0.363 SA 
HETATM   18  N   UNL     1     -11.632  16.177  71.745  1.00  0.00    -0.460 NA 
HETATM   19  C   UNL     1     -12.601  15.292  73.856  1.00  0.00    -0.731 C  
HETATM   20  C   UNL     1     -12.288  15.246  72.406  1.00  0.00    -0.373 A  
ENDBRANCH  14  15
ENDBRANCH  13  14
ENDBRANCH   4  13
BRANCH   8  21
HETATM   21  N   UNL     1      -9.137   6.808  69.770  1.00  0.00    -0.144 N  
HETATM   22  C   UNL     1      -9.294   5.508  70.206  1.00  0.00    -0.154 C  
HETATM   23  H   UNL     1      -8.503   7.433  70.268  1.00  0.00     0.000 HD 
HETATM   24  O   UNL     1      -9.921   4.674  69.557  1.00  0.00    -0.213 OA 
BRANCH  22  25
HETATM   25  C   UNL     1      -8.633   5.185  71.524  1.00  0.00    -0.129 C  
BRANCH  25  26
HETATM   26  N   UNL     1      -9.510   4.432  72.380  1.00  0.00    -0.135 NA 
HETATM   27  C   UNL     1     -10.678   4.809  72.959  1.00  0.00    -0.237 A  
HETATM   28  N   UNL     1     -11.197   3.767  73.566  1.00  0.00    -0.241 NA 
HETATM   29  N   UNL     1     -10.321   2.729  73.347  1.00  0.00    -0.123 NA 
HETATM   30  N   UNL     1      -9.290   3.125  72.613  1.00  0.00    -0.098 NA 
ENDBRANCH  25  26
ENDBRANCH  22  25
ENDBRANCH   8  21
TORSDOF 6
ENDMDL
MODEL      110
REMARK 921   NORMALIZED FREE ENERGY PREDICTED BY IDOCK:   -4.73 KCAL/MOL
REMARK 922        TOTAL FREE ENERGY PREDICTED BY IDOCK:   -7.37 KCAL/MOL
REMARK 923 INTER-LIGAND FREE ENERGY PREDICTED BY IDOCK:   -6.41 KCAL/MOL
REMARK 924 INTRA-LIGAND FREE ENERGY PREDICTED BY IDOCK:   -0.96 KCAL/MOL
REMARK 927      BINDING AFFINITY PREDICTED BY RF-SCORE:    0.00 PKD
ROOT
HETATM    1  C   UNL     1      -5.727  16.480  67.412  1.00  0.00    -0.159 C  
HETATM    2  S   UNL     1      -7.347  16.422  66.628  1.00  0.00    -0.143 SA 
HETATM    3  C   UNL     1      -7.356  18.195  66.272  1.00  0.00    -0.267 C  
HETATM    4  C   UNL     1      -7.070  19.068  67.485  1.00  0.00    -0.226 C  
HETATM    5  O   UNL     1      -5.720  19.086  70.870  1.00  0.00    -0.202 OA 
HETATM    6  CA  UNL     1      -6.301  18.646  68.535  1.00  0.00    -0.217 C  
HETATM    7  N   UNL     1      -5.787  17.378  68.551  1.00  0.00    -0.158 N  
HETATM    8  CA  UNL     1      -5.394  15.336  68.423  1.00  0.00    -0.106 C  
HETATM    9  C   UNL     1      -5.958  19.607  69.654  1.00  0.00    -0.281 C  
HETATM   10  O   UNL     1      -5.199  16.609  70.663  1.00  0.00    -0.202 OA 
HETATM   11  C   UNL     1      -5.340  16.497  69.467  1.00  0.00    -0.143 C  
HETATM   12  OXT UNL     1      -5.849  20.813  69.469  1.00  0.00    -0.366 OA 
ENDROOT
BRANCH   4  13
HETATM   13  C   UNL     1      -7.704  20.465  67.452  1.00  0.00    -0.328 C  
BRANCH  13  14
HETATM   14  S   UNL     1      -9.488  20.568  67.114  1.00  0.00    -0.360 SA 
BRANCH  14  15
HETATM   15  C   UNL     1     -10.091  19.129  67.899  1.00  0.00    -0.386 A  
HETATM   16  N   UNL     1      -9.943  18.898  69.187  1.00  0.00    -0.314 NA 
HETATM   17  S   UNL     1     -10.851  17.857  67.041  1.00  0.00     0.033 SA 
HETATM   18  N   UNL     1     -10.403  17.650  69.551  1.00  0.00    -0.061 NA 
HETATM   19  C   UNL     1     -11.465  15.621  68.584  1.00  0.00    -0.381 C  
HETATM   20  C   UNL     1     -10.901  16.992  68.524  1.00  0.00    -0.310 A  
ENDBRANCH  14  15
ENDBRANCH  13  14
ENDBRANCH   4  13
BRANCH   8  21
HETATM   21  N   UNL     1      -6.458  14.318  68.704  1.00  0.00    -0.083 N  
HETATM   22  C   UNL     1      -6.566  13.179  67.934  1.00  0.00    -0.137 C  
HETATM   23  H   UNL     1      -7.110  14.470  69.474  1.00  0.00     0.000 HD 
HETATM   24  O   UNL     1      -5.717  12.873  67.100  1.00  0.00    -0.347 OA 
BRANCH  22  25
HETATM   25  C   UNL     1      -7.790  12.336  68.197  1.00  0.00    -0.148 C  
BRANCH  25  26
HETATM   26  N   UNL     1      -8.580  12.171  67.006  1.00  0.00    -0.186 NA 
HETATM   27  C   UNL     1      -8.713  11.082  66.207  1.00  0.00    -0.176 A  
HETATM   28  N   UNL     1      -9.622  11.344  65.296  1.00  0.00    -0.228 NA 
HETATM   29  N   UNL     1     -10.053  12.624  65.552  1.00  0.00    -0.274 NA 
HETATM   30  N   UNL     1      -9.428  13.135  66.604  1.00  0.00    -0.257 NA 
ENDBRANCH  25  26
ENDBRANCH  22  25
ENDBRANCH   8  21
TORSDOF 6
ENDMDL
MODEL      111
REMARK 921   NORMALIZED FREE ENERGY PREDICTED BY IDOCK:   -4.72 KCAL/MOL
REMARK 922        TOTAL FREE ENERGY PREDICTED BY IDOCK:   -7.36 KCAL/MOL
REMARK 923 INTER-LIGAND FREE ENERGY PREDICTED BY IDOCK:   -5.90 KCAL/MOL
REMARK 924 INTRA-LIGAND FREE ENERGY PREDICTED BY IDOCK:   -1.46 KCAL/MOL
REMARK 927      BINDING AFFINITY PREDICTED BY RF-SCORE:    0.00 PKD
ROOT
HETATM    1  C   UNL     1      -7.230   9.977  65.864  1.00  0.00    -0.115 C  
HETATM    2  S   UNL     1      -6.305  11.167  66.849  1.00  0.00    -0.128 SA 
HETATM    3  C   UNL     1      -5.410   9.883  67.753  1.00  0.00    -0.035 C  
HETATM    4  C   UNL     1      -6.311   8.831  68.384  1.00  0.00    -0.055 C  
HETATM    5  O   UNL     1      -9.661   7.395  68.350  1.00  0.00    -0.149 OA 
HETATM    6  CA  UNL     1      -7.530   8.493  67.863  1.00  0.00    -0.097 C  
HETATM    7  N   UNL     1      -8.011   9.135  66.754  1.00  0.00    -0.104 N  
HETATM    8  CA  UNL     1      -8.584  10.467  65.258  1.00  0.00    -0.177 C  
HETATM    9  C   UNL     1      -8.323   7.355  68.471  1.00  0.00    -0.126 C  
HETATM   10  O   UNL     1     -10.314   8.992  66.487  1.00  0.00    -0.264 OA 
HETATM   11  C   UNL     1      -9.206   9.370  66.181  1.00  0.00    -0.190 C  
HETATM   12  OXT UNL     1      -7.782   6.399  69.014  1.00  0.00    -0.097 OA 
ENDROOT
BRANCH   4  13
HETATM   13  C   UNL     1      -5.759   8.169  69.653  1.00  0.00    -0.026 C  
BRANCH  13  14
HETATM   14  S   UNL     1      -5.892   9.099  71.210  1.00  0.00    -0.068 SA 
BRANCH  14  15
HETATM   15  C   UNL     1      -7.436   8.562  71.824  1.00  0.00    -0.099 A  
HETATM   16  N   UNL     1      -8.572   9.162  71.534  1.00  0.00    -0.338 NA 
HETATM   17  S   UNL     1      -7.592   7.261  72.927  1.00  0.00    -0.077 SA 
HETATM   18  N   UNL     1      -9.639   8.625  72.224  1.00  0.00    -0.300 NA 
HETATM   19  C   UNL     1     -10.179   6.846  73.873  1.00  0.00    -0.401 C  
HETATM   20  C   UNL     1      -9.270   7.624  72.997  1.00  0.00    -0.201 A  
ENDBRANCH  14  15
ENDBRANCH  13  14
ENDBRANCH   4  13
BRANCH   8  21
HETATM   21  N   UNL     1      -9.034  11.860  65.585  1.00  0.00    -0.413 N  
HETATM   22  C   UNL     1     -10.142  12.406  64.970  1.00  0.00    -0.247 C  
HETATM   23  H   UNL     1      -8.515  12.409  66.269  1.00  0.00     0.000 HD 
HETATM   24  O   UNL     1     -10.889  11.738  64.259  1.00  0.00    -0.304 OA 
BRANCH  22  25
HETATM   25  C   UNL     1     -10.373  13.872  65.242  1.00  0.00    -0.378 C  
BRANCH  25  26
HETATM   26  N   UNL     1     -10.782  14.096  66.603  1.00  0.00    -0.287 NA 
HETATM   27  C   UNL     1     -12.033  14.140  67.128  1.00  0.00    -0.426 A  
HETATM   28  N   UNL     1     -11.932  14.258  68.432  1.00  0.00    -0.333 NA 
HETATM   29  N   UNL     1     -10.584  14.284  68.704  1.00  0.00    -0.245 NA 
HETATM   30  N   UNL     1      -9.872  14.175  67.591  1.00  0.00    -0.226 NA 
ENDBRANCH  25  26
ENDBRANCH  22  25
ENDBRANCH   8  21
TORSDOF 6
ENDMDL
MODEL      112
REMARK 921   NORMALIZED FREE ENERGY PREDICTED BY IDOCK:   -4.72 KCAL/MOL
REMARK 922        TOTAL FREE ENERGY PREDICTED BY IDOCK:   -7.36 KCAL/MOL
REMARK 923 INTER-LIGAND FREE ENERGY PREDICTED BY IDOCK:   -5.90 KCAL/MOL
REMARK 924 INTRA-LIGAND FREE ENERGY PREDICTED BY IDOCK:   -1.46 KCAL/MOL
REMARK 927      BINDING AFFINITY PREDICTED BY RF-SCORE:    0.00 PKD
ROOT
HETATM    1  C   UNL     1     -10.032   7.031  71.378  1.00  0.00    -0.184 C  
HETATM    2  S   UNL     1     -11.315   6.742  70.148  1.00  0.00    -0.347 SA 
HETATM    3  C   UNL     1     -10.391   5.416  69.340  1.00  0.00    -0.269 C  
HETATM    4  C   UNL     1      -8.969   5.800  68.957  1.00  0.00    -0.117 C  
HETATM    5  O   UNL     1      -6.292   8.205  69.537  1.00  0.00    -0.033 OA 
HETATM    6  CA  UNL     1      -8.245   6.736  69.644  1.00  0.00    -0.131 C  
HETATM    7  N   UNL     1      -8.804   7.405  70.698  1.00  0.00    -0.149 N  
HETATM    8  CA  UNL     1     -10.005   8.442  72.050  1.00  0.00    -0.284 C  
HETATM    9  C   UNL     1      -6.796   6.985  69.284  1.00  0.00    -0.054 C  
HETATM   10  O   UNL     1      -7.759   9.413  71.222  1.00  0.00    -0.336 OA 
HETATM   11  C   UNL     1      -8.611   8.565  71.356  1.00  0.00    -0.175 C  
HETATM   12  OXT UNL     1      -6.077   6.105  68.823  1.00  0.00    -0.025 OA 
ENDROOT
BRANCH   4  13
HETATM   13  C   UNL     1      -8.395   5.062  67.740  1.00  0.00    -0.105 C  
BRANCH  13  14
HETATM   14  S   UNL     1      -8.974   5.581  66.096  1.00  0.00    -0.147 SA 
BRANCH  14  15
HETATM   15  C   UNL     1      -8.540   7.272  66.073  1.00  0.00    -0.151 A  
HETATM   16  N   UNL     1      -7.313   7.696  65.848  1.00  0.00    -0.072 NA 
HETATM   17  S   UNL     1      -9.659   8.519  66.427  1.00  0.00    -0.240 SA 
HETATM   18  N   UNL     1      -7.198   9.063  65.990  1.00  0.00    -0.092 NA 
HETATM   19  C   UNL     1      -8.554  11.074  66.531  1.00  0.00    -0.165 C  
HETATM   20  C   UNL     1      -8.349   9.623  66.299  1.00  0.00    -0.116 A  
ENDBRANCH  14  15
ENDBRANCH  13  14
ENDBRANCH   4  13
BRANCH   8  21
HETATM   21  N   UNL     1     -11.005   9.457  71.584  1.00  0.00    -0.366 N  
HETATM   22  C   UNL     1     -12.307   9.425  72.038  1.00  0.00    -0.345 C  
HETATM   23  H   UNL     1     -10.719  10.180  70.924  1.00  0.00     0.000 HD 
HETATM   24  O   UNL     1     -12.664   8.677  72.945  1.00  0.00    -0.289 OA 
BRANCH  22  25
HETATM   25  C   UNL     1     -13.254  10.378  71.349  1.00  0.00    -0.364 C  
BRANCH  25  26
HETATM   26  N   UNL     1     -12.555  11.252  70.446  1.00  0.00    -0.245 NA 
HETATM   27  C   UNL     1     -12.187  12.547  70.615  1.00  0.00    -0.276 A  
HETATM   28  N   UNL     1     -11.471  12.914  69.578  1.00  0.00    -0.254 NA 
HETATM   29  N   UNL     1     -11.402  11.812  68.758  1.00  0.00    -0.241 NA 
HETATM   30  N   UNL     1     -12.055  10.786  69.287  1.00  0.00    -0.326 NA 
ENDBRANCH  25  26
ENDBRANCH  22  25
ENDBRANCH   8  21
TORSDOF 6
ENDMDL
MODEL      113
REMARK 921   NORMALIZED FREE ENERGY PREDICTED BY IDOCK:   -4.69 KCAL/MOL
REMARK 922        TOTAL FREE ENERGY PREDICTED BY IDOCK:   -7.32 KCAL/MOL
REMARK 923 INTER-LIGAND FREE ENERGY PREDICTED BY IDOCK:   -8.48 KCAL/MOL
REMARK 924 INTRA-LIGAND FREE ENERGY PREDICTED BY IDOCK:    1.16 KCAL/MOL
REMARK 927      BINDING AFFINITY PREDICTED BY RF-SCORE:    0.00 PKD
ROOT
HETATM    1  C   UNL     1     -11.730  12.800  66.179  1.00  0.00    -0.403 C  
HETATM    2  S   UNL     1     -10.093  12.272  66.710  1.00  0.00    -0.211 SA 
HETATM    3  C   UNL     1      -9.768  13.813  67.598  1.00  0.00    -0.227 C  
HETATM    4  C   UNL     1      -9.987  15.065  66.761  1.00  0.00    -0.254 C  
HETATM    5  O   UNL     1     -11.542  16.369  63.733  1.00  0.00    -1.055 OA 
HETATM    6  CA  UNL     1     -10.884  15.117  65.729  1.00  0.00    -0.353 C  
HETATM    7  N   UNL     1     -11.600  14.005  65.378  1.00  0.00    -0.319 N  
HETATM    8  CA  UNL     1     -12.316  12.105  64.908  1.00  0.00    -0.179 C  
HETATM    9  C   UNL     1     -11.139  16.427  65.014  1.00  0.00    -0.208 C  
HETATM   10  O   UNL     1     -12.449  14.054  63.216  1.00  0.00    -0.795 OA 
HETATM   11  C   UNL     1     -12.247  13.540  64.293  1.00  0.00    -0.396 C  
HETATM   12  OXT UNL     1     -11.035  17.510  65.579  1.00  0.00    -0.296 OA 
ENDROOT
BRANCH   4  13
HETATM   13  C   UNL     1      -9.130  16.275  67.154  1.00  0.00    -0.202 C  
BRANCH  13  14
HETATM   14  S   UNL     1      -7.336  16.158  66.877  1.00  0.00    -0.190 SA 
BRANCH  14  15
HETATM   15  C   UNL     1      -6.974  17.716  66.175  1.00  0.00    -0.303 A  
HETATM   16  N   UNL     1      -7.899  18.518  65.689  1.00  0.00    -0.448 NA 
HETATM   17  S   UNL     1      -5.373  18.294  65.982  1.00  0.00    -0.188 SA 
HETATM   18  N   UNL     1      -7.358  19.637  65.091  1.00  0.00    -0.307 NA 
HETATM   19  C   UNL     1      -5.168  20.707  64.607  1.00  0.00    -0.210 C  
HETATM   20  C   UNL     1      -6.044  19.647  65.165  1.00  0.00    -0.242 A  
ENDBRANCH  14  15
ENDBRANCH  13  14
ENDBRANCH   4  13
BRANCH   8  21
HETATM   21  N   UNL     1     -11.455  11.101  64.200  1.00  0.00    -0.197 N  
HETATM   22  C   UNL     1     -10.369  11.506  63.452  1.00  0.00    -0.418 C  
HETATM   23  H   UNL     1     -11.676  10.108  64.272  1.00  0.00     0.000 HD 
HETATM   24  O   UNL     1      -9.969  12.668  63.459  1.00  0.00    -0.359 OA 
BRANCH  22  25
HETATM   25  C   UNL     1      -9.705  10.421  62.640  1.00  0.00    -0.149 C  
BRANCH  25  26
HETATM   26  N   UNL     1      -8.761   9.676  63.429  1.00  0.00    -0.212 NA 
HETATM   27  C   UNL     1      -8.021  10.081  64.492  1.00  0.00    -0.148 A  
HETATM   28  N   UNL     1      -7.381   9.041  64.973  1.00  0.00    -0.094 NA 
HETATM   29  N   UNL     1      -7.745   7.976  64.183  1.00  0.00    -0.123 NA 
HETATM   30  N   UNL     1      -8.598   8.354  63.241  1.00  0.00     0.006 NA 
ENDBRANCH  25  26
ENDBRANCH  22  25
ENDBRANCH   8  21
TORSDOF 6
ENDMDL
MODEL      114
REMARK 921   NORMALIZED FREE ENERGY PREDICTED BY IDOCK:   -4.68 KCAL/MOL
REMARK 922        TOTAL FREE ENERGY PREDICTED BY IDOCK:   -7.31 KCAL/MOL
REMARK 923 INTER-LIGAND FREE ENERGY PREDICTED BY IDOCK:   -6.75 KCAL/MOL
REMARK 924 INTRA-LIGAND FREE ENERGY PREDICTED BY IDOCK:   -0.55 KCAL/MOL
REMARK 927      BINDING AFFINITY PREDICTED BY RF-SCORE:    0.00 PKD
ROOT
HETATM    1  C   UNL     1      -7.646  10.355  68.408  1.00  0.00    -0.093 C  
HETATM    2  S   UNL     1      -6.762  11.200  67.086  1.00  0.00    -0.116 SA 
HETATM    3  C   UNL     1      -7.404  12.824  67.551  1.00  0.00    -0.153 C  
HETATM    4  C   UNL     1      -8.920  12.875  67.677  1.00  0.00    -0.192 C  
HETATM    5  O   UNL     1     -11.931  10.854  68.032  1.00  0.00    -0.586 OA 
HETATM    6  CA  UNL     1      -9.670  11.785  68.025  1.00  0.00    -0.185 C  
HETATM    7  N   UNL     1      -9.072  10.572  68.234  1.00  0.00    -0.141 N  
HETATM    8  CA  UNL     1      -7.927   8.831  68.205  1.00  0.00    -0.106 C  
HETATM    9  C   UNL     1     -11.160  11.933  68.248  1.00  0.00    -0.239 C  
HETATM   10  O   UNL     1     -10.505   8.752  68.052  1.00  0.00    -0.223 OA 
HETATM   11  C   UNL     1      -9.425   9.272  68.219  1.00  0.00    -0.138 C  
HETATM   12  OXT UNL     1     -11.659  12.975  68.657  1.00  0.00    -0.274 OA 
ENDROOT
BRANCH   4  13
HETATM   13  C   UNL     1      -9.557  14.240  67.387  1.00  0.00    -0.214 C  
BRANCH  13  14
HETATM   14  S   UNL     1     -10.065  14.581  65.674  1.00  0.00    -0.363 SA 
BRANCH  14  15
HETATM   15  C   UNL     1     -10.386  16.298  65.725  1.00  0.00    -0.374 A  
HETATM   16  N   UNL     1     -10.964  16.949  64.737  1.00  0.00    -0.849 NA 
HETATM   17  S   UNL     1      -9.895  17.293  67.029  1.00  0.00    -0.292 SA 
HETATM   18  N   UNL     1     -11.008  18.309  64.963  1.00  0.00    -0.476 NA 
HETATM   19  C   UNL     1     -10.361  20.013  66.653  1.00  0.00    -0.565 C  
HETATM   20  C   UNL     1     -10.477  18.632  66.124  1.00  0.00    -0.430 A  
ENDBRANCH  14  15
ENDBRANCH  13  14
ENDBRANCH   4  13
BRANCH   8  21
HETATM   21  N   UNL     1      -7.492   8.206  66.913  1.00  0.00    -0.090 N  
HETATM   22  C   UNL     1      -7.789   6.888  66.632  1.00  0.00    -0.107 C  
HETATM   23  H   UNL     1      -6.971   8.761  66.234  1.00  0.00     0.000 HD 
HETATM   24  O   UNL     1      -8.543   6.224  67.340  1.00  0.00    -0.109 OA 
BRANCH  22  25
HETATM   25  C   UNL     1      -7.133   6.329  65.393  1.00  0.00    -0.068 C  
BRANCH  25  26
HETATM   26  N   UNL     1      -7.302   4.903  65.307  1.00  0.00    -0.071 NA 
HETATM   27  C   UNL     1      -6.612   3.917  65.935  1.00  0.00    -0.044 A  
HETATM   28  N   UNL     1      -7.178   2.768  65.649  1.00  0.00    -0.065 NA 
HETATM   29  N   UNL     1      -8.240   3.065  64.828  1.00  0.00    -0.086 NA 
HETATM   30  N   UNL     1      -8.330   4.371  64.622  1.00  0.00    -0.106 NA 
ENDBRANCH  25  26
ENDBRANCH  22  25
ENDBRANCH   8  21
TORSDOF 6
ENDMDL
MODEL      115
REMARK 921   NORMALIZED FREE ENERGY PREDICTED BY IDOCK:   -4.67 KCAL/MOL
REMARK 922        TOTAL FREE ENERGY PREDICTED BY IDOCK:   -7.29 KCAL/MOL
REMARK 923 INTER-LIGAND FREE ENERGY PREDICTED BY IDOCK:   -6.46 KCAL/MOL
REMARK 924 INTRA-LIGAND FREE ENERGY PREDICTED BY IDOCK:   -0.83 KCAL/MOL
REMARK 927      BINDING AFFINITY PREDICTED BY RF-SCORE:    0.00 PKD
ROOT
HETATM    1  C   UNL     1     -10.099  11.799  67.994  1.00  0.00    -0.192 C  
HETATM    2  S   UNL     1     -10.756  10.200  67.489  1.00  0.00    -0.283 SA 
HETATM    3  C   UNL     1     -10.474   9.452  69.110  1.00  0.00    -0.217 C  
HETATM    4  C   UNL     1      -9.052   9.620  69.628  1.00  0.00    -0.224 C  
HETATM    5  O   UNL     1      -5.958  11.505  69.228  1.00  0.00    -0.054 OA 
HETATM    6  CA  UNL     1      -8.262  10.683  69.284  1.00  0.00    -0.115 C  
HETATM    7  N   UNL     1      -8.717  11.630  68.408  1.00  0.00    -0.162 N  
HETATM    8  CA  UNL     1      -9.570  12.733  66.859  1.00  0.00    -0.235 C  
HETATM    9  C   UNL     1      -6.901  10.852  69.928  1.00  0.00    -0.125 C  
HETATM   10  O   UNL     1      -7.043  12.872  67.382  1.00  0.00    -0.153 OA 
HETATM   11  C   UNL     1      -8.193  12.549  67.575  1.00  0.00    -0.175 C  
HETATM   12  OXT UNL     1      -6.663  10.458  71.064  1.00  0.00    -0.318 OA 
ENDROOT
BRANCH   4  13
HETATM   13  C   UNL     1      -8.561   8.512  70.568  1.00  0.00    -0.147 C  
BRANCH  13  14
HETATM   14  S   UNL     1      -9.334   8.402  72.210  1.00  0.00    -0.296 SA 
BRANCH  14  15
HETATM   15  C   UNL     1      -9.693   6.697  72.330  1.00  0.00    -0.154 A  
HETATM   16  N   UNL     1      -9.430   5.838  71.367  1.00  0.00    -0.150 NA 
HETATM   17  S   UNL     1     -10.499   6.014  73.678  1.00  0.00    -0.272 SA 
HETATM   18  N   UNL     1      -9.905   4.574  71.649  1.00  0.00    -0.181 NA 
HETATM   19  C   UNL     1     -11.116   3.311  73.413  1.00  0.00    -0.282 C  
HETATM   20  C   UNL     1     -10.493   4.522  72.826  1.00  0.00    -0.198 A  
ENDBRANCH  14  15
ENDBRANCH  13  14
ENDBRANCH   4  13
BRANCH   8  21
HETATM   21  N   UNL     1      -9.596  12.210  65.454  1.00  0.00    -0.411 N  
HETATM   22  C   UNL     1     -10.636  12.524  64.604  1.00  0.00    -0.316 C  
HETATM   23  H   UNL     1      -8.836  11.617  65.123  1.00  0.00     0.000 HD 
HETATM   24  O   UNL     1     -11.492  13.355  64.899  1.00  0.00    -0.310 OA 
BRANCH  22  25
HETATM   25  C   UNL     1     -10.641  11.783  63.289  1.00  0.00    -0.368 C  
BRANCH  25  26
HETATM   26  N   UNL     1      -9.522  10.884  63.189  1.00  0.00    -0.304 NA 
HETATM   27  C   UNL     1      -8.445  10.941  62.365  1.00  0.00    -0.274 A  
HETATM   28  N   UNL     1      -7.618   9.976  62.695  1.00  0.00    -0.125 NA 
HETATM   29  N   UNL     1      -8.209   9.318  63.748  1.00  0.00    -0.156 NA 
HETATM   30  N   UNL     1      -9.371   9.874  64.064  1.00  0.00    -0.264 NA 
ENDBRANCH  25  26
ENDBRANCH  22  25
ENDBRANCH   8  21
TORSDOF 6
ENDMDL
MODEL      116
REMARK 921   NORMALIZED FREE ENERGY PREDICTED BY IDOCK:   -4.63 KCAL/MOL
REMARK 922        TOTAL FREE ENERGY PREDICTED BY IDOCK:   -7.24 KCAL/MOL
REMARK 923 INTER-LIGAND FREE ENERGY PREDICTED BY IDOCK:   -6.63 KCAL/MOL
REMARK 924 INTRA-LIGAND FREE ENERGY PREDICTED BY IDOCK:   -0.61 KCAL/MOL
REMARK 927      BINDING AFFINITY PREDICTED BY RF-SCORE:    0.00 PKD
ROOT
HETATM    1  C   UNL     1     -10.925  11.229  64.179  1.00  0.00    -0.305 C  
HETATM    2  S   UNL     1      -9.559  11.592  63.063  1.00  0.00    -0.233 SA 
HETATM    3  C   UNL     1      -9.017   9.868  62.994  1.00  0.00    -0.259 C  
HETATM    4  C   UNL     1      -8.804   9.234  64.361  1.00  0.00    -0.197 C  
HETATM    5  O   UNL     1      -9.528   9.551  67.919  1.00  0.00    -0.132 OA 
HETATM    6  CA  UNL     1      -9.496   9.626  65.474  1.00  0.00    -0.266 C  
HETATM    7  N   UNL     1     -10.393  10.657  65.404  1.00  0.00    -0.260 N  
HETATM    8  CA  UNL     1     -11.458  12.413  65.048  1.00  0.00    -0.332 C  
HETATM    9  C   UNL     1      -9.322   8.874  66.776  1.00  0.00    -0.175 C  
HETATM   10  O   UNL     1     -10.867  11.656  67.447  1.00  0.00    -0.224 OA 
HETATM   11  C   UNL     1     -10.959  11.543  66.246  1.00  0.00    -0.275 C  
HETATM   12  OXT UNL     1      -9.051   7.679  66.809  1.00  0.00    -0.137 OA 
ENDROOT
BRANCH   4  13
HETATM   13  C   UNL     1      -7.755   8.115  64.409  1.00  0.00    -0.126 C  
BRANCH  13  14
HETATM   14  S   UNL     1      -7.556   7.088  62.921  1.00  0.00    -0.108 SA 
BRANCH  14  15
HETATM   15  C   UNL     1      -8.094   5.524  63.482  1.00  0.00    -0.113 A  
HETATM   16  N   UNL     1      -7.493   4.864  64.450  1.00  0.00    -0.066 NA 
HETATM   17  S   UNL     1      -9.398   4.681  62.761  1.00  0.00     0.016 SA 
HETATM   18  N   UNL     1      -8.033   3.608  64.639  1.00  0.00    -0.085 NA 
HETATM   19  C   UNL     1      -9.816   2.115  63.762  1.00  0.00    -0.137 C  
HETATM   20  C   UNL     1      -9.035   3.376  63.817  1.00  0.00    -0.093 A  
ENDBRANCH  14  15
ENDBRANCH  13  14
ENDBRANCH   4  13
BRANCH   8  21
HETATM   21  N   UNL     1     -10.762  13.736  64.930  1.00  0.00    -0.376 N  
HETATM   22  C   UNL     1     -11.102  14.788  65.755  1.00  0.00    -0.338 C  
HETATM   23  H   UNL     1     -10.029  13.859  64.231  1.00  0.00     0.000 HD 
HETATM   24  O   UNL     1     -11.863  14.648  66.710  1.00  0.00    -0.377 OA 
BRANCH  22  25
HETATM   25  C   UNL     1     -10.466  16.112  65.408  1.00  0.00    -0.373 C  
BRANCH  25  26
HETATM   26  N   UNL     1      -9.164  16.242  66.004  1.00  0.00    -0.395 NA 
HETATM   27  C   UNL     1      -8.487  15.365  66.789  1.00  0.00    -0.272 A  
HETATM   28  N   UNL     1      -7.288  15.851  67.015  1.00  0.00    -0.218 NA 
HETATM   29  N   UNL     1      -7.236  17.052  66.348  1.00  0.00    -0.275 NA 
HETATM   30  N   UNL     1      -8.377  17.295  65.717  1.00  0.00    -0.494 NA 
ENDBRANCH  25  26
ENDBRANCH  22  25
ENDBRANCH   8  21
TORSDOF 6
ENDMDL
MODEL      117
REMARK 921   NORMALIZED FREE ENERGY PREDICTED BY IDOCK:   -4.63 KCAL/MOL
REMARK 922        TOTAL FREE ENERGY PREDICTED BY IDOCK:   -7.23 KCAL/MOL
REMARK 923 INTER-LIGAND FREE ENERGY PREDICTED BY IDOCK:   -6.92 KCAL/MOL
REMARK 924 INTRA-LIGAND FREE ENERGY PREDICTED BY IDOCK:   -0.32 KCAL/MOL
REMARK 927      BINDING AFFINITY PREDICTED BY RF-SCORE:    0.00 PKD
ROOT
HETATM    1  C   UNL     1     -11.100   9.974  67.402  1.00  0.00    -0.085 C  
HETATM    2  S   UNL     1     -10.461  10.656  68.941  1.00  0.00    -0.224 SA 
HETATM    3  C   UNL     1     -11.169  12.291  68.634  1.00  0.00    -0.259 C  
HETATM    4  C   UNL     1     -10.809  12.873  67.275  1.00  0.00    -0.277 C  
HETATM    5  O   UNL     1      -9.538  12.076  63.954  1.00  0.00    -0.166 OA 
HETATM    6  CA  UNL     1     -10.544  12.093  66.183  1.00  0.00    -0.255 C  
HETATM    7  N   UNL     1     -10.552  10.728  66.289  1.00  0.00    -0.226 N  
HETATM    8  CA  UNL     1     -10.361   8.724  66.825  1.00  0.00    -0.258 C  
HETATM    9  C   UNL     1     -10.310  12.737  64.833  1.00  0.00    -0.309 C  
HETATM   10  O   UNL     1      -9.370   9.630  64.618  1.00  0.00    -0.260 OA 
HETATM   11  C   UNL     1     -10.026   9.677  65.633  1.00  0.00    -0.251 C  
HETATM   12  OXT UNL     1     -10.835  13.797  64.515  1.00  0.00    -0.393 OA 
ENDROOT
BRANCH   4  13
HETATM   13  C   UNL     1     -10.762  14.405  67.209  1.00  0.00    -0.285 C  
BRANCH  13  14
HETATM   14  S   UNL     1      -9.170  15.179  66.793  1.00  0.00    -0.271 SA 
BRANCH  14  15
HETATM   15  C   UNL     1      -9.596  16.871  66.717  1.00  0.00    -0.262 A  
HETATM   16  N   UNL     1     -10.338  17.383  65.757  1.00  0.00    -0.590 NA 
HETATM   17  S   UNL     1      -9.010  18.024  67.840  1.00  0.00    -0.270 SA 
HETATM   18  N   UNL     1     -10.443  18.755  65.852  1.00  0.00    -0.578 NA 
HETATM   19  C   UNL     1      -9.702  20.660  67.266  1.00  0.00    -0.562 C  
HETATM   20  C   UNL     1      -9.791  19.226  66.895  1.00  0.00    -0.342 A  
ENDBRANCH  14  15
ENDBRANCH  13  14
ENDBRANCH   4  13
BRANCH   8  21
HETATM   21  N   UNL     1      -9.152   8.226  67.559  1.00  0.00    -0.136 N  
HETATM   22  C   UNL     1      -9.282   7.385  68.645  1.00  0.00    -0.143 C  
HETATM   23  H   UNL     1      -8.222   8.512  67.252  1.00  0.00     0.000 HD 
HETATM   24  O   UNL     1     -10.362   6.889  68.960  1.00  0.00    -0.177 OA 
BRANCH  22  25
HETATM   25  C   UNL     1      -8.008   7.114  69.408  1.00  0.00    -0.125 C  
BRANCH  25  26
HETATM   26  N   UNL     1      -6.850   7.286  68.573  1.00  0.00    -0.071 NA 
HETATM   27  C   UNL     1      -6.301   6.427  67.676  1.00  0.00    -0.040 A  
HETATM   28  N   UNL     1      -5.318   7.043  67.060  1.00  0.00    -0.017 NA 
HETATM   29  N   UNL     1      -5.271   8.308  67.596  1.00  0.00    -0.033 NA 
HETATM   30  N   UNL     1      -6.213   8.470  68.516  1.00  0.00    -0.052 NA 
ENDBRANCH  25  26
ENDBRANCH  22  25
ENDBRANCH   8  21
TORSDOF 6
ENDMDL
MODEL      118
REMARK 921   NORMALIZED FREE ENERGY PREDICTED BY IDOCK:   -4.62 KCAL/MOL
REMARK 922        TOTAL FREE ENERGY PREDICTED BY IDOCK:   -7.22 KCAL/MOL
REMARK 923 INTER-LIGAND FREE ENERGY PREDICTED BY IDOCK:   -6.79 KCAL/MOL
REMARK 924 INTRA-LIGAND FREE ENERGY PREDICTED BY IDOCK:   -0.43 KCAL/MOL
REMARK 927      BINDING AFFINITY PREDICTED BY RF-SCORE:    0.00 PKD
ROOT
HETATM    1  C   UNL     1      -8.169  10.550  67.870  1.00  0.00    -0.107 C  
HETATM    2  S   UNL     1      -8.726  10.354  66.169  1.00  0.00    -0.158 SA 
HETATM    3  C   UNL     1      -9.734  11.854  66.214  1.00  0.00    -0.229 C  
HETATM    4  C   UNL     1     -10.704  11.911  67.386  1.00  0.00    -0.271 C  
HETATM    5  O   UNL     1     -11.487  10.497  70.653  1.00  0.00    -0.322 OA 
HETATM    6  CA  UNL     1     -10.458  11.288  68.579  1.00  0.00    -0.197 C  
HETATM    7  N   UNL     1      -9.325  10.539  68.749  1.00  0.00    -0.172 N  
HETATM    8  CA  UNL     1      -7.687   9.259  68.607  1.00  0.00    -0.085 C  
HETATM    9  C   UNL     1     -11.407  11.483  69.743  1.00  0.00    -0.226 C  
HETATM   10  O   UNL     1      -9.450   8.991  70.476  1.00  0.00    -0.185 OA 
HETATM   11  C   UNL     1      -8.905   9.537  69.545  1.00  0.00    -0.179 C  
HETATM   12  OXT UNL     1     -12.051  12.515  69.894  1.00  0.00    -0.304 OA 
ENDROOT
BRANCH   4  13
HETATM   13  C   UNL     1     -11.984  12.720  67.140  1.00  0.00    -0.284 C  
BRANCH  13  14
HETATM   14  S   UNL     1     -12.366  13.184  65.424  1.00  0.00    -0.484 SA 
BRANCH  14  15
HETATM   15  C   UNL     1     -11.752  14.817  65.343  1.00  0.00    -0.289 A  
HETATM   16  N   UNL     1     -11.846  15.567  64.264  1.00  0.00    -0.417 NA 
HETATM   17  S   UNL     1     -10.898  15.549  66.634  1.00  0.00    -0.245 SA 
HETATM   18  N   UNL     1     -11.192  16.773  64.407  1.00  0.00    -1.107 NA 
HETATM   19  C   UNL     1      -9.862  18.070  66.058  1.00  0.00    -0.177 C  
HETATM   20  C   UNL     1     -10.644  16.896  65.598  1.00  0.00    -0.221 A  
ENDBRANCH  14  15
ENDBRANCH  13  14
ENDBRANCH   4  13
BRANCH   8  21
HETATM   21  N   UNL     1      -7.777   7.958  67.867  1.00  0.00    -0.122 N  
HETATM   22  C   UNL     1      -6.760   7.550  67.030  1.00  0.00    -0.066 C  
HETATM   23  H   UNL     1      -8.600   7.367  67.986  1.00  0.00     0.000 HD 
HETATM   24  O   UNL     1      -5.685   8.145  66.971  1.00  0.00    -0.036 OA 
BRANCH  22  25
HETATM   25  C   UNL     1      -7.057   6.323  66.203  1.00  0.00    -0.067 C  
BRANCH  25  26
HETATM   26  N   UNL     1      -8.425   5.906  66.356  1.00  0.00    -0.117 NA 
HETATM   27  C   UNL     1      -8.928   4.657  66.532  1.00  0.00    -0.113 A  
HETATM   28  N   UNL     1     -10.221   4.756  66.737  1.00  0.00    -0.228 NA 
HETATM   29  N   UNL     1     -10.509   6.100  66.687  1.00  0.00    -0.218 NA 
HETATM   30  N   UNL     1      -9.413   6.812  66.464  1.00  0.00    -0.165 NA 
ENDBRANCH  25  26
ENDBRANCH  22  25
ENDBRANCH   8  21
TORSDOF 6
ENDMDL
MODEL      119
REMARK 921   NORMALIZED FREE ENERGY PREDICTED BY IDOCK:   -4.61 KCAL/MOL
REMARK 922        TOTAL FREE ENERGY PREDICTED BY IDOCK:   -7.22 KCAL/MOL
REMARK 923 INTER-LIGAND FREE ENERGY PREDICTED BY IDOCK:   -6.38 KCAL/MOL
REMARK 924 INTRA-LIGAND FREE ENERGY PREDICTED BY IDOCK:   -0.83 KCAL/MOL
REMARK 927      BINDING AFFINITY PREDICTED BY RF-SCORE:    0.00 PKD
ROOT
HETATM    1  C   UNL     1     -10.460  10.204  65.953  1.00  0.00    -0.071 C  
HETATM    2  S   UNL     1      -9.402  10.138  64.497  1.00  0.00    -0.310 SA 
HETATM    3  C   UNL     1      -8.510   8.678  65.080  1.00  0.00    -0.179 C  
HETATM    4  C   UNL     1      -7.948   8.820  66.488  1.00  0.00    -0.103 C  
HETATM    5  O   UNL     1      -8.153  10.741  69.578  1.00  0.00    -0.104 OA 
HETATM    6  CA  UNL     1      -8.525   9.619  67.437  1.00  0.00    -0.125 C  
HETATM    7  N   UNL     1      -9.628  10.370  67.132  1.00  0.00    -0.162 N  
HETATM    8  CA  UNL     1     -11.098  11.588  66.298  1.00  0.00    -0.263 C  
HETATM    9  C   UNL     1      -7.985   9.623  68.851  1.00  0.00    -0.089 C  
HETATM   10  O   UNL     1      -9.983  12.172  68.554  1.00  0.00    -0.210 OA 
HETATM   11  C   UNL     1     -10.236  11.479  67.596  1.00  0.00    -0.184 C  
HETATM   12  OXT UNL     1      -7.455   8.637  69.350  1.00  0.00    -0.077 OA 
ENDROOT
BRANCH   4  13
HETATM   13  C   UNL     1      -6.683   8.001  66.775  1.00  0.00    -0.064 C  
BRANCH  13  14
HETATM   14  S   UNL     1      -6.815   6.190  66.670  1.00  0.00    -0.064 SA 
BRANCH  14  15
HETATM   15  C   UNL     1      -7.604   5.794  68.177  1.00  0.00    -0.085 A  
HETATM   16  N   UNL     1      -6.947   5.411  69.252  1.00  0.00    -0.054 NA 
HETATM   17  S   UNL     1      -9.307   5.786  68.356  1.00  0.00    -0.123 SA 
HETATM   18  N   UNL     1      -7.792   5.048  70.280  1.00  0.00    -0.069 NA 
HETATM   19  C   UNL     1     -10.210   4.872  70.827  1.00  0.00    -0.276 C  
HETATM   20  C   UNL     1      -9.058   5.189  69.947  1.00  0.00    -0.123 A  
ENDBRANCH  14  15
ENDBRANCH  13  14
ENDBRANCH   4  13
BRANCH   8  21
HETATM   21  N   UNL     1     -10.740  12.759  65.431  1.00  0.00    -0.278 N  
HETATM   22  C   UNL     1     -11.580  13.849  65.336  1.00  0.00    -0.325 C  
HETATM   23  H   UNL     1      -9.867  12.748  64.905  1.00  0.00     0.000 HD 
HETATM   24  O   UNL     1     -12.563  13.981  66.063  1.00  0.00    -0.481 OA 
BRANCH  22  25
HETATM   25  C   UNL     1     -11.200  14.868  64.289  1.00  0.00    -0.010 C  
BRANCH  25  26
HETATM   26  N   UNL     1     -10.674  16.065  64.888  1.00  0.00    -0.631 NA 
HETATM   27  C   UNL     1      -9.609  16.215  65.716  1.00  0.00    -0.257 A  
HETATM   28  N   UNL     1      -9.425  17.498  65.927  1.00  0.00    -0.527 NA 
HETATM   29  N   UNL     1     -10.402  18.142  65.206  1.00  0.00    -0.217 NA 
HETATM   30  N   UNL     1     -11.165  17.273  64.557  1.00  0.00    -0.924 NA 
ENDBRANCH  25  26
ENDBRANCH  22  25
ENDBRANCH   8  21
TORSDOF 6
ENDMDL
MODEL      120
REMARK 921   NORMALIZED FREE ENERGY PREDICTED BY IDOCK:   -4.60 KCAL/MOL
REMARK 922        TOTAL FREE ENERGY PREDICTED BY IDOCK:   -7.20 KCAL/MOL
REMARK 923 INTER-LIGAND FREE ENERGY PREDICTED BY IDOCK:   -6.10 KCAL/MOL
REMARK 924 INTRA-LIGAND FREE ENERGY PREDICTED BY IDOCK:   -1.10 KCAL/MOL
REMARK 927      BINDING AFFINITY PREDICTED BY RF-SCORE:    0.00 PKD
ROOT
HETATM    1  C   UNL     1      -9.188   7.447  72.315  1.00  0.00    -0.132 C  
HETATM    2  S   UNL     1      -8.279   7.762  70.793  1.00  0.00    -0.109 SA 
HETATM    3  C   UNL     1      -8.946   9.433  70.615  1.00  0.00    -0.228 C  
HETATM    4  C   UNL     1     -10.465   9.501  70.683  1.00  0.00    -0.374 C  
HETATM    5  O   UNL     1     -13.467   7.701  71.698  1.00  0.00    -0.354 OA 
HETATM    6  CA  UNL     1     -11.214   8.602  71.393  1.00  0.00    -0.277 C  
HETATM    7  N   UNL     1     -10.611   7.561  72.045  1.00  0.00    -0.206 N  
HETATM    8  CA  UNL     1      -9.451   5.951  72.681  1.00  0.00    -0.146 C  
HETATM    9  C   UNL     1     -12.710   8.797  71.516  1.00  0.00    -0.328 C  
HETATM   10  O   UNL     1     -12.024   5.779  72.517  1.00  0.00    -0.275 OA 
HETATM   11  C   UNL     1     -10.953   6.342  72.502  1.00  0.00    -0.251 C  
HETATM   12  OXT UNL     1     -13.228   9.908  71.503  1.00  0.00    -0.373 OA 
ENDROOT
BRANCH   4  13
HETATM   13  C   UNL     1     -11.106  10.653  69.898  1.00  0.00    -0.298 C  
BRANCH  13  14
HETATM   14  S   UNL     1     -11.178  10.496  68.088  1.00  0.00    -0.254 SA 
BRANCH  14  15
HETATM   15  C   UNL     1     -10.573  12.049  67.564  1.00  0.00    -0.221 A  
HETATM   16  N   UNL     1      -9.296  12.369  67.594  1.00  0.00    -0.181 NA 
HETATM   17  S   UNL     1     -11.602  13.317  67.048  1.00  0.00    -0.380 SA 
HETATM   18  N   UNL     1      -9.078  13.683  67.236  1.00  0.00    -0.218 NA 
HETATM   19  C   UNL     1     -10.303  15.722  66.518  1.00  0.00    -0.298 C  
HETATM   20  C   UNL     1     -10.200  14.301  66.930  1.00  0.00    -0.266 A  
ENDBRANCH  14  15
ENDBRANCH  13  14
ENDBRANCH   4  13
BRANCH   8  21
HETATM   21  N   UNL     1      -8.980   4.902  71.719  1.00  0.00    -0.134 N  
HETATM   22  C   UNL     1      -9.152   3.562  71.997  1.00  0.00    -0.108 C  
HETATM   23  H   UNL     1      -8.527   5.183  70.850  1.00  0.00     0.000 HD 
HETATM   24  O   UNL     1      -9.825   3.174  72.949  1.00  0.00    -0.117 OA 
BRANCH  22  25
HETATM   25  C   UNL     1      -8.466   2.613  71.045  1.00  0.00    -0.058 C  
BRANCH  25  26
HETATM   26  N   UNL     1      -8.512   3.101  69.693  1.00  0.00    -0.058 NA 
HETATM   27  C   UNL     1      -9.404   2.822  68.708  1.00  0.00    -0.168 A  
HETATM   28  N   UNL     1      -9.125   3.576  67.670  1.00  0.00    -0.143 NA 
HETATM   29  N   UNL     1      -8.037   4.333  68.036  1.00  0.00    -0.089 NA 
HETATM   30  N   UNL     1      -7.661   4.056  69.277  1.00  0.00    -0.054 NA 
ENDBRANCH  25  26
ENDBRANCH  22  25
ENDBRANCH   8  21
TORSDOF 6
ENDMDL
MODEL      121
REMARK 921   NORMALIZED FREE ENERGY PREDICTED BY IDOCK:   -4.59 KCAL/MOL
REMARK 922        TOTAL FREE ENERGY PREDICTED BY IDOCK:   -7.19 KCAL/MOL
REMARK 923 INTER-LIGAND FREE ENERGY PREDICTED BY IDOCK:   -6.15 KCAL/MOL
REMARK 924 INTRA-LIGAND FREE ENERGY PREDICTED BY IDOCK:   -1.04 KCAL/MOL
REMARK 927      BINDING AFFINITY PREDICTED BY RF-SCORE:    0.00 PKD
ROOT
HETATM    1  C   UNL     1      -9.454  16.858  68.374  1.00  0.00    -0.258 C  
HETATM    2  S   UNL     1     -10.191  16.572  66.756  1.00  0.00    -0.299 SA 
HETATM    3  C   UNL     1     -10.402  14.800  67.047  1.00  0.00    -0.255 C  
HETATM    4  C   UNL     1      -9.131  14.095  67.498  1.00  0.00    -0.195 C  
HETATM    5  O   UNL     1      -5.797  14.596  68.883  1.00  0.00    -0.084 OA 
HETATM    6  CA  UNL     1      -8.141  14.729  68.199  1.00  0.00    -0.134 C  
HETATM    7  N   UNL     1      -8.244  16.063  68.487  1.00  0.00    -0.172 N  
HETATM    8  CA  UNL     1      -8.550  18.124  68.521  1.00  0.00    -0.294 C  
HETATM    9  C   UNL     1      -6.959  13.940  68.719  1.00  0.00    -0.108 C  
HETATM   10  O   UNL     1      -6.220  17.098  68.967  1.00  0.00    -0.172 OA 
HETATM   11  C   UNL     1      -7.417  17.082  68.790  1.00  0.00    -0.242 C  
HETATM   12  OXT UNL     1      -7.048  12.759  69.032  1.00  0.00    -0.093 OA 
ENDROOT
BRANCH   4  13
HETATM   13  C   UNL     1      -9.031  12.613  67.113  1.00  0.00    -0.205 C  
BRANCH  13  14
HETATM   14  S   UNL     1     -10.458  11.551  67.493  1.00  0.00    -0.207 SA 
BRANCH  14  15
HETATM   15  C   UNL     1      -9.838  10.557  68.788  1.00  0.00    -0.186 A  
HETATM   16  N   UNL     1      -8.665   9.959  68.737  1.00  0.00    -0.126 NA 
HETATM   17  S   UNL     1     -10.742  10.206  70.199  1.00  0.00    -0.286 SA 
HETATM   18  N   UNL     1      -8.446   9.144  69.827  1.00  0.00    -0.128 NA 
HETATM   19  C   UNL     1      -9.530   8.396  71.935  1.00  0.00    -0.323 C  
HETATM   20  C   UNL     1      -9.455   9.172  70.672  1.00  0.00    -0.261 A  
ENDBRANCH  14  15
ENDBRANCH  13  14
ENDBRANCH   4  13
BRANCH   8  21
HETATM   21  N   UNL     1      -8.321  18.966  67.302  1.00  0.00    -0.269 N  
HETATM   22  C   UNL     1      -7.551  20.109  67.368  1.00  0.00    -0.299 C  
HETATM   23  H   UNL     1      -8.739  18.691  66.413  1.00  0.00     0.000 HD 
HETATM   24  O   UNL     1      -6.901  20.401  68.369  1.00  0.00    -0.281 OA 
BRANCH  22  25
HETATM   25  C   UNL     1      -7.558  20.964  66.124  1.00  0.00     0.324 C  
BRANCH  25  26
HETATM   26  N   UNL     1      -6.712  20.410  65.101  1.00  0.00    -0.297 NA 
HETATM   27  C   UNL     1      -5.854  21.042  64.261  1.00  0.00    -0.270 A  
HETATM   28  N   UNL     1      -5.207  20.133  63.568  1.00  0.00    -0.190 NA 
HETATM   29  N   UNL     1      -5.684  18.918  64.002  1.00  0.00    -0.356 NA 
HETATM   30  N   UNL     1      -6.599  19.078  64.949  1.00  0.00    -0.481 NA 
ENDBRANCH  25  26
ENDBRANCH  22  25
ENDBRANCH   8  21
TORSDOF 6
ENDMDL
MODEL      122
REMARK 921   NORMALIZED FREE ENERGY PREDICTED BY IDOCK:   -4.59 KCAL/MOL
REMARK 922        TOTAL FREE ENERGY PREDICTED BY IDOCK:   -7.18 KCAL/MOL
REMARK 923 INTER-LIGAND FREE ENERGY PREDICTED BY IDOCK:   -8.24 KCAL/MOL
REMARK 924 INTRA-LIGAND FREE ENERGY PREDICTED BY IDOCK:    1.06 KCAL/MOL
REMARK 927      BINDING AFFINITY PREDICTED BY RF-SCORE:    0.00 PKD
ROOT
HETATM    1  C   UNL     1     -10.438  16.172  66.768  1.00  0.00    -0.294 C  
HETATM    2  S   UNL     1     -10.683  17.621  67.808  1.00  0.00    -0.249 SA 
HETATM    3  C   UNL     1      -9.068  18.322  67.398  1.00  0.00    -0.253 C  
HETATM    4  C   UNL     1      -7.908  17.359  67.606  1.00  0.00    -0.199 C  
HETATM    5  O   UNL     1      -7.010  13.854  68.046  1.00  0.00    -0.106 OA 
HETATM    6  CA  UNL     1      -8.045  16.002  67.499  1.00  0.00    -0.148 C  
HETATM    7  N   UNL     1      -9.269  15.449  67.238  1.00  0.00    -0.203 N  
HETATM    8  CA  UNL     1     -11.277  14.902  67.121  1.00  0.00    -0.343 C  
HETATM    9  C   UNL     1      -6.827  15.109  67.600  1.00  0.00    -0.180 C  
HETATM   10  O   UNL     1      -9.459  13.213  67.841  1.00  0.00    -0.203 OA 
HETATM   11  C   UNL     1      -9.881  14.261  67.410  1.00  0.00    -0.235 C  
HETATM   12  OXT UNL     1      -5.713  15.481  67.248  1.00  0.00    -0.336 OA 
ENDROOT
BRANCH   4  13
HETATM   13  C   UNL     1      -6.563  18.015  67.945  1.00  0.00    -0.193 C  
BRANCH  13  14
HETATM   14  S   UNL     1      -6.452  19.824  67.798  1.00  0.00    -0.230 SA 
BRANCH  14  15
HETATM   15  C   UNL     1      -6.042  20.028  66.112  1.00  0.00    -0.175 A  
HETATM   16  N   UNL     1      -6.154  21.177  65.480  1.00  0.00    -0.229 NA 
HETATM   17  S   UNL     1      -5.540  18.726  65.119  1.00  0.00    -0.238 SA 
HETATM   18  N   UNL     1      -5.877  21.062  64.133  1.00  0.00    -0.277 NA 
HETATM   19  C   UNL     1      -5.204  19.380  62.432  1.00  0.00    -0.352 C  
HETATM   20  C   UNL     1      -5.547  19.831  63.803  1.00  0.00    -0.276 A  
ENDBRANCH  14  15
ENDBRANCH  13  14
ENDBRANCH   4  13
BRANCH   8  21
HETATM   21  N   UNL     1     -12.173  14.967  68.321  1.00  0.00    -0.576 N  
HETATM   22  C   UNL     1     -11.645  15.013  69.594  1.00  0.00    -0.304 C  
HETATM   23  H   UNL     1     -13.185  14.977  68.194  1.00  0.00     0.000 HD 
HETATM   24  O   UNL     1     -10.442  15.159  69.797  1.00  0.00    -0.250 OA 
BRANCH  22  25
HETATM   25  C   UNL     1     -12.648  14.882  70.714  1.00  0.00    -0.354 C  
BRANCH  25  26
HETATM   26  N   UNL     1     -12.759  13.520  71.163  1.00  0.00    -0.354 NA 
HETATM   27  C   UNL     1     -13.439  13.018  72.225  1.00  0.00    -0.547 A  
HETATM   28  N   UNL     1     -13.354  11.708  72.191  1.00  0.00    -0.394 NA 
HETATM   29  N   UNL     1     -12.604  11.408  71.078  1.00  0.00    -0.404 NA 
HETATM   30  N   UNL     1     -12.244  12.511  70.436  1.00  0.00    -0.333 NA 
ENDBRANCH  25  26
ENDBRANCH  22  25
ENDBRANCH   8  21
TORSDOF 6
ENDMDL
MODEL      123
REMARK 921   NORMALIZED FREE ENERGY PREDICTED BY IDOCK:   -4.58 KCAL/MOL
REMARK 922        TOTAL FREE ENERGY PREDICTED BY IDOCK:   -7.16 KCAL/MOL
REMARK 923 INTER-LIGAND FREE ENERGY PREDICTED BY IDOCK:   -6.10 KCAL/MOL
REMARK 924 INTRA-LIGAND FREE ENERGY PREDICTED BY IDOCK:   -1.06 KCAL/MOL
REMARK 927      BINDING AFFINITY PREDICTED BY RF-SCORE:    0.00 PKD
ROOT
HETATM    1  C   UNL     1      -9.923  10.508  65.086  1.00  0.00    -0.309 C  
HETATM    2  S   UNL     1      -8.164  10.367  64.727  1.00  0.00    -0.104 SA 
HETATM    3  C   UNL     1      -8.232   8.568  64.563  1.00  0.00    -0.156 C  
HETATM    4  C   UNL     1      -8.880   7.865  65.747  1.00  0.00    -0.155 C  
HETATM    5  O   UNL     1     -10.999   8.336  68.674  1.00  0.00     0.014 OA 
HETATM    6  CA  UNL     1      -9.836   8.457  66.526  1.00  0.00    -0.268 C  
HETATM    7  N   UNL     1     -10.221   9.749  66.288  1.00  0.00    -0.238 N  
HETATM    8  CA  UNL     1     -10.384  11.782  65.863  1.00  0.00    -0.241 C  
HETATM    9  C   UNL     1     -10.524   7.661  67.614  1.00  0.00    -0.244 C  
HETATM   10  O   UNL     1     -11.226  10.799  68.099  1.00  0.00    -0.260 OA 
HETATM   11  C   UNL     1     -10.792  10.759  66.971  1.00  0.00    -0.252 C  
HETATM   12  OXT UNL     1     -10.696   6.450  67.528  1.00  0.00    -0.238 OA 
ENDROOT
BRANCH   4  13
HETATM   13  C   UNL     1      -8.387   6.437  66.012  1.00  0.00    -0.132 C  
BRANCH  13  14
HETATM   14  S   UNL     1      -6.834   6.244  66.938  1.00  0.00    -0.064 SA 
BRANCH  14  15
HETATM   15  C   UNL     1      -7.372   6.420  68.591  1.00  0.00    -0.087 A  
HETATM   16  N   UNL     1      -7.375   7.573  69.226  1.00  0.00    -0.086 NA 
HETATM   17  S   UNL     1      -7.858   5.088  69.552  1.00  0.00    -0.068 SA 
HETATM   18  N   UNL     1      -7.736   7.440  70.550  1.00  0.00    -0.094 NA 
HETATM   19  C   UNL     1      -8.418   5.717  72.207  1.00  0.00    -0.122 C  
HETATM   20  C   UNL     1      -8.011   6.190  70.861  1.00  0.00    -0.116 A  
ENDBRANCH  14  15
ENDBRANCH  13  14
ENDBRANCH   4  13
BRANCH   8  21
HETATM   21  N   UNL     1      -9.329  12.756  66.298  1.00  0.00    -0.391 N  
HETATM   22  C   UNL     1      -9.675  14.002  66.777  1.00  0.00    -0.278 C  
HETATM   23  H   UNL     1      -8.346  12.494  66.238  1.00  0.00     0.000 HD 
HETATM   24  O   UNL     1     -10.841  14.310  67.015  1.00  0.00    -0.290 OA 
BRANCH  22  25
HETATM   25  C   UNL     1      -8.522  14.951  66.998  1.00  0.00    -0.231 C  
BRANCH  25  26
HETATM   26  N   UNL     1      -8.944  16.323  66.900  1.00  0.00    -0.204 NA 
HETATM   27  C   UNL     1      -9.031  17.266  67.872  1.00  0.00    -0.235 A  
HETATM   28  N   UNL     1      -9.356  18.409  67.313  1.00  0.00    -0.267 NA 
HETATM   29  N   UNL     1      -9.466  18.152  65.967  1.00  0.00    -0.519 NA 
HETATM   30  N   UNL     1      -9.205  16.879  65.703  1.00  0.00    -0.466 NA 
ENDBRANCH  25  26
ENDBRANCH  22  25
ENDBRANCH   8  21
TORSDOF 6
ENDMDL
MODEL      124
REMARK 921   NORMALIZED FREE ENERGY PREDICTED BY IDOCK:   -4.57 KCAL/MOL
REMARK 922        TOTAL FREE ENERGY PREDICTED BY IDOCK:   -7.16 KCAL/MOL
REMARK 923 INTER-LIGAND FREE ENERGY PREDICTED BY IDOCK:   -6.88 KCAL/MOL
REMARK 924 INTRA-LIGAND FREE ENERGY PREDICTED BY IDOCK:   -0.28 KCAL/MOL
REMARK 927      BINDING AFFINITY PREDICTED BY RF-SCORE:    0.00 PKD
ROOT
HETATM    1  C   UNL     1     -11.584  11.630  67.477  1.00  0.00    -0.272 C  
HETATM    2  S   UNL     1      -9.998  11.163  66.765  1.00  0.00    -0.214 SA 
HETATM    3  C   UNL     1     -10.235   9.406  67.118  1.00  0.00    -0.254 C  
HETATM    4  C   UNL     1     -10.593   9.112  68.568  1.00  0.00    -0.209 C  
HETATM    5  O   UNL     1     -11.820  10.578  71.671  1.00  0.00    -0.187 OA 
HETATM    6  CA  UNL     1     -11.264  10.004  69.359  1.00  0.00    -0.188 C  
HETATM    7  N   UNL     1     -11.605  11.238  68.876  1.00  0.00    -0.290 N  
HETATM    8  CA  UNL     1     -11.730  13.108  67.963  1.00  0.00    -0.355 C  
HETATM    9  C   UNL     1     -11.693   9.603  70.755  1.00  0.00    -0.314 C  
HETATM   10  O   UNL     1     -12.016  12.831  70.516  1.00  0.00    -0.320 OA 
HETATM   11  C   UNL     1     -11.901  12.455  69.372  1.00  0.00    -0.304 C  
HETATM   12  OXT UNL     1     -11.967   8.445  71.046  1.00  0.00    -0.287 OA 
ENDROOT
BRANCH   4  13
HETATM   13  C   UNL     1     -10.150   7.738  69.088  1.00  0.00    -0.196 C  
BRANCH  13  14
HETATM   14  S   UNL     1     -10.948   6.272  68.366  1.00  0.00    -0.273 SA 
BRANCH  14  15
HETATM   15  C   UNL     1      -9.576   5.365  67.777  1.00  0.00    -0.128 A  
HETATM   16  N   UNL     1      -9.352   5.152  66.497  1.00  0.00    -0.135 NA 
HETATM   17  S   UNL     1      -8.455   4.601  68.822  1.00  0.00    -0.085 SA 
HETATM   18  N   UNL     1      -8.274   4.319  66.286  1.00  0.00    -0.102 NA 
HETATM   19  C   UNL     1      -6.540   3.045  67.530  1.00  0.00    -0.037 C  
HETATM   20  C   UNL     1      -7.712   3.948  67.417  1.00  0.00    -0.079 A  
ENDBRANCH  14  15
ENDBRANCH  13  14
ENDBRANCH   4  13
BRANCH   8  21
HETATM   21  N   UNL     1     -10.531  14.002  67.852  1.00  0.00    -0.238 N  
HETATM   22  C   UNL     1     -10.198  14.590  66.649  1.00  0.00    -0.275 C  
HETATM   23  H   UNL     1      -9.956  14.178  68.676  1.00  0.00     0.000 HD 
HETATM   24  O   UNL     1     -10.940  14.537  65.671  1.00  0.00    -0.303 OA 
BRANCH  22  25
HETATM   25  C   UNL     1      -8.870  15.306  66.627  1.00  0.00    -0.293 C  
BRANCH  25  26
HETATM   26  N   UNL     1      -9.042  16.726  66.467  1.00  0.00    -0.255 NA 
HETATM   27  C   UNL     1     -10.175  17.432  66.223  1.00  0.00    -0.341 A  
HETATM   28  N   UNL     1      -9.884  18.711  66.264  1.00  0.00    -0.414 NA 
HETATM   29  N   UNL     1      -8.539  18.783  66.543  1.00  0.00    -0.299 NA 
HETATM   30  N   UNL     1      -8.017  17.571  66.680  1.00  0.00    -0.234 NA 
ENDBRANCH  25  26
ENDBRANCH  22  25
ENDBRANCH   8  21
TORSDOF 6
ENDMDL
MODEL      125
REMARK 921   NORMALIZED FREE ENERGY PREDICTED BY IDOCK:   -4.54 KCAL/MOL
REMARK 922        TOTAL FREE ENERGY PREDICTED BY IDOCK:   -7.12 KCAL/MOL
REMARK 923 INTER-LIGAND FREE ENERGY PREDICTED BY IDOCK:   -6.16 KCAL/MOL
REMARK 924 INTRA-LIGAND FREE ENERGY PREDICTED BY IDOCK:   -0.96 KCAL/MOL
REMARK 927      BINDING AFFINITY PREDICTED BY RF-SCORE:    0.00 PKD
ROOT
HETATM    1  C   UNL     1     -11.335  11.109  65.684  1.00  0.00     0.200 C  
HETATM    2  S   UNL     1      -9.775  11.285  64.803  1.00  0.00    -0.256 SA 
HETATM    3  C   UNL     1      -9.272   9.581  65.135  1.00  0.00    -0.244 C  
HETATM    4  C   UNL     1      -9.335   9.195  66.605  1.00  0.00    -0.228 C  
HETATM    5  O   UNL     1     -10.709  10.118  69.853  1.00  0.00    -0.255 OA 
HETATM    6  CA  UNL     1     -10.215   9.768  67.483  1.00  0.00    -0.220 C  
HETATM    7  N   UNL     1     -11.057  10.763  67.067  1.00  0.00    -0.235 N  
HETATM    8  CA  UNL     1     -11.993  12.421  66.219  1.00  0.00    -0.298 C  
HETATM    9  C   UNL     1     -10.308   9.255  68.904  1.00  0.00    -0.214 C  
HETATM   10  O   UNL     1     -11.884  12.097  68.781  1.00  0.00    -0.305 OA 
HETATM   11  C   UNL     1     -11.751  11.776  67.622  1.00  0.00    -0.250 C  
HETATM   12  OXT UNL     1     -10.077   8.086  69.192  1.00  0.00    -0.190 OA 
ENDROOT
BRANCH   4  13
HETATM   13  C   UNL     1      -8.342   8.111  67.043  1.00  0.00    -0.116 C  
BRANCH  13  14
HETATM   14  S   UNL     1      -7.805   6.910  65.788  1.00  0.00    -0.112 SA 
BRANCH  14  15
HETATM   15  C   UNL     1      -8.010   5.391  66.626  1.00  0.00    -0.105 A  
HETATM   16  N   UNL     1      -7.023   4.543  66.826  1.00  0.00    -0.062 NA 
HETATM   17  S   UNL     1      -9.533   4.839  67.181  1.00  0.00    -0.160 SA 
HETATM   18  N   UNL     1      -7.453   3.369  67.410  1.00  0.00    -0.066 NA 
HETATM   19  C   UNL     1      -9.515   2.269  68.254  1.00  0.00    -0.227 C  
HETATM   20  C   UNL     1      -8.748   3.384  67.646  1.00  0.00    -0.111 A  
ENDBRANCH  14  15
ENDBRANCH  13  14
ENDBRANCH   4  13
BRANCH   8  21
HETATM   21  N   UNL     1     -11.256  13.710  66.010  1.00  0.00    -0.294 N  
HETATM   22  C   UNL     1     -11.877  14.790  65.417  1.00  0.00    -0.249 C  
HETATM   23  H   UNL     1     -10.284  13.789  66.309  1.00  0.00     0.000 HD 
HETATM   24  O   UNL     1     -13.083  14.800  65.181  1.00  0.00    -0.290 OA 
BRANCH  22  25
HETATM   25  C   UNL     1     -10.974  15.954  65.091  1.00  0.00    -0.377 C  
BRANCH  25  26
HETATM   26  N   UNL     1     -10.574  16.658  66.281  1.00  0.00    -0.254 NA 
HETATM   27  C   UNL     1      -9.907  17.833  66.401  1.00  0.00    -0.324 A  
HETATM   28  N   UNL     1      -9.856  18.154  67.673  1.00  0.00    -0.301 NA 
HETATM   29  N   UNL     1     -10.511  17.147  68.342  1.00  0.00    -0.356 NA 
HETATM   30  N   UNL     1     -10.964  16.231  67.496  1.00  0.00    -0.260 NA 
ENDBRANCH  25  26
ENDBRANCH  22  25
ENDBRANCH   8  21
TORSDOF 6
ENDMDL
MODEL      126
REMARK 921   NORMALIZED FREE ENERGY PREDICTED BY IDOCK:   -4.54 KCAL/MOL
REMARK 922        TOTAL FREE ENERGY PREDICTED BY IDOCK:   -7.11 KCAL/MOL
REMARK 923 INTER-LIGAND FREE ENERGY PREDICTED BY IDOCK:   -6.25 KCAL/MOL
REMARK 924 INTRA-LIGAND FREE ENERGY PREDICTED BY IDOCK:   -0.86 KCAL/MOL
REMARK 927      BINDING AFFINITY PREDICTED BY RF-SCORE:    0.00 PKD
ROOT
HETATM    1  C   UNL     1      -7.952  11.503  68.489  1.00  0.00    -0.143 C  
HETATM    2  S   UNL     1      -7.155  12.664  67.367  1.00  0.00    -0.105 SA 
HETATM    3  C   UNL     1      -7.944  14.103  68.124  1.00  0.00    -0.143 C  
HETATM    4  C   UNL     1      -9.458  13.989  68.235  1.00  0.00    -0.216 C  
HETATM    5  O   UNL     1     -12.267  11.667  68.153  1.00  0.00    -0.537 OA 
HETATM    6  CA  UNL     1     -10.102  12.787  68.357  1.00  0.00    -0.226 C  
HETATM    7  N   UNL     1      -9.392  11.617  68.339  1.00  0.00    -0.194 N  
HETATM    8  CA  UNL     1      -8.090  10.027  67.994  1.00  0.00    -0.112 C  
HETATM    9  C   UNL     1     -11.598  12.751  68.583  1.00  0.00    -0.314 C  
HETATM   10  O   UNL     1     -10.650   9.742  67.791  1.00  0.00    -0.233 OA 
HETATM   11  C   UNL     1      -9.623  10.318  68.070  1.00  0.00    -0.145 C  
HETATM   12  OXT UNL     1     -12.191  13.645  69.176  1.00  0.00    -0.326 OA 
ENDROOT
BRANCH   4  13
HETATM   13  C   UNL     1     -10.221  15.319  68.203  1.00  0.00    -0.230 C  
BRANCH  13  14
HETATM   14  S   UNL     1     -10.520  16.074  66.575  1.00  0.00    -0.287 SA 
BRANCH  14  15
HETATM   15  C   UNL     1     -10.946  14.688  65.603  1.00  0.00    -0.335 A  
HETATM   16  N   UNL     1     -10.077  14.043  64.852  1.00  0.00    -0.338 NA 
HETATM   17  S   UNL     1     -12.551  14.103  65.478  1.00  0.00    -0.411 SA 
HETATM   18  N   UNL     1     -10.672  13.056  64.094  1.00  0.00    -0.408 NA 
HETATM   19  C   UNL     1     -12.891  12.029  63.651  1.00  0.00    -0.472 C  
HETATM   20  C   UNL     1     -11.968  12.979  64.317  1.00  0.00    -0.402 A  
ENDBRANCH  14  15
ENDBRANCH  13  14
ENDBRANCH   4  13
BRANCH   8  21
HETATM   21  N   UNL     1      -7.603   9.704  66.613  1.00  0.00    -0.097 N  
HETATM   22  C   UNL     1      -7.762   8.439  66.087  1.00  0.00    -0.097 C  
HETATM   23  H   UNL     1      -7.150  10.429  66.056  1.00  0.00     0.000 HD 
HETATM   24  O   UNL     1      -8.435   7.578  66.650  1.00  0.00    -0.121 OA 
BRANCH  22  25
HETATM   25  C   UNL     1      -7.061   8.194  64.773  1.00  0.00    -0.079 C  
BRANCH  25  26
HETATM   26  N   UNL     1      -6.921   6.787  64.507  1.00  0.00    -0.055 NA 
HETATM   27  C   UNL     1      -6.042   5.897  65.032  1.00  0.00    -0.026 A  
HETATM   28  N   UNL     1      -6.347   4.700  64.587  1.00  0.00    -0.033 NA 
HETATM   29  N   UNL     1      -7.442   4.869  63.773  1.00  0.00    -0.058 NA 
HETATM   30  N   UNL     1      -7.807   6.143  63.725  1.00  0.00    -0.109 NA 
ENDBRANCH  25  26
ENDBRANCH  22  25
ENDBRANCH   8  21
TORSDOF 6
ENDMDL
MODEL      127
REMARK 921   NORMALIZED FREE ENERGY PREDICTED BY IDOCK:   -4.53 KCAL/MOL
REMARK 922        TOTAL FREE ENERGY PREDICTED BY IDOCK:   -7.10 KCAL/MOL
REMARK 923 INTER-LIGAND FREE ENERGY PREDICTED BY IDOCK:   -6.13 KCAL/MOL
REMARK 924 INTRA-LIGAND FREE ENERGY PREDICTED BY IDOCK:   -0.96 KCAL/MOL
REMARK 927      BINDING AFFINITY PREDICTED BY RF-SCORE:    0.00 PKD
ROOT
HETATM    1  C   UNL     1     -10.042   6.669  66.956  1.00  0.00    -0.187 C  
HETATM    2  S   UNL     1     -10.529   8.115  67.912  1.00  0.00    -0.160 SA 
HETATM    3  C   UNL     1     -10.573   9.192  66.462  1.00  0.00    -0.026 C  
HETATM    4  C   UNL     1      -9.299   9.159  65.631  1.00  0.00    -0.300 C  
HETATM    5  O   UNL     1      -6.247   7.282  64.961  1.00  0.00    -0.037 OA 
HETATM    6  CA  UNL     1      -8.485   8.061  65.568  1.00  0.00    -0.144 C  
HETATM    7  N   UNL     1      -8.774   6.943  66.303  1.00  0.00    -0.138 N  
HETATM    8  CA  UNL     1      -9.312   5.525  67.732  1.00  0.00    -0.113 C  
HETATM    9  C   UNL     1      -7.297   8.053  64.630  1.00  0.00    -0.084 C  
HETATM   10  O   UNL     1      -6.958   5.540  66.667  1.00  0.00    -0.062 OA 
HETATM   11  C   UNL     1      -8.113   5.878  66.795  1.00  0.00    -0.102 C  
HETATM   12  OXT UNL     1      -7.291   8.681  63.577  1.00  0.00    -0.096 OA 
ENDROOT
BRANCH   4  13
HETATM   13  C   UNL     1      -8.984  10.448  64.860  1.00  0.00    -0.199 C  
BRANCH  13  14
HETATM   14  S   UNL     1     -10.329  11.195  63.891  1.00  0.00    -0.392 SA 
BRANCH  14  15
HETATM   15  C   UNL     1     -10.722  12.607  64.841  1.00  0.00    -0.299 A  
HETATM   16  N   UNL     1     -10.385  13.829  64.484  1.00  0.00    -0.399 NA 
HETATM   17  S   UNL     1     -11.505  12.510  66.361  1.00  0.00    -0.384 SA 
HETATM   18  N   UNL     1     -10.708  14.762  65.448  1.00  0.00    -0.344 NA 
HETATM   19  C   UNL     1     -11.753  14.942  67.695  1.00  0.00    -0.329 C  
HETATM   20  C   UNL     1     -11.295  14.210  66.489  1.00  0.00    -0.341 A  
ENDBRANCH  14  15
ENDBRANCH  13  14
ENDBRANCH   4  13
BRANCH   8  21
HETATM   21  N   UNL     1      -9.027   5.739  69.188  1.00  0.00    -0.118 N  
HETATM   22  C   UNL     1      -9.345   4.772  70.119  1.00  0.00    -0.155 C  
HETATM   23  H   UNL     1      -8.592   6.610  69.494  1.00  0.00     0.000 HD 
HETATM   24  O   UNL     1      -9.725   3.651  69.791  1.00  0.00    -0.185 OA 
BRANCH  22  25
HETATM   25  C   UNL     1      -9.184   5.188  71.561  1.00  0.00    -0.146 C  
BRANCH  25  26
HETATM   26  N   UNL     1     -10.163   6.173  71.937  1.00  0.00    -0.197 NA 
HETATM   27  C   UNL     1     -10.073   7.166  72.857  1.00  0.00    -0.210 A  
HETATM   28  N   UNL     1     -11.162   7.896  72.789  1.00  0.00    -0.399 NA 
HETATM   29  N   UNL     1     -11.932   7.331  71.799  1.00  0.00    -0.294 NA 
HETATM   30  N   UNL     1     -11.323   6.281  71.264  1.00  0.00    -0.297 NA 
ENDBRANCH  25  26
ENDBRANCH  22  25
ENDBRANCH   8  21
TORSDOF 6
ENDMDL
MODEL      128
REMARK 921   NORMALIZED FREE ENERGY PREDICTED BY IDOCK:   -4.52 KCAL/MOL
REMARK 922        TOTAL FREE ENERGY PREDICTED BY IDOCK:   -7.08 KCAL/MOL
REMARK 923 INTER-LIGAND FREE ENERGY PREDICTED BY IDOCK:   -5.48 KCAL/MOL
REMARK 924 INTRA-LIGAND FREE ENERGY PREDICTED BY IDOCK:   -1.60 KCAL/MOL
REMARK 927      BINDING AFFINITY PREDICTED BY RF-SCORE:    0.00 PKD
ROOT
HETATM    1  C   UNL     1     -12.298  11.518  69.162  1.00  0.00    -0.004 C  
HETATM    2  S   UNL     1     -11.803  12.877  70.234  1.00  0.00    -0.122 SA 
HETATM    3  C   UNL     1     -12.109  14.130  68.967  1.00  0.00    -0.313 C  
HETATM    4  C   UNL     1     -11.418  13.847  67.641  1.00  0.00    -0.354 C  
HETATM    5  O   UNL     1      -9.794  11.271  65.638  1.00  0.00    -0.214 OA 
HETATM    6  CA  UNL     1     -11.136  12.579  67.210  1.00  0.00    -0.274 C  
HETATM    7  N   UNL     1     -11.432  11.499  67.996  1.00  0.00    -0.299 N  
HETATM    8  CA  UNL     1     -11.737  10.103  69.514  1.00  0.00    -0.061 C  
HETATM    9  C   UNL     1     -10.555  12.362  65.829  1.00  0.00    -0.256 C  
HETATM   10  O   UNL     1     -10.230   9.579  67.481  1.00  0.00    -0.197 OA 
HETATM   11  C   UNL     1     -11.024  10.222  68.128  1.00  0.00    -0.274 C  
HETATM   12  OXT UNL     1     -10.798  13.115  64.893  1.00  0.00    -0.302 OA 
ENDROOT
BRANCH   4  13
HETATM   13  C   UNL     1     -11.057  15.086  66.811  1.00  0.00    -0.326 C  
BRANCH  13  14
HETATM   14  S   UNL     1      -9.869  16.260  67.531  1.00  0.00    -0.242 SA 
BRANCH  14  15
HETATM   15  C   UNL     1      -8.667  15.191  68.211  1.00  0.00    -0.171 A  
HETATM   16  N   UNL     1      -8.501  15.029  69.507  1.00  0.00    -0.143 NA 
HETATM   17  S   UNL     1      -7.544  14.330  67.247  1.00  0.00     0.010 SA 
HETATM   18  N   UNL     1      -7.421  14.223  69.799  1.00  0.00     0.154 NA 
HETATM   19  C   UNL     1      -5.624  12.915  68.686  1.00  0.00    -0.068 C  
HETATM   20  C   UNL     1      -6.822  13.790  68.709  1.00  0.00    -0.106 A  
ENDBRANCH  14  15
ENDBRANCH  13  14
ENDBRANCH   4  13
BRANCH   8  21
HETATM   21  N   UNL     1     -10.791   9.994  70.673  1.00  0.00    -0.319 N  
HETATM   22  C   UNL     1     -10.401   8.760  71.150  1.00  0.00    -0.246 C  
HETATM   23  H   UNL     1     -10.433  10.842  71.113  1.00  0.00     0.000 HD 
HETATM   24  O   UNL     1     -10.677   7.716  70.564  1.00  0.00    -0.226 OA 
BRANCH  22  25
HETATM   25  C   UNL     1      -9.605   8.787  72.433  1.00  0.00    -0.126 C  
BRANCH  25  26
HETATM   26  N   UNL     1      -8.192   8.864  72.173  1.00  0.00    -0.368 NA 
HETATM   27  C   UNL     1      -7.170   8.210  72.780  1.00  0.00    -0.107 A  
HETATM   28  N   UNL     1      -6.057   8.500  72.147  1.00  0.00    -0.063 NA 
HETATM   29  N   UNL     1      -6.415   9.351  71.127  1.00  0.00    -0.158 NA 
HETATM   30  N   UNL     1      -7.722   9.571  71.129  1.00  0.00    -0.302 NA 
ENDBRANCH  25  26
ENDBRANCH  22  25
ENDBRANCH   8  21
TORSDOF 6
ENDMDL
MODEL      129
REMARK 921   NORMALIZED FREE ENERGY PREDICTED BY IDOCK:   -4.51 KCAL/MOL
REMARK 922        TOTAL FREE ENERGY PREDICTED BY IDOCK:   -7.07 KCAL/MOL
REMARK 923 INTER-LIGAND FREE ENERGY PREDICTED BY IDOCK:   -5.99 KCAL/MOL
REMARK 924 INTRA-LIGAND FREE ENERGY PREDICTED BY IDOCK:   -1.08 KCAL/MOL
REMARK 927      BINDING AFFINITY PREDICTED BY RF-SCORE:    0.00 PKD
ROOT
HETATM    1  C   UNL     1      -7.454   8.464  67.779  1.00  0.00    -0.098 C  
HETATM    2  S   UNL     1      -8.606   9.065  69.025  1.00  0.00    -0.136 SA 
HETATM    3  C   UNL     1      -8.010   7.914  70.285  1.00  0.00    -0.102 C  
HETATM    4  C   UNL     1      -7.988   6.461  69.832  1.00  0.00    -0.116 C  
HETATM    5  O   UNL     1      -8.077   4.264  66.926  1.00  0.00    -0.100 OA 
HETATM    6  CA  UNL     1      -7.819   6.098  68.524  1.00  0.00    -0.104 C  
HETATM    7  N   UNL     1      -7.704   7.051  67.550  1.00  0.00    -0.109 N  
HETATM    8  CA  UNL     1      -7.846   8.702  66.285  1.00  0.00    -0.102 C  
HETATM    9  C   UNL     1      -7.687   4.634  68.158  1.00  0.00    -0.081 C  
HETATM   10  O   UNL     1      -8.190   6.296  65.407  1.00  0.00    -0.132 OA 
HETATM   11  C   UNL     1      -7.889   7.141  66.219  1.00  0.00    -0.107 C  
HETATM   12  OXT UNL     1      -7.201   3.810  68.924  1.00  0.00    -0.050 OA 
ENDROOT
BRANCH   4  13
HETATM   13  C   UNL     1      -8.168   5.423  70.947  1.00  0.00    -0.117 C  
BRANCH  13  14
HETATM   14  S   UNL     1      -9.844   4.771  71.222  1.00  0.00    -0.195 SA 
BRANCH  14  15
HETATM   15  C   UNL     1     -10.711   6.199  71.732  1.00  0.00    -0.242 A  
HETATM   16  N   UNL     1     -10.456   6.829  72.860  1.00  0.00    -0.217 NA 
HETATM   17  S   UNL     1     -12.026   6.847  70.847  1.00  0.00    -0.361 SA 
HETATM   18  N   UNL     1     -11.344   7.858  73.095  1.00  0.00    -0.286 NA 
HETATM   19  C   UNL     1     -13.318   8.981  72.086  1.00  0.00    -0.510 C  
HETATM   20  C   UNL     1     -12.226   7.978  72.124  1.00  0.00    -0.331 A  
ENDBRANCH  14  15
ENDBRANCH  13  14
ENDBRANCH   4  13
BRANCH   8  21
HETATM   21  N   UNL     1      -9.165   9.357  66.004  1.00  0.00    -0.183 N  
HETATM   22  C   UNL     1      -9.349  10.111  64.863  1.00  0.00    -0.254 C  
HETATM   23  H   UNL     1      -9.935   9.243  66.663  1.00  0.00     0.000 HD 
HETATM   24  O   UNL     1      -8.510  10.152  63.966  1.00  0.00    -0.164 OA 
BRANCH  22  25
HETATM   25  C   UNL     1     -10.652  10.870  64.795  1.00  0.00    -0.246 C  
BRANCH  25  26
HETATM   26  N   UNL     1     -10.458  12.271  65.055  1.00  0.00    -0.281 NA 
HETATM   27  C   UNL     1     -10.909  13.345  64.358  1.00  0.00    -0.406 A  
HETATM   28  N   UNL     1     -10.589  14.433  65.019  1.00  0.00    -0.408 NA 
HETATM   29  N   UNL     1      -9.929  14.008  66.148  1.00  0.00    -0.303 NA 
HETATM   30  N   UNL     1      -9.854  12.684  66.184  1.00  0.00    -0.258 NA 
ENDBRANCH  25  26
ENDBRANCH  22  25
ENDBRANCH   8  21
TORSDOF 6
ENDMDL
MODEL      130
REMARK 921   NORMALIZED FREE ENERGY PREDICTED BY IDOCK:   -4.51 KCAL/MOL
REMARK 922        TOTAL FREE ENERGY PREDICTED BY IDOCK:   -7.07 KCAL/MOL
REMARK 923 INTER-LIGAND FREE ENERGY PREDICTED BY IDOCK:   -6.09 KCAL/MOL
REMARK 924 INTRA-LIGAND FREE ENERGY PREDICTED BY IDOCK:   -0.98 KCAL/MOL
REMARK 927      BINDING AFFINITY PREDICTED BY RF-SCORE:    0.00 PKD
ROOT
HETATM    1  C   UNL     1     -10.131  16.197  67.635  1.00  0.00    -0.248 C  
HETATM    2  S   UNL     1     -10.277  16.073  65.845  1.00  0.00    -0.384 SA 
HETATM    3  C   UNL     1     -10.460  14.275  65.877  1.00  0.00    -0.307 C  
HETATM    4  C   UNL     1      -9.366  13.558  66.655  1.00  0.00    -0.254 C  
HETATM    5  O   UNL     1      -6.711  13.990  69.113  1.00  0.00    -0.104 OA 
HETATM    6  CA  UNL     1      -8.704  14.137  67.703  1.00  0.00    -0.187 C  
HETATM    7  N   UNL     1      -8.978  15.427  68.068  1.00  0.00    -0.170 N  
HETATM    8  CA  UNL     1      -9.407  17.462  68.197  1.00  0.00    -0.277 C  
HETATM    9  C   UNL     1      -7.711  13.326  68.509  1.00  0.00    -0.120 C  
HETATM   10  O   UNL     1      -7.293  16.456  69.292  1.00  0.00    -0.228 OA 
HETATM   11  C   UNL     1      -8.362  16.427  68.726  1.00  0.00    -0.242 C  
HETATM   12  OXT UNL     1      -7.824  12.115  68.658  1.00  0.00    -0.130 OA 
ENDROOT
BRANCH   4  13
HETATM   13  C   UNL     1      -9.054  12.132  66.184  1.00  0.00    -0.101 C  
BRANCH  13  14
HETATM   14  S   UNL     1     -10.430  11.149  65.514  1.00  0.00    -0.233 SA 
BRANCH  14  15
HETATM   15  C   UNL     1      -9.809   9.521  65.638  1.00  0.00    -0.272 A  
HETATM   16  N   UNL     1     -10.196   8.673  66.568  1.00  0.00    -0.273 NA 
HETATM   17  S   UNL     1      -8.578   8.920  64.609  1.00  0.00    -0.098 SA 
HETATM   18  N   UNL     1      -9.485   7.492  66.527  1.00  0.00    -0.187 NA 
HETATM   19  C   UNL     1      -7.671   6.367  65.254  1.00  0.00    -0.098 C  
HETATM   20  C   UNL     1      -8.599   7.486  65.554  1.00  0.00    -0.083 A  
ENDBRANCH  14  15
ENDBRANCH  13  14
ENDBRANCH   4  13
BRANCH   8  21
HETATM   21  N   UNL     1      -8.843  18.441  67.211  1.00  0.00    -0.256 N  
HETATM   22  C   UNL     1      -8.182  19.573  67.640  1.00  0.00    -0.297 C  
HETATM   23  H   UNL     1      -8.950  18.268  66.211  1.00  0.00     0.000 HD 
HETATM   24  O   UNL     1      -7.891  19.751  68.821  1.00  0.00    -0.316 OA 
BRANCH  22  25
HETATM   25  C   UNL     1      -7.835  20.566  66.558  1.00  0.00    -0.094 C  
BRANCH  25  26
HETATM   26  N   UNL     1      -6.959  19.987  65.574  1.00  0.00    -0.304 NA 
HETATM   27  C   UNL     1      -6.624  20.450  64.343  1.00  0.00    -0.164 A  
HETATM   28  N   UNL     1      -5.709  19.657  63.836  1.00  0.00    -0.270 NA 
HETATM   29  N   UNL     1      -5.482  18.689  64.786  1.00  0.00    -0.200 NA 
HETATM   30  N   UNL     1      -6.236  18.889  65.859  1.00  0.00    -0.189 NA 
ENDBRANCH  25  26
ENDBRANCH  22  25
ENDBRANCH   8  21
TORSDOF 6
ENDMDL
MODEL      131
REMARK 921   NORMALIZED FREE ENERGY PREDICTED BY IDOCK:   -4.49 KCAL/MOL
REMARK 922        TOTAL FREE ENERGY PREDICTED BY IDOCK:   -7.05 KCAL/MOL
REMARK 923 INTER-LIGAND FREE ENERGY PREDICTED BY IDOCK:   -6.05 KCAL/MOL
REMARK 924 INTRA-LIGAND FREE ENERGY PREDICTED BY IDOCK:   -1.00 KCAL/MOL
REMARK 927      BINDING AFFINITY PREDICTED BY RF-SCORE:    0.00 PKD
ROOT
HETATM    1  C   UNL     1      -9.750  10.315  68.228  1.00  0.00    -0.142 C  
HETATM    2  S   UNL     1     -11.155  10.560  67.128  1.00  0.00    -0.054 SA 
HETATM    3  C   UNL     1     -10.409   9.603  65.789  1.00  0.00     0.040 C  
HETATM    4  C   UNL     1      -9.001  10.051  65.421  1.00  0.00    -0.213 C  
HETATM    5  O   UNL     1      -6.109  11.957  66.555  1.00  0.00    -0.155 OA 
HETATM    6  CA  UNL     1      -8.151  10.630  66.323  1.00  0.00    -0.151 C  
HETATM    7  N   UNL     1      -8.563  10.873  67.606  1.00  0.00    -0.123 N  
HETATM    8  CA  UNL     1      -9.558  11.366  69.369  1.00  0.00     0.419 C  
HETATM    9  C   UNL     1      -6.724  10.942  65.924  1.00  0.00    -0.038 C  
HETATM   10  O   UNL     1      -7.326  12.494  68.719  1.00  0.00    -0.108 OA 
HETATM   11  C   UNL     1      -8.225  11.690  68.621  1.00  0.00    -0.110 C  
HETATM   12  OXT UNL     1      -6.118  10.276  65.093  1.00  0.00    -0.111 OA 
ENDROOT
BRANCH   4  13
HETATM   13  C   UNL     1      -8.594   9.806  63.963  1.00  0.00    -0.197 C  
BRANCH  13  14
HETATM   14  S   UNL     1      -8.964  11.118  62.758  1.00  0.00    -0.248 SA 
BRANCH  14  15
HETATM   15  C   UNL     1     -10.405  11.837  63.433  1.00  0.00    -0.439 A  
HETATM   16  N   UNL     1     -11.620  11.427  63.134  1.00  0.00     0.020 NA 
HETATM   17  S   UNL     1     -10.359  13.195  64.476  1.00  0.00    -0.321 SA 
HETATM   18  N   UNL     1     -12.594  12.220  63.704  1.00  0.00    -0.738 NA 
HETATM   19  C   UNL     1     -12.859  14.216  65.161  1.00  0.00    -0.321 C  
HETATM   20  C   UNL     1     -12.076  13.189  64.430  1.00  0.00    -0.410 A  
ENDBRANCH  14  15
ENDBRANCH  13  14
ENDBRANCH   4  13
BRANCH   8  21
HETATM   21  N   UNL     1     -10.515  12.519  69.427  1.00  0.00    -0.354 N  
HETATM   22  C   UNL     1     -11.747  12.383  70.032  1.00  0.00    -0.230 C  
HETATM   23  H   UNL     1     -10.252  13.413  69.013  1.00  0.00     0.000 HD 
HETATM   24  O   UNL     1     -12.050  11.382  70.678  1.00  0.00    -0.361 OA 
BRANCH  22  25
HETATM   25  C   UNL     1     -12.686  13.552  69.855  1.00  0.00     0.136 C  
BRANCH  25  26
HETATM   26  N   UNL     1     -12.530  14.516  70.911  1.00  0.00    -0.320 NA 
HETATM   27  C   UNL     1     -13.317  14.739  71.994  1.00  0.00    -0.363 A  
HETATM   28  N   UNL     1     -12.734  15.639  72.751  1.00  0.00    -0.393 NA 
HETATM   29  N   UNL     1     -11.562  15.969  72.112  1.00  0.00    -0.437 NA 
HETATM   30  N   UNL     1     -11.424  15.278  70.989  1.00  0.00    -0.329 NA 
ENDBRANCH  25  26
ENDBRANCH  22  25
ENDBRANCH   8  21
TORSDOF 6
ENDMDL
MODEL      132
REMARK 921   NORMALIZED FREE ENERGY PREDICTED BY IDOCK:   -4.48 KCAL/MOL
REMARK 922        TOTAL FREE ENERGY PREDICTED BY IDOCK:   -7.04 KCAL/MOL
REMARK 923 INTER-LIGAND FREE ENERGY PREDICTED BY IDOCK:   -6.19 KCAL/MOL
REMARK 924 INTRA-LIGAND FREE ENERGY PREDICTED BY IDOCK:   -0.85 KCAL/MOL
REMARK 927      BINDING AFFINITY PREDICTED BY RF-SCORE:    0.00 PKD
ROOT
HETATM    1  C   UNL     1      -9.317   8.795  70.507  1.00  0.00    -0.187 C  
HETATM    2  S   UNL     1      -9.392   7.946  68.921  1.00  0.00    -0.150 SA 
HETATM    3  C   UNL     1      -9.515   9.485  67.982  1.00  0.00    -0.132 C  
HETATM    4  C   UNL     1     -10.623  10.412  68.461  1.00  0.00    -0.237 C  
HETATM    5  O   UNL     1     -12.880  11.149  71.226  1.00  0.00    -0.394 OA 
HETATM    6  CA  UNL     1     -11.058  10.436  69.758  1.00  0.00    -0.295 C  
HETATM    7  N   UNL     1     -10.529   9.575  70.681  1.00  0.00    -0.286 N  
HETATM    8  CA  UNL     1      -9.749   7.976  71.765  1.00  0.00    -0.176 C  
HETATM    9  C   UNL     1     -12.080  11.464  70.193  1.00  0.00    -0.357 C  
HETATM   10  O   UNL     1     -11.869   9.229  72.547  1.00  0.00    -0.074 OA 
HETATM   11  C   UNL     1     -10.890   9.039  71.862  1.00  0.00    -0.343 C  
HETATM   12  OXT UNL     1     -12.159  12.569  69.669  1.00  0.00    -0.279 OA 
ENDROOT
BRANCH   4  13
HETATM   13  C   UNL     1     -11.224  11.327  67.386  1.00  0.00    -0.303 C  
BRANCH  13  14
HETATM   14  S   UNL     1     -10.100  11.973  66.111  1.00  0.00    -0.233 SA 
BRANCH  14  15
HETATM   15  C   UNL     1      -9.586  13.488  66.812  1.00  0.00    -0.267 A  
HETATM   16  N   UNL     1      -8.789  13.561  67.858  1.00  0.00    -0.179 NA 
HETATM   17  S   UNL     1     -10.148  15.005  66.251  1.00  0.00    -0.301 SA 
HETATM   18  N   UNL     1      -8.616  14.858  68.294  1.00  0.00    -0.154 NA 
HETATM   19  C   UNL     1      -9.304  17.187  67.763  1.00  0.00    -0.245 C  
HETATM   20  C   UNL     1      -9.276  15.719  67.547  1.00  0.00    -0.204 A  
ENDBRANCH  14  15
ENDBRANCH  13  14
ENDBRANCH   4  13
BRANCH   8  21
HETATM   21  N   UNL     1     -10.242   6.576  71.553  1.00  0.00    -0.191 N  
HETATM   22  C   UNL     1      -9.381   5.503  71.648  1.00  0.00    -0.146 C  
HETATM   23  H   UNL     1     -11.226   6.416  71.337  1.00  0.00     0.000 HD 
HETATM   24  O   UNL     1      -8.228   5.625  72.056  1.00  0.00    -0.113 OA 
BRANCH  22  25
HETATM   25  C   UNL     1      -9.958   4.173  71.225  1.00  0.00    -0.146 C  
BRANCH  25  26
HETATM   26  N   UNL     1      -9.718   3.916  69.830  1.00  0.00    -0.198 NA 
HETATM   27  C   UNL     1      -9.275   2.783  69.230  1.00  0.00    -0.141 A  
HETATM   28  N   UNL     1      -9.310   2.961  67.929  1.00  0.00    -0.210 NA 
HETATM   29  N   UNL     1      -9.790   4.235  67.737  1.00  0.00    -0.120 NA 
HETATM   30  N   UNL     1     -10.052   4.824  68.896  1.00  0.00    -0.127 NA 
ENDBRANCH  25  26
ENDBRANCH  22  25
ENDBRANCH   8  21
TORSDOF 6
ENDMDL
MODEL      133
REMARK 921   NORMALIZED FREE ENERGY PREDICTED BY IDOCK:   -4.48 KCAL/MOL
REMARK 922        TOTAL FREE ENERGY PREDICTED BY IDOCK:   -7.04 KCAL/MOL
REMARK 923 INTER-LIGAND FREE ENERGY PREDICTED BY IDOCK:   -5.94 KCAL/MOL
REMARK 924 INTRA-LIGAND FREE ENERGY PREDICTED BY IDOCK:   -1.10 KCAL/MOL
REMARK 927      BINDING AFFINITY PREDICTED BY RF-SCORE:    0.00 PKD
ROOT
HETATM    1  C   UNL     1      -8.248  10.327  68.385  1.00  0.00    -0.114 C  
HETATM    2  S   UNL     1      -8.431  10.592  66.613  1.00  0.00    -0.133 SA 
HETATM    3  C   UNL     1      -9.352  12.132  66.830  1.00  0.00    -0.203 C  
HETATM    4  C   UNL     1     -10.549  12.008  67.762  1.00  0.00    -0.234 C  
HETATM    5  O   UNL     1     -12.089   9.953  70.348  1.00  0.00    -0.238 OA 
HETATM    6  CA  UNL     1     -10.598  11.102  68.786  1.00  0.00    -0.202 C  
HETATM    7  N   UNL     1      -9.567  10.225  68.985  1.00  0.00    -0.192 N  
HETATM    8  CA  UNL     1      -7.999   8.858  68.856  1.00  0.00    -0.104 C  
HETATM    9  C   UNL     1     -11.767  11.111  69.748  1.00  0.00    -0.345 C  
HETATM   10  O   UNL     1     -10.136   8.335  70.210  1.00  0.00    -0.188 OA 
HETATM   11  C   UNL     1      -9.377   9.028  69.572  1.00  0.00    -0.160 C  
HETATM   12  OXT UNL     1     -12.380  12.137  70.022  1.00  0.00    -0.202 OA 
ENDROOT
BRANCH   4  13
HETATM   13  C   UNL     1     -11.706  12.974  67.477  1.00  0.00    -0.370 C  
BRANCH  13  14
HETATM   14  S   UNL     1     -11.764  13.751  65.833  1.00  0.00    -0.371 SA 
BRANCH  14  15
HETATM   15  C   UNL     1     -11.026  15.304  66.138  1.00  0.00    -0.307 A  
HETATM   16  N   UNL     1     -10.399  15.996  65.209  1.00  0.00    -0.533 NA 
HETATM   17  S   UNL     1     -10.983  16.018  67.694  1.00  0.00    -0.239 SA 
HETATM   18  N   UNL     1      -9.807  17.135  65.716  1.00  0.00    -0.558 NA 
HETATM   19  C   UNL     1      -9.515  18.381  67.846  1.00  0.00    -0.299 C  
HETATM   20  C   UNL     1     -10.027  17.269  67.007  1.00  0.00    -0.289 A  
ENDBRANCH  14  15
ENDBRANCH  13  14
ENDBRANCH   4  13
BRANCH   8  21
HETATM   21  N   UNL     1      -7.987   7.782  67.812  1.00  0.00    -0.122 N  
HETATM   22  C   UNL     1      -7.438   6.545  68.080  1.00  0.00    -0.095 C  
HETATM   23  H   UNL     1      -8.390   7.966  66.893  1.00  0.00     0.000 HD 
HETATM   24  O   UNL     1      -7.081   6.221  69.211  1.00  0.00    -0.068 OA 
BRANCH  22  25
HETATM   25  C   UNL     1      -7.317   5.622  66.892  1.00  0.00    -0.079 C  
BRANCH  25  26
HETATM   26  N   UNL     1      -6.922   6.338  65.708  1.00  0.00    -0.056 NA 
HETATM   27  C   UNL     1      -5.709   6.392  65.101  1.00  0.00    -0.022 A  
HETATM   28  N   UNL     1      -5.833   7.075  63.987  1.00  0.00    -0.032 NA 
HETATM   29  N   UNL     1      -7.156   7.443  63.916  1.00  0.00    -0.061 NA 
HETATM   30  N   UNL     1      -7.833   6.986  64.961  1.00  0.00    -0.119 NA 
ENDBRANCH  25  26
ENDBRANCH  22  25
ENDBRANCH   8  21
TORSDOF 6
ENDMDL
MODEL      134
REMARK 921   NORMALIZED FREE ENERGY PREDICTED BY IDOCK:   -4.45 KCAL/MOL
REMARK 922        TOTAL FREE ENERGY PREDICTED BY IDOCK:   -6.99 KCAL/MOL
REMARK 923 INTER-LIGAND FREE ENERGY PREDICTED BY IDOCK:   -6.20 KCAL/MOL
REMARK 924 INTRA-LIGAND FREE ENERGY PREDICTED BY IDOCK:   -0.79 KCAL/MOL
REMARK 927      BINDING AFFINITY PREDICTED BY RF-SCORE:    0.00 PKD
ROOT
HETATM    1  C   UNL     1     -10.172  12.269  68.735  1.00  0.00    -0.102 C  
HETATM    2  S   UNL     1     -11.595  12.280  67.631  1.00  0.00    -0.344 SA 
HETATM    3  C   UNL     1     -11.160  10.694  66.882  1.00  0.00    -0.090 C  
HETATM    4  C   UNL     1      -9.731  10.627  66.364  1.00  0.00    -0.241 C  
HETATM    5  O   UNL     1      -6.445  12.195  66.531  1.00  0.00     0.008 OA 
HETATM    6  CA  UNL     1      -8.712  11.359  66.911  1.00  0.00    -0.165 C  
HETATM    7  N   UNL     1      -8.958  12.229  67.938  1.00  0.00    -0.178 N  
HETATM    8  CA  UNL     1      -9.687  13.654  69.273  1.00  0.00     0.492 C  
HETATM    9  C   UNL     1      -7.292  11.157  66.426  1.00  0.00    -0.099 C  
HETATM   10  O   UNL     1      -7.347  13.882  68.201  1.00  0.00    -0.096 OA 
HETATM   11  C   UNL     1      -8.386  13.325  68.472  1.00  0.00    -0.075 C  
HETATM   12  OXT UNL     1      -6.896  10.080  65.996  1.00  0.00    -0.093 OA 
ENDROOT
BRANCH   4  13
HETATM   13  C   UNL     1      -9.504   9.677  65.181  1.00  0.00    -0.265 C  
BRANCH  13  14
HETATM   14  S   UNL     1      -9.652  10.373  63.507  1.00  0.00    -0.273 SA 
BRANCH  14  15
HETATM   15  C   UNL     1     -10.829  11.642  63.742  1.00  0.00    -0.424 A  
HETATM   16  N   UNL     1     -12.109  11.493  63.470  1.00  0.00    -0.235 NA 
HETATM   17  S   UNL     1     -10.401  13.215  64.266  1.00  0.00    -0.211 SA 
HETATM   18  N   UNL     1     -12.817  12.665  63.632  1.00  0.00    -0.728 NA 
HETATM   19  C   UNL     1     -12.505  15.040  64.296  1.00  0.00    -0.130 C  
HETATM   20  C   UNL     1     -12.047  13.652  64.041  1.00  0.00    -0.425 A  
ENDBRANCH  14  15
ENDBRANCH  13  14
ENDBRANCH   4  13
BRANCH   8  21
HETATM   21  N   UNL     1     -10.401  14.881  68.790  1.00  0.00    -0.237 N  
HETATM   22  C   UNL     1      -9.908  16.139  69.067  1.00  0.00    -0.245 C  
HETATM   23  H   UNL     1     -11.262  14.784  68.250  1.00  0.00     0.000 HD 
HETATM   24  O   UNL     1      -8.802  16.309  69.575  1.00  0.00    -0.138 OA 
BRANCH  22  25
HETATM   25  C   UNL     1     -10.817  17.285  68.693  1.00  0.00    -0.199 C  
BRANCH  25  26
HETATM   26  N   UNL     1     -10.419  17.886  67.448  1.00  0.00    -0.383 NA 
HETATM   27  C   UNL     1     -10.714  19.115  66.955  1.00  0.00    -0.424 A  
HETATM   28  N   UNL     1     -10.048  19.284  65.836  1.00  0.00    -0.483 NA 
HETATM   29  N   UNL     1      -9.329  18.127  65.647  1.00  0.00    -0.153 NA 
HETATM   30  N   UNL     1      -9.542  17.269  66.636  1.00  0.00    -0.265 NA 
ENDBRANCH  25  26
ENDBRANCH  22  25
ENDBRANCH   8  21
TORSDOF 6
ENDMDL
MODEL      135
REMARK 921   NORMALIZED FREE ENERGY PREDICTED BY IDOCK:   -4.45 KCAL/MOL
REMARK 922        TOTAL FREE ENERGY PREDICTED BY IDOCK:   -6.99 KCAL/MOL
REMARK 923 INTER-LIGAND FREE ENERGY PREDICTED BY IDOCK:   -6.04 KCAL/MOL
REMARK 924 INTRA-LIGAND FREE ENERGY PREDICTED BY IDOCK:   -0.95 KCAL/MOL
REMARK 927      BINDING AFFINITY PREDICTED BY RF-SCORE:    0.00 PKD
ROOT
HETATM    1  C   UNL     1     -11.659   6.993  71.111  1.00  0.00    -0.312 C  
HETATM    2  S   UNL     1     -11.535   8.094  72.530  1.00  0.00    -0.385 SA 
HETATM    3  C   UNL     1     -12.127   9.529  71.604  1.00  0.00    -0.398 C  
HETATM    4  C   UNL     1     -11.369   9.783  70.308  1.00  0.00    -0.333 C  
HETATM    5  O   UNL     1      -9.124   8.297  67.852  1.00  0.00    -0.133 OA 
HETATM    6  CA  UNL     1     -10.772   8.781  69.593  1.00  0.00    -0.208 C  
HETATM    7  N   UNL     1     -10.800   7.491  70.051  1.00  0.00    -0.250 N  
HETATM    8  CA  UNL     1     -10.766   5.711  71.134  1.00  0.00    -0.241 C  
HETATM    9  C   UNL     1     -10.137   9.084  68.253  1.00  0.00    -0.192 C  
HETATM   10  O   UNL     1      -9.148   6.122  69.162  1.00  0.00    -0.128 OA 
HETATM   11  C   UNL     1     -10.087   6.361  69.886  1.00  0.00    -0.171 C  
HETATM   12  OXT UNL     1     -10.547   9.979  67.523  1.00  0.00    -0.242 OA 
ENDROOT
BRANCH   4  13
HETATM   13  C   UNL     1     -11.318  11.247  69.853  1.00  0.00    -0.249 C  
BRANCH  13  14
HETATM   14  S   UNL     1     -12.443  12.418  70.672  1.00  0.00    -0.150 SA 
BRANCH  14  15
HETATM   15  C   UNL     1     -11.855  13.956  70.088  1.00  0.00    -0.298 A  
HETATM   16  N   UNL     1     -11.810  15.039  70.836  1.00  0.00    -0.301 NA 
HETATM   17  S   UNL     1     -11.370  14.204  68.464  1.00  0.00    -0.303 SA 
HETATM   18  N   UNL     1     -11.414  16.151  70.123  1.00  0.00    -0.336 NA 
HETATM   19  C   UNL     1     -10.722  16.840  67.837  1.00  0.00    -0.347 C  
HETATM   20  C   UNL     1     -11.157  15.861  68.864  1.00  0.00    -0.316 A  
ENDBRANCH  14  15
ENDBRANCH  13  14
ENDBRANCH   4  13
BRANCH   8  21
HETATM   21  N   UNL     1      -9.840   5.525  72.298  1.00  0.00    -0.159 N  
HETATM   22  C   UNL     1      -9.134   4.350  72.457  1.00  0.00    -0.119 C  
HETATM   23  H   UNL     1      -9.730   6.275  72.980  1.00  0.00     0.000 HD 
HETATM   24  O   UNL     1      -9.110   3.481  71.589  1.00  0.00    -0.101 OA 
BRANCH  22  25
HETATM   25  C   UNL     1      -8.391   4.216  73.764  1.00  0.00    -0.092 C  
BRANCH  25  26
HETATM   26  N   UNL     1      -7.236   5.074  73.801  1.00  0.00    -0.081 NA 
HETATM   27  C   UNL     1      -5.932   4.750  73.988  1.00  0.00    -0.030 A  
HETATM   28  N   UNL     1      -5.209   5.836  73.835  1.00  0.00    -0.023 NA 
HETATM   29  N   UNL     1      -6.099   6.843  73.545  1.00  0.00    -0.058 NA 
HETATM   30  N   UNL     1      -7.342   6.383  73.512  1.00  0.00    -0.086 NA 
ENDBRANCH  25  26
ENDBRANCH  22  25
ENDBRANCH   8  21
TORSDOF 6
ENDMDL
MODEL      136
REMARK 921   NORMALIZED FREE ENERGY PREDICTED BY IDOCK:   -4.43 KCAL/MOL
REMARK 922        TOTAL FREE ENERGY PREDICTED BY IDOCK:   -6.97 KCAL/MOL
REMARK 923 INTER-LIGAND FREE ENERGY PREDICTED BY IDOCK:   -7.23 KCAL/MOL
REMARK 924 INTRA-LIGAND FREE ENERGY PREDICTED BY IDOCK:    0.26 KCAL/MOL
REMARK 927      BINDING AFFINITY PREDICTED BY RF-SCORE:    0.00 PKD
ROOT
HETATM    1  C   UNL     1      -9.906  14.523  67.992  1.00  0.00    -0.222 C  
HETATM    2  S   UNL     1     -10.264  15.573  69.411  1.00  0.00    -0.279 SA 
HETATM    3  C   UNL     1      -8.964  16.758  68.997  1.00  0.00    -0.188 C  
HETATM    4  C   UNL     1      -7.597  16.123  68.780  1.00  0.00    -0.193 C  
HETATM    5  O   UNL     1      -5.860  12.986  68.126  1.00  0.00    -0.073 OA 
HETATM    6  CA  UNL     1      -7.442  14.841  68.326  1.00  0.00    -0.115 C  
HETATM    7  N   UNL     1      -8.535  14.053  68.088  1.00  0.00    -0.164 N  
HETATM    8  CA  UNL     1     -10.349  13.028  68.093  1.00  0.00    -0.240 C  
HETATM    9  C   UNL     1      -6.057  14.311  68.019  1.00  0.00    -0.148 C  
HETATM   10  O   UNL     1      -8.090  11.773  68.080  1.00  0.00    -0.134 OA 
HETATM   11  C   UNL     1      -8.816  12.739  68.010  1.00  0.00    -0.195 C  
HETATM   12  OXT UNL     1      -5.149  15.040  67.637  1.00  0.00    -0.291 OA 
ENDROOT
BRANCH   4  13
HETATM   13  C   UNL     1      -6.397  17.021  69.104  1.00  0.00    -0.211 C  
BRANCH  13  14
HETATM   14  S   UNL     1      -5.808  18.138  67.795  1.00  0.00    -0.154 SA 
BRANCH  14  15
HETATM   15  C   UNL     1      -7.271  18.984  67.353  1.00  0.00    -0.213 A  
HETATM   16  N   UNL     1      -7.770  19.975  68.063  1.00  0.00    -0.291 NA 
HETATM   17  S   UNL     1      -8.227  18.537  66.004  1.00  0.00     0.064 SA 
HETATM   18  N   UNL     1      -8.986  20.407  67.575  1.00  0.00    -0.334 NA 
HETATM   19  C   UNL     1     -10.610  19.955  65.749  1.00  0.00    -0.490 C  
HETATM   20  C   UNL     1      -9.350  19.737  66.501  1.00  0.00    -0.394 A  
ENDBRANCH  14  15
ENDBRANCH  13  14
ENDBRANCH   4  13
BRANCH   8  21
HETATM   21  N   UNL     1     -10.983  12.571  69.373  1.00  0.00    -0.450 N  
HETATM   22  C   UNL     1     -11.654  11.367  69.438  1.00  0.00    -0.323 C  
HETATM   23  H   UNL     1     -10.916  13.157  70.205  1.00  0.00     0.000 HD 
HETATM   24  O   UNL     1     -11.630  10.557  68.514  1.00  0.00    -0.266 OA 
BRANCH  22  25
HETATM   25  C   UNL     1     -12.405  11.116  70.722  1.00  0.00    -0.406 C  
BRANCH  25  26
HETATM   26  N   UNL     1     -12.946  12.335  71.262  1.00  0.00    -0.279 NA 
HETATM   27  C   UNL     1     -13.224  13.504  70.632  1.00  0.00     0.185 A  
HETATM   28  N   UNL     1     -13.809  14.309  71.489  1.00  0.00    -0.372 NA 
HETATM   29  N   UNL     1     -13.889  13.608  72.669  1.00  0.00    -0.754 NA 
HETATM   30  N   UNL     1     -13.373  12.393  72.537  1.00  0.00    -0.296 NA 
ENDBRANCH  25  26
ENDBRANCH  22  25
ENDBRANCH   8  21
TORSDOF 6
ENDMDL
MODEL      137
REMARK 921   NORMALIZED FREE ENERGY PREDICTED BY IDOCK:   -4.43 KCAL/MOL
REMARK 922        TOTAL FREE ENERGY PREDICTED BY IDOCK:   -6.96 KCAL/MOL
REMARK 923 INTER-LIGAND FREE ENERGY PREDICTED BY IDOCK:   -6.79 KCAL/MOL
REMARK 924 INTRA-LIGAND FREE ENERGY PREDICTED BY IDOCK:   -0.18 KCAL/MOL
REMARK 927      BINDING AFFINITY PREDICTED BY RF-SCORE:    0.00 PKD
ROOT
HETATM    1  C   UNL     1      -8.951  14.260  68.640  1.00  0.00    -0.154 C  
HETATM    2  S   UNL     1      -9.959  15.696  69.048  1.00  0.00    -0.250 SA 
HETATM    3  C   UNL     1     -11.074  14.745  70.107  1.00  0.00    -0.170 C  
HETATM    4  C   UNL     1     -11.655  13.508  69.437  1.00  0.00    -0.369 C  
HETATM    5  O   UNL     1     -11.272  11.197  66.645  1.00  0.00    -0.257 OA 
HETATM    6  CA  UNL     1     -10.998  12.825  68.449  1.00  0.00    -0.254 C  
HETATM    7  N   UNL     1      -9.788  13.268  67.989  1.00  0.00    -0.224 N  
HETATM    8  CA  UNL     1      -8.129  14.332  67.313  1.00  0.00    -0.178 C  
HETATM    9  C   UNL     1     -11.578  11.535  67.909  1.00  0.00    -0.282 C  
HETATM   10  O   UNL     1      -9.219  12.480  65.878  1.00  0.00    -0.105 OA 
HETATM   11  C   UNL     1      -9.040  13.140  66.876  1.00  0.00    -0.229 C  
HETATM   12  OXT UNL     1     -12.263  10.788  68.598  1.00  0.00    -0.472 OA 
ENDROOT
BRANCH   4  13
HETATM   13  C   UNL     1     -13.034  13.072  69.946  1.00  0.00     0.788 C  
BRANCH  13  14
HETATM   14  S   UNL     1     -13.159  12.547  71.683  1.00  0.00    -0.207 SA 
BRANCH  14  15
HETATM   15  C   UNL     1     -13.177  14.077  72.526  1.00  0.00    -0.505 A  
HETATM   16  N   UNL     1     -14.156  14.950  72.408  1.00  0.00    -0.471 NA 
HETATM   17  S   UNL     1     -11.878  14.606  73.509  1.00  0.00     0.242 SA 
HETATM   18  N   UNL     1     -13.891  16.125  73.081  1.00  0.00    -0.425 NA 
HETATM   19  C   UNL     1     -12.152  17.196  74.497  1.00  0.00    -0.003 C  
HETATM   20  C   UNL     1     -12.729  16.087  73.698  1.00  0.00    -0.600 A  
ENDBRANCH  14  15
ENDBRANCH  13  14
ENDBRANCH   4  13
BRANCH   8  21
HETATM   21  N   UNL     1      -8.283  15.556  66.460  1.00  0.00    -0.344 N  
HETATM   22  C   UNL     1      -7.653  16.736  66.798  1.00  0.00    -0.248 C  
HETATM   23  H   UNL     1      -8.859  15.515  65.619  1.00  0.00     0.000 HD 
HETATM   24  O   UNL     1      -6.829  16.797  67.708  1.00  0.00    -0.131 OA 
BRANCH  22  25
HETATM   25  C   UNL     1      -8.042  17.935  65.969  1.00  0.00    -0.095 C  
BRANCH  25  26
HETATM   26  N   UNL     1      -9.060  18.716  66.619  1.00  0.00    -0.299 NA 
HETATM   27  C   UNL     1     -10.281  18.331  67.070  1.00  0.00    -0.378 A  
HETATM   28  N   UNL     1     -10.831  19.345  67.697  1.00  0.00    -0.423 NA 
HETATM   29  N   UNL     1      -9.918  20.371  67.626  1.00  0.00    -0.410 NA 
HETATM   30  N   UNL     1      -8.826  19.991  66.977  1.00  0.00    -0.333 NA 
ENDBRANCH  25  26
ENDBRANCH  22  25
ENDBRANCH   8  21
TORSDOF 6
ENDMDL
MODEL      138
REMARK 921   NORMALIZED FREE ENERGY PREDICTED BY IDOCK:   -4.42 KCAL/MOL
REMARK 922        TOTAL FREE ENERGY PREDICTED BY IDOCK:   -6.95 KCAL/MOL
REMARK 923 INTER-LIGAND FREE ENERGY PREDICTED BY IDOCK:   -6.15 KCAL/MOL
REMARK 924 INTRA-LIGAND FREE ENERGY PREDICTED BY IDOCK:   -0.81 KCAL/MOL
REMARK 927      BINDING AFFINITY PREDICTED BY RF-SCORE:    0.00 PKD
ROOT
HETATM    1  C   UNL     1      -8.672  14.078  66.264  1.00  0.00     0.366 C  
HETATM    2  S   UNL     1      -7.491  14.097  67.623  1.00  0.00    -0.182 SA 
HETATM    3  C   UNL     1      -7.646  12.321  67.924  1.00  0.00    -0.127 C  
HETATM    4  C   UNL     1      -9.082  11.849  68.100  1.00  0.00    -0.190 C  
HETATM    5  O   UNL     1     -12.577  12.729  67.561  1.00  0.00     0.071 OA 
HETATM    6  CA  UNL     1     -10.144  12.477  67.510  1.00  0.00    -0.207 C  
HETATM    7  N   UNL     1      -9.952  13.604  66.759  1.00  0.00    -0.263 N  
HETATM    8  CA  UNL     1      -9.382  15.429  65.929  1.00  0.00    -0.294 C  
HETATM    9  C   UNL     1     -11.533  11.886  67.630  1.00  0.00    -0.317 C  
HETATM   10  O   UNL     1     -11.850  14.920  66.501  1.00  0.00    -0.279 OA 
HETATM   11  C   UNL     1     -10.677  14.663  66.350  1.00  0.00    -0.309 C  
HETATM   12  OXT UNL     1     -11.723  10.680  67.737  1.00  0.00    -0.503 OA 
ENDROOT
BRANCH   4  13
HETATM   13  C   UNL     1      -9.261  10.611  68.989  1.00  0.00    -0.167 C  
BRANCH  13  14
HETATM   14  S   UNL     1      -8.842   8.995  68.270  1.00  0.00    -0.133 SA 
BRANCH  14  15
HETATM   15  C   UNL     1      -9.813   7.906  69.230  1.00  0.00    -0.177 A  
HETATM   16  N   UNL     1     -10.781   7.170  68.723  1.00  0.00    -0.198 NA 
HETATM   17  S   UNL     1      -9.645   7.769  70.929  1.00  0.00    -0.167 SA 
HETATM   18  N   UNL     1     -11.474   6.478  69.694  1.00  0.00    -0.380 NA 
HETATM   19  C   UNL     1     -11.523   6.116  72.152  1.00  0.00    -0.361 C  
HETATM   20  C   UNL     1     -10.991   6.702  70.898  1.00  0.00    -0.268 A  
ENDBRANCH  14  15
ENDBRANCH  13  14
ENDBRANCH   4  13
BRANCH   8  21
HETATM   21  N   UNL     1      -9.072  16.615  66.792  1.00  0.00    -0.224 N  
HETATM   22  C   UNL     1      -7.937  17.368  66.575  1.00  0.00    -0.281 C  
HETATM   23  H   UNL     1      -9.708  16.867  67.548  1.00  0.00     0.000 HD 
HETATM   24  O   UNL     1      -7.223  17.203  65.589  1.00  0.00    -0.125 OA 
BRANCH  22  25
HETATM   25  C   UNL     1      -7.644  18.411  67.627  1.00  0.00    -0.229 C  
BRANCH  25  26
HETATM   26  N   UNL     1      -8.825  19.155  67.972  1.00  0.00    -0.303 NA 
HETATM   27  C   UNL     1      -9.396  19.346  69.188  1.00  0.00    -0.217 A  
HETATM   28  N   UNL     1     -10.397  20.184  69.051  1.00  0.00    -0.217 NA 
HETATM   29  N   UNL     1     -10.432  20.512  67.716  1.00  0.00    -0.106 NA 
HETATM   30  N   UNL     1      -9.467  19.895  67.049  1.00  0.00    -0.356 NA 
ENDBRANCH  25  26
ENDBRANCH  22  25
ENDBRANCH   8  21
TORSDOF 6
ENDMDL
MODEL      139
REMARK 921   NORMALIZED FREE ENERGY PREDICTED BY IDOCK:   -4.41 KCAL/MOL
REMARK 922        TOTAL FREE ENERGY PREDICTED BY IDOCK:   -6.95 KCAL/MOL
REMARK 923 INTER-LIGAND FREE ENERGY PREDICTED BY IDOCK:   -5.99 KCAL/MOL
REMARK 924 INTRA-LIGAND FREE ENERGY PREDICTED BY IDOCK:   -0.96 KCAL/MOL
REMARK 927      BINDING AFFINITY PREDICTED BY RF-SCORE:    0.00 PKD
ROOT
HETATM    1  C   UNL     1     -10.839   8.535  69.064  1.00  0.00    -0.001 C  
HETATM    2  S   UNL     1     -10.152   9.696  70.258  1.00  0.00    -0.279 SA 
HETATM    3  C   UNL     1     -10.855  11.136  69.422  1.00  0.00    -0.216 C  
HETATM    4  C   UNL     1     -10.528  11.208  67.937  1.00  0.00    -0.220 C  
HETATM    5  O   UNL     1      -9.355   9.292  65.067  1.00  0.00    -0.229 OA 
HETATM    6  CA  UNL     1     -10.300  10.094  67.176  1.00  0.00    -0.238 C  
HETATM    7  N   UNL     1     -10.315   8.850  67.747  1.00  0.00    -0.231 N  
HETATM    8  CA  UNL     1     -10.125   7.151  68.938  1.00  0.00    -0.177 C  
HETATM    9  C   UNL     1     -10.098  10.228  65.682  1.00  0.00    -0.271 C  
HETATM   10  O   UNL     1      -9.188   7.223  66.531  1.00  0.00    -0.148 OA 
HETATM   11  C   UNL     1      -9.816   7.628  67.482  1.00  0.00    -0.165 C  
HETATM   12  OXT UNL     1     -10.623  11.123  65.029  1.00  0.00    -0.299 OA 
ENDROOT
BRANCH   4  13
HETATM   13  C   UNL     1     -10.472  12.622  67.345  1.00  0.00    -0.224 C  
BRANCH  13  14
HETATM   14  S   UNL     1     -12.019  13.578  67.309  1.00  0.00    -0.337 SA 
BRANCH  14  15
HETATM   15  C   UNL     1     -11.825  14.636  68.685  1.00  0.00    -0.311 A  
HETATM   16  N   UNL     1     -11.071  15.715  68.661  1.00  0.00    -0.297 NA 
HETATM   17  S   UNL     1     -12.533  14.309  70.210  1.00  0.00    -0.333 SA 
HETATM   18  N   UNL     1     -10.989  16.324  69.896  1.00  0.00    -0.358 NA 
HETATM   19  C   UNL     1     -11.810  16.086  72.229  1.00  0.00    -0.628 C  
HETATM   20  C   UNL     1     -11.701  15.690  70.804  1.00  0.00    -0.375 A  
ENDBRANCH  14  15
ENDBRANCH  13  14
ENDBRANCH   4  13
BRANCH   8  21
HETATM   21  N   UNL     1      -8.900   6.916  69.771  1.00  0.00    -0.141 N  
HETATM   22  C   UNL     1      -8.879   5.927  70.732  1.00  0.00    -0.138 C  
HETATM   23  H   UNL     1      -8.073   7.495  69.624  1.00  0.00     0.000 HD 
HETATM   24  O   UNL     1      -9.787   5.106  70.843  1.00  0.00    -0.176 OA 
BRANCH  22  25
HETATM   25  C   UNL     1      -7.663   5.922  71.626  1.00  0.00    -0.101 C  
BRANCH  25  26
HETATM   26  N   UNL     1      -6.687   4.965  71.179  1.00  0.00    -0.034 NA 
HETATM   27  C   UNL     1      -6.193   3.877  71.822  1.00  0.00    -0.014 A  
HETATM   28  N   UNL     1      -5.406   3.228  70.995  1.00  0.00    -0.007 NA 
HETATM   29  N   UNL     1      -5.426   3.940  69.818  1.00  0.00    -0.015 NA 
HETATM   30  N   UNL     1      -6.216   5.000  69.919  1.00  0.00    -0.025 NA 
ENDBRANCH  25  26
ENDBRANCH  22  25
ENDBRANCH   8  21
TORSDOF 6
ENDMDL
MODEL      140
REMARK 921   NORMALIZED FREE ENERGY PREDICTED BY IDOCK:   -4.37 KCAL/MOL
REMARK 922        TOTAL FREE ENERGY PREDICTED BY IDOCK:   -6.89 KCAL/MOL
REMARK 923 INTER-LIGAND FREE ENERGY PREDICTED BY IDOCK:   -6.17 KCAL/MOL
REMARK 924 INTRA-LIGAND FREE ENERGY PREDICTED BY IDOCK:   -0.72 KCAL/MOL
REMARK 927      BINDING AFFINITY PREDICTED BY RF-SCORE:    0.00 PKD
ROOT
HETATM    1  C   UNL     1      -8.162   7.771  68.634  1.00  0.00    -0.128 C  
HETATM    2  S   UNL     1      -8.417   9.093  67.438  1.00  0.00    -0.115 SA 
HETATM    3  C   UNL     1      -9.149  10.204  68.661  1.00  0.00    -0.143 C  
HETATM    4  C   UNL     1     -10.296   9.585  69.447  1.00  0.00    -0.225 C  
HETATM    5  O   UNL     1     -11.901   6.446  70.370  1.00  0.00    -0.382 OA 
HETATM    6  CA  UNL     1     -10.385   8.242  69.692  1.00  0.00    -0.218 C  
HETATM    7  N   UNL     1      -9.447   7.383  69.188  1.00  0.00    -0.150 N  
HETATM    8  CA  UNL     1      -8.049   6.320  68.066  1.00  0.00    -0.115 C  
HETATM    9  C   UNL     1     -11.488   7.707  70.581  1.00  0.00    -0.258 C  
HETATM   10  O   UNL     1     -10.150   5.173  69.042  1.00  0.00    -0.187 OA 
HETATM   11  C   UNL     1      -9.357   6.074  68.886  1.00  0.00    -0.123 C  
HETATM   12  OXT UNL     1     -11.967   8.367  71.496  1.00  0.00    -0.278 OA 
ENDROOT
BRANCH   4  13
HETATM   13  C   UNL     1     -11.354  10.575  69.953  1.00  0.00    -0.309 C  
BRANCH  13  14
HETATM   14  S   UNL     1     -11.968  11.819  68.778  1.00  0.00    -0.161 SA 
BRANCH  14  15
HETATM   15  C   UNL     1     -11.865  13.289  69.716  1.00  0.00    -0.325 A  
HETATM   16  N   UNL     1     -11.085  14.298  69.387  1.00  0.00    -0.260 NA 
HETATM   17  S   UNL     1     -12.707  13.505  71.192  1.00  0.00    -0.303 SA 
HETATM   18  N   UNL     1     -11.093  15.296  70.339  1.00  0.00    -0.287 NA 
HETATM   19  C   UNL     1     -12.115  15.875  72.529  1.00  0.00    -0.611 C  
HETATM   20  C   UNL     1     -11.895  15.011  71.343  1.00  0.00    -0.358 A  
ENDBRANCH  14  15
ENDBRANCH  13  14
ENDBRANCH   4  13
BRANCH   8  21
HETATM   21  N   UNL     1      -8.217   6.132  66.588  1.00  0.00    -0.109 N  
HETATM   22  C   UNL     1      -7.930   4.921  65.993  1.00  0.00    -0.107 C  
HETATM   23  H   UNL     1      -8.548   6.908  66.015  1.00  0.00     0.000 HD 
HETATM   24  O   UNL     1      -7.678   3.914  66.652  1.00  0.00    -0.087 OA 
BRANCH  22  25
HETATM   25  C   UNL     1      -7.956   4.920  64.484  1.00  0.00    -0.103 C  
BRANCH  25  26
HETATM   26  N   UNL     1      -9.060   4.150  63.978  1.00  0.00    -0.139 NA 
HETATM   27  C   UNL     1     -10.296   3.969  64.509  1.00  0.00    -0.206 A  
HETATM   28  N   UNL     1     -11.018   3.282  63.654  1.00  0.00    -0.283 NA 
HETATM   29  N   UNL     1     -10.199   3.041  62.576  1.00  0.00    -0.106 NA 
HETATM   30  N   UNL     1      -9.000   3.578  62.762  1.00  0.00    -0.093 NA 
ENDBRANCH  25  26
ENDBRANCH  22  25
ENDBRANCH   8  21
TORSDOF 6
ENDMDL
MODEL      141
REMARK 921   NORMALIZED FREE ENERGY PREDICTED BY IDOCK:   -4.34 KCAL/MOL
REMARK 922        TOTAL FREE ENERGY PREDICTED BY IDOCK:   -6.84 KCAL/MOL
REMARK 923 INTER-LIGAND FREE ENERGY PREDICTED BY IDOCK:   -5.99 KCAL/MOL
REMARK 924 INTRA-LIGAND FREE ENERGY PREDICTED BY IDOCK:   -0.86 KCAL/MOL
REMARK 927      BINDING AFFINITY PREDICTED BY RF-SCORE:    0.00 PKD
ROOT
HETATM    1  C   UNL     1      -8.917  10.853  67.728  1.00  0.00    -0.139 C  
HETATM    2  S   UNL     1     -10.651  11.003  68.186  1.00  0.00    -0.207 SA 
HETATM    3  C   UNL     1     -10.772   9.277  68.712  1.00  0.00    -0.154 C  
HETATM    4  C   UNL     1     -10.291   8.280  67.668  1.00  0.00    -0.313 C  
HETATM    5  O   UNL     1      -8.340   7.900  64.613  1.00  0.00    -0.130 OA 
HETATM    6  CA  UNL     1      -9.331   8.585  66.742  1.00  0.00    -0.182 C  
HETATM    7  N   UNL     1      -8.789   9.841  66.694  1.00  0.00    -0.137 N  
HETATM    8  CA  UNL     1      -8.372  11.882  66.687  1.00  0.00    -0.117 C  
HETATM    9  C   UNL     1      -8.812   7.511  65.809  1.00  0.00    -0.090 C  
HETATM   10  O   UNL     1      -7.800  10.382  64.662  1.00  0.00    -0.145 OA 
HETATM   11  C   UNL     1      -8.158  10.618  65.794  1.00  0.00    -0.158 C  
HETATM   12  OXT UNL     1      -8.771   6.329  66.132  1.00  0.00    -0.136 OA 
ENDROOT
BRANCH   4  13
HETATM   13  C   UNL     1     -10.957   6.899  67.723  1.00  0.00    -0.207 C  
BRANCH  13  14
HETATM   14  S   UNL     1     -11.020   6.063  69.336  1.00  0.00    -0.363 SA 
BRANCH  14  15
HETATM   15  C   UNL     1      -9.346   6.099  69.831  1.00  0.00    -0.149 A  
HETATM   16  N   UNL     1      -8.398   5.430  69.208  1.00  0.00    -0.096 NA 
HETATM   17  S   UNL     1      -8.811   6.940  71.224  1.00  0.00    -0.134 SA 
HETATM   18  N   UNL     1      -7.181   5.528  69.850  1.00  0.00    -0.066 NA 
HETATM   19  C   UNL     1      -6.118   6.576  71.837  1.00  0.00    -0.038 C  
HETATM   20  C   UNL     1      -7.252   6.284  70.925  1.00  0.00    -0.071 A  
ENDBRANCH  14  15
ENDBRANCH  13  14
ENDBRANCH   4  13
BRANCH   8  21
HETATM   21  N   UNL     1      -9.339  12.873  66.111  1.00  0.00    -0.441 N  
HETATM   22  C   UNL     1      -9.363  14.178  66.559  1.00  0.00    -0.265 C  
HETATM   23  H   UNL     1      -9.986  12.579  65.380  1.00  0.00     0.000 HD 
HETATM   24  O   UNL     1      -8.507  14.621  67.321  1.00  0.00    -0.189 OA 
BRANCH  22  25
HETATM   25  C   UNL     1     -10.504  15.017  66.039  1.00  0.00    -0.315 C  
BRANCH  25  26
HETATM   26  N   UNL     1     -10.302  16.413  66.323  1.00  0.00    -0.323 NA 
HETATM   27  C   UNL     1     -10.821  17.170  67.322  1.00  0.00    -0.118 A  
HETATM   28  N   UNL     1     -10.277  18.364  67.264  1.00  0.00    -0.356 NA 
HETATM   29  N   UNL     1      -9.403  18.328  66.203  1.00  0.00    -0.503 NA 
HETATM   30  N   UNL     1      -9.404  17.134  65.627  1.00  0.00    -0.447 NA 
ENDBRANCH  25  26
ENDBRANCH  22  25
ENDBRANCH   8  21
TORSDOF 6
ENDMDL
MODEL      142
REMARK 921   NORMALIZED FREE ENERGY PREDICTED BY IDOCK:   -4.34 KCAL/MOL
REMARK 922        TOTAL FREE ENERGY PREDICTED BY IDOCK:   -6.84 KCAL/MOL
REMARK 923 INTER-LIGAND FREE ENERGY PREDICTED BY IDOCK:   -5.65 KCAL/MOL
REMARK 924 INTRA-LIGAND FREE ENERGY PREDICTED BY IDOCK:   -1.19 KCAL/MOL
REMARK 927      BINDING AFFINITY PREDICTED BY RF-SCORE:    0.00 PKD
ROOT
HETATM    1  C   UNL     1      -9.900   9.662  67.976  1.00  0.00    -0.150 C  
HETATM    2  S   UNL     1     -10.142  10.108  66.249  1.00  0.00    -0.224 SA 
HETATM    3  C   UNL     1      -9.325   8.615  65.638  1.00  0.00    -0.103 C  
HETATM    4  C   UNL     1      -7.943   8.383  66.231  1.00  0.00    -0.099 C  
HETATM    5  O   UNL     1      -5.697   9.294  68.953  1.00  0.00    -0.039 OA 
HETATM    6  CA  UNL     1      -7.590   8.822  67.478  1.00  0.00    -0.093 C  
HETATM    7  N   UNL     1      -8.476   9.540  68.235  1.00  0.00    -0.119 N  
HETATM    8  CA  UNL     1      -9.915  10.831  69.013  1.00  0.00    -0.199 C  
HETATM    9  C   UNL     1      -6.240   8.454  68.055  1.00  0.00    -0.052 C  
HETATM   10  O   UNL     1      -7.492  10.815  69.910  1.00  0.00    -0.098 OA 
HETATM   11  C   UNL     1      -8.429  10.414  69.259  1.00  0.00    -0.154 C  
HETATM   12  OXT UNL     1      -5.667   7.410  67.764  1.00  0.00    -0.028 OA 
ENDROOT
BRANCH   4  13
HETATM   13  C   UNL     1      -6.963   7.617  65.333  1.00  0.00    -0.059 C  
BRANCH  13  14
HETATM   14  S   UNL     1      -7.647   6.309  64.270  1.00  0.00    -0.103 SA 
BRANCH  14  15
HETATM   15  C   UNL     1      -8.356   5.223  65.440  1.00  0.00    -0.136 A  
HETATM   16  N   UNL     1      -9.646   4.964  65.491  1.00  0.00    -0.156 NA 
HETATM   17  S   UNL     1      -7.440   4.469  66.675  1.00  0.00    -0.083 SA 
HETATM   18  N   UNL     1      -9.978   4.166  66.566  1.00  0.00    -0.199 NA 
HETATM   19  C   UNL     1      -8.944   2.997  68.500  1.00  0.00    -0.190 C  
HETATM   20  C   UNL     1      -8.919   3.836  67.277  1.00  0.00    -0.140 A  
ENDBRANCH  14  15
ENDBRANCH  13  14
ENDBRANCH   4  13
BRANCH   8  21
HETATM   21  N   UNL     1     -10.073  12.227  68.491  1.00  0.00    -0.287 N  
HETATM   22  C   UNL     1     -11.251  12.921  68.677  1.00  0.00    -0.281 C  
HETATM   23  H   UNL     1      -9.301  12.670  67.993  1.00  0.00     0.000 HD 
HETATM   24  O   UNL     1     -12.150  12.497  69.400  1.00  0.00    -0.266 OA 
BRANCH  22  25
HETATM   25  C   UNL     1     -11.349  14.235  67.941  1.00  0.00    -0.297 C  
BRANCH  25  26
HETATM   26  N   UNL     1     -11.566  14.034  66.534  1.00  0.00    -0.357 NA 
HETATM   27  C   UNL     1     -12.734  13.938  65.849  1.00  0.00    -0.421 A  
HETATM   28  N   UNL     1     -12.459  13.868  64.567  1.00  0.00    -0.636 NA 
HETATM   29  N   UNL     1     -11.088  13.926  64.472  1.00  0.00    -0.380 NA 
HETATM   30  N   UNL     1     -10.533  14.038  65.671  1.00  0.00    -0.305 NA 
ENDBRANCH  25  26
ENDBRANCH  22  25
ENDBRANCH   8  21
TORSDOF 6
ENDMDL
MODEL      143
REMARK 921   NORMALIZED FREE ENERGY PREDICTED BY IDOCK:   -4.33 KCAL/MOL
REMARK 922        TOTAL FREE ENERGY PREDICTED BY IDOCK:   -6.83 KCAL/MOL
REMARK 923 INTER-LIGAND FREE ENERGY PREDICTED BY IDOCK:   -5.48 KCAL/MOL
REMARK 924 INTRA-LIGAND FREE ENERGY PREDICTED BY IDOCK:   -1.35 KCAL/MOL
REMARK 927      BINDING AFFINITY PREDICTED BY RF-SCORE:    0.00 PKD
ROOT
HETATM    1  C   UNL     1      -7.687   8.859  68.116  1.00  0.00    -0.100 C  
HETATM    2  S   UNL     1      -7.201   9.552  69.705  1.00  0.00    -0.087 SA 
HETATM    3  C   UNL     1      -7.018   7.929  70.478  1.00  0.00    -0.045 C  
HETATM    4  C   UNL     1      -8.237   7.031  70.322  1.00  0.00    -0.128 C  
HETATM    5  O   UNL     1     -11.317   6.519  68.441  1.00  0.00    -0.247 OA 
HETATM    6  CA  UNL     1      -9.091   7.123  69.257  1.00  0.00    -0.137 C  
HETATM    7  N   UNL     1      -8.898   8.077  68.295  1.00  0.00    -0.133 N  
HETATM    8  CA  UNL     1      -8.513   9.786  67.167  1.00  0.00    -0.125 C  
HETATM    9  C   UNL     1     -10.216   6.122  69.101  1.00  0.00    -0.194 C  
HETATM   10  O   UNL     1     -10.792   8.574  67.044  1.00  0.00    -0.211 OA 
HETATM   11  C   UNL     1      -9.634   8.716  67.366  1.00  0.00    -0.159 C  
HETATM   12  OXT UNL     1     -10.128   4.970  69.513  1.00  0.00    -0.212 OA 
ENDROOT
BRANCH   4  13
HETATM   13  C   UNL     1      -8.447   6.007  71.445  1.00  0.00    -0.128 C  
BRANCH  13  14
HETATM   14  S   UNL     1      -9.065   6.627  73.039  1.00  0.00    -0.127 SA 
BRANCH  14  15
HETATM   15  C   UNL     1     -10.589   7.347  72.585  1.00  0.00    -0.275 A  
HETATM   16  N   UNL     1     -10.714   8.616  72.255  1.00  0.00    -0.346 NA 
HETATM   17  S   UNL     1     -12.067   6.481  72.614  1.00  0.00     0.252 SA 
HETATM   18  N   UNL     1     -12.029   8.975  72.044  1.00  0.00    -0.368 NA 
HETATM   19  C   UNL     1     -14.323   8.017  72.059  1.00  0.00    -0.511 C  
HETATM   20  C   UNL     1     -12.848   7.955  72.204  1.00  0.00    -0.201 A  
ENDBRANCH  14  15
ENDBRANCH  13  14
ENDBRANCH   4  13
BRANCH   8  21
HETATM   21  N   UNL     1      -8.882  11.150  67.668  1.00  0.00    -0.135 N  
HETATM   22  C   UNL     1      -9.335  12.122  66.800  1.00  0.00    -0.212 C  
HETATM   23  H   UNL     1      -8.797  11.362  68.662  1.00  0.00     0.000 HD 
HETATM   24  O   UNL     1      -9.602  11.875  65.626  1.00  0.00    -0.233 OA 
BRANCH  22  25
HETATM   25  C   UNL     1      -9.487  13.500  67.397  1.00  0.00    -0.225 C  
BRANCH  25  26
HETATM   26  N   UNL     1      -8.281  14.270  67.254  1.00  0.00    -0.199 NA 
HETATM   27  C   UNL     1      -8.130  15.575  66.912  1.00  0.00    -0.249 A  
HETATM   28  N   UNL     1      -6.859  15.887  67.014  1.00  0.00    -0.256 NA 
HETATM   29  N   UNL     1      -6.223  14.742  67.432  1.00  0.00    -0.322 NA 
HETATM   30  N   UNL     1      -7.088  13.749  67.592  1.00  0.00    -0.168 NA 
ENDBRANCH  25  26
ENDBRANCH  22  25
ENDBRANCH   8  21
TORSDOF 6
ENDMDL
MODEL      144
REMARK 921   NORMALIZED FREE ENERGY PREDICTED BY IDOCK:   -4.30 KCAL/MOL
REMARK 922        TOTAL FREE ENERGY PREDICTED BY IDOCK:   -6.79 KCAL/MOL
REMARK 923 INTER-LIGAND FREE ENERGY PREDICTED BY IDOCK:   -5.71 KCAL/MOL
REMARK 924 INTRA-LIGAND FREE ENERGY PREDICTED BY IDOCK:   -1.08 KCAL/MOL
REMARK 927      BINDING AFFINITY PREDICTED BY RF-SCORE:    0.00 PKD
ROOT
HETATM    1  C   UNL     1      -9.062   8.505  66.452  1.00  0.00    -0.184 C  
HETATM    2  S   UNL     1     -10.455   9.196  67.359  1.00  0.00    -0.245 SA 
HETATM    3  C   UNL     1     -10.154  10.874  66.756  1.00  0.00    -0.216 C  
HETATM    4  C   UNL     1      -8.726  11.357  66.967  1.00  0.00    -0.160 C  
HETATM    5  O   UNL     1      -5.314  10.292  67.681  1.00  0.00    -0.038 OA 
HETATM    6  CA  UNL     1      -7.655  10.505  67.006  1.00  0.00    -0.107 C  
HETATM    7  N   UNL     1      -7.842   9.154  66.898  1.00  0.00    -0.098 N  
HETATM    8  CA  UNL     1      -8.463   7.167  66.993  1.00  0.00    -0.122 C  
HETATM    9  C   UNL     1      -6.250  11.061  67.100  1.00  0.00    -0.075 C  
HETATM   10  O   UNL     1      -6.091   7.875  67.733  1.00  0.00    -0.043 OA 
HETATM   11  C   UNL     1      -7.182   8.029  67.234  1.00  0.00    -0.087 C  
HETATM   12  OXT UNL     1      -5.946  12.150  66.627  1.00  0.00    -0.226 OA 
ENDROOT
BRANCH   4  13
HETATM   13  C   UNL     1      -8.564  12.873  67.134  1.00  0.00    -0.198 C  
BRANCH  13  14
HETATM   14  S   UNL     1      -9.714  13.945  66.219  1.00  0.00    -0.266 SA 
BRANCH  14  15
HETATM   15  C   UNL     1     -10.525  14.795  67.512  1.00  0.00    -0.245 A  
HETATM   16  N   UNL     1     -10.870  16.064  67.430  1.00  0.00    -0.307 NA 
HETATM   17  S   UNL     1     -10.861  14.072  69.027  1.00  0.00    -0.214 SA 
HETATM   18  N   UNL     1     -11.395  16.539  68.614  1.00  0.00    -0.308 NA 
HETATM   19  C   UNL     1     -11.944  15.801  70.923  1.00  0.00    -0.453 C  
HETATM   20  C   UNL     1     -11.443  15.604  69.540  1.00  0.00    -0.344 A  
ENDBRANCH  14  15
ENDBRANCH  13  14
ENDBRANCH   4  13
BRANCH   8  21
HETATM   21  N   UNL     1      -9.052   6.594  68.247  1.00  0.00    -0.125 N  
HETATM   22  C   UNL     1      -9.277   5.238  68.366  1.00  0.00    -0.113 C  
HETATM   23  H   UNL     1      -9.290   7.214  69.022  1.00  0.00     0.000 HD 
HETATM   24  O   UNL     1      -8.869   4.434  67.531  1.00  0.00    -0.104 OA 
BRANCH  22  25
HETATM   25  C   UNL     1     -10.046   4.817  69.594  1.00  0.00    -0.205 C  
BRANCH  25  26
HETATM   26  N   UNL     1     -10.593   5.952  70.287  1.00  0.00    -0.261 NA 
HETATM   27  C   UNL     1     -11.834   6.496  70.200  1.00  0.00    -0.264 A  
HETATM   28  N   UNL     1     -11.931   7.453  71.093  1.00  0.00    -0.311 NA 
HETATM   29  N   UNL     1     -10.719   7.488  71.741  1.00  0.00    -0.210 NA 
HETATM   30  N   UNL     1      -9.896   6.566  71.260  1.00  0.00    -0.181 NA 
ENDBRANCH  25  26
ENDBRANCH  22  25
ENDBRANCH   8  21
TORSDOF 6
ENDMDL
MODEL      145
REMARK 921   NORMALIZED FREE ENERGY PREDICTED BY IDOCK:   -4.27 KCAL/MOL
REMARK 922        TOTAL FREE ENERGY PREDICTED BY IDOCK:   -6.75 KCAL/MOL
REMARK 923 INTER-LIGAND FREE ENERGY PREDICTED BY IDOCK:   -5.75 KCAL/MOL
REMARK 924 INTRA-LIGAND FREE ENERGY PREDICTED BY IDOCK:   -0.99 KCAL/MOL
REMARK 927      BINDING AFFINITY PREDICTED BY RF-SCORE:    0.00 PKD
ROOT
HETATM    1  C   UNL     1      -9.237   8.402  70.547  1.00  0.00    -0.151 C  
HETATM    2  S   UNL     1      -9.376   7.243  69.176  1.00  0.00    -0.145 SA 
HETATM    3  C   UNL     1      -9.274   8.544  67.925  1.00  0.00    -0.139 C  
HETATM    4  C   UNL     1     -10.266   9.679  68.134  1.00  0.00    -0.225 C  
HETATM    5  O   UNL     1     -12.486  11.265  70.551  1.00  0.00    -0.321 OA 
HETATM    6  CA  UNL     1     -10.731  10.036  69.370  1.00  0.00    -0.233 C  
HETATM    7  N   UNL     1     -10.344   9.341  70.483  1.00  0.00    -0.233 N  
HETATM    8  CA  UNL     1      -9.807   7.934  71.924  1.00  0.00    -0.178 C  
HETATM    9  C   UNL     1     -11.624  11.250  69.520  1.00  0.00    -0.328 C  
HETATM   10  O   UNL     1     -11.769   9.572  72.303  1.00  0.00    -0.108 OA 
HETATM   11  C   UNL     1     -10.804   9.122  71.730  1.00  0.00    -0.345 C  
HETATM   12  OXT UNL     1     -11.545  12.216  68.769  1.00  0.00    -0.277 OA 
ENDROOT
BRANCH   4  13
HETATM   13  C   UNL     1     -10.714  10.403  66.858  1.00  0.00    -0.207 C  
BRANCH  13  14
HETATM   14  S   UNL     1      -9.521  11.526  66.069  1.00  0.00    -0.232 SA 
BRANCH  14  15
HETATM   15  C   UNL     1      -8.944  10.564  64.731  1.00  0.00    -0.205 A  
HETATM   16  N   UNL     1      -9.631  10.391  63.621  1.00  0.00    -0.303 NA 
HETATM   17  S   UNL     1      -7.471   9.691  64.787  1.00  0.00    -0.129 SA 
HETATM   18  N   UNL     1      -9.019   9.504  62.760  1.00  0.00    -0.248 NA 
HETATM   19  C   UNL     1      -6.993   8.078  62.567  1.00  0.00    -0.086 C  
HETATM   20  C   UNL     1      -7.881   9.054  63.245  1.00  0.00    -0.135 A  
ENDBRANCH  14  15
ENDBRANCH  13  14
ENDBRANCH   4  13
BRANCH   8  21
HETATM   21  N   UNL     1     -10.470   6.591  71.988  1.00  0.00    -0.200 N  
HETATM   22  C   UNL     1     -10.687   5.968  73.199  1.00  0.00    -0.260 C  
HETATM   23  H   UNL     1     -10.764   6.133  71.125  1.00  0.00     0.000 HD 
HETATM   24  O   UNL     1     -10.495   6.539  74.270  1.00  0.00    -0.333 OA 
BRANCH  22  25
HETATM   25  C   UNL     1     -11.184   4.546  73.113  1.00  0.00    -0.250 C  
BRANCH  25  26
HETATM   26  N   UNL     1     -10.099   3.621  72.921  1.00  0.00    -0.147 NA 
HETATM   27  C   UNL     1      -9.871   2.428  73.526  1.00  0.00    -0.096 A  
HETATM   28  N   UNL     1      -8.822   1.871  72.964  1.00  0.00    -0.062 NA 
HETATM   29  N   UNL     1      -8.406   2.750  71.991  1.00  0.00    -0.058 NA 
HETATM   30  N   UNL     1      -9.189   3.819  71.950  1.00  0.00    -0.117 NA 
ENDBRANCH  25  26
ENDBRANCH  22  25
ENDBRANCH   8  21
TORSDOF 6
ENDMDL
MODEL      146
REMARK 921   NORMALIZED FREE ENERGY PREDICTED BY IDOCK:   -4.25 KCAL/MOL
REMARK 922        TOTAL FREE ENERGY PREDICTED BY IDOCK:   -6.72 KCAL/MOL
REMARK 923 INTER-LIGAND FREE ENERGY PREDICTED BY IDOCK:   -5.86 KCAL/MOL
REMARK 924 INTRA-LIGAND FREE ENERGY PREDICTED BY IDOCK:   -0.86 KCAL/MOL
REMARK 927      BINDING AFFINITY PREDICTED BY RF-SCORE:    0.00 PKD
ROOT
HETATM    1  C   UNL     1      -7.856  10.886  67.554  1.00  0.00    -0.114 C  
HETATM    2  S   UNL     1      -7.705  11.207  69.319  1.00  0.00     0.046 SA 
HETATM    3  C   UNL     1      -7.182   9.517  69.691  1.00  0.00    -0.076 C  
HETATM    4  C   UNL     1      -8.112   8.448  69.135  1.00  0.00    -0.119 C  
HETATM    5  O   UNL     1     -10.779   7.798  66.738  1.00  0.00    -0.311 OA 
HETATM    6  CA  UNL     1      -8.863   8.636  68.007  1.00  0.00    -0.141 C  
HETATM    7  N   UNL     1      -8.837   9.835  67.349  1.00  0.00    -0.132 N  
HETATM    8  CA  UNL     1      -8.803  11.829  66.745  1.00  0.00    -0.191 C  
HETATM    9  C   UNL     1      -9.676   7.490  67.441  1.00  0.00    -0.159 C  
HETATM   10  O   UNL     1     -10.676  10.220  65.983  1.00  0.00    -0.093 OA 
HETATM   11  C   UNL     1      -9.626  10.524  66.503  1.00  0.00    -0.174 C  
HETATM   12  OXT UNL     1      -9.333   6.321  67.568  1.00  0.00    -0.115 OA 
ENDROOT
BRANCH   4  13
HETATM   13  C   UNL     1      -8.151   7.136  69.928  1.00  0.00    -0.125 C  
BRANCH  13  14
HETATM   14  S   UNL     1      -8.329   7.252  71.734  1.00  0.00    -0.104 SA 
BRANCH  14  15
HETATM   15  C   UNL     1     -10.035   7.580  71.912  1.00  0.00    -0.171 A  
HETATM   16  N   UNL     1     -10.537   8.240  72.935  1.00  0.00    -0.259 NA 
HETATM   17  S   UNL     1     -11.210   6.993  70.812  1.00  0.00    -0.301 SA 
HETATM   18  N   UNL     1     -11.915   8.275  72.910  1.00  0.00    -0.239 NA 
HETATM   19  C   UNL     1     -13.846   7.508  71.546  1.00  0.00    -0.487 C  
HETATM   20  C   UNL     1     -12.403   7.656  71.855  1.00  0.00    -0.306 A  
ENDBRANCH  14  15
ENDBRANCH  13  14
ENDBRANCH   4  13
BRANCH   8  21
HETATM   21  N   UNL     1      -9.552  12.885  67.502  1.00  0.00    -0.195 N  
HETATM   22  C   UNL     1      -8.947  14.080  67.833  1.00  0.00    -0.188 C  
HETATM   23  H   UNL     1     -10.520  12.718  67.776  1.00  0.00     0.000 HD 
HETATM   24  O   UNL     1      -7.842  14.394  67.396  1.00  0.00    -0.177 OA 
BRANCH  22  25
HETATM   25  C   UNL     1      -9.741  14.972  68.756  1.00  0.00    -0.227 C  
BRANCH  25  26
HETATM   26  N   UNL     1     -10.095  16.210  68.113  1.00  0.00    -0.233 NA 
HETATM   27  C   UNL     1     -10.028  17.477  68.594  1.00  0.00    -0.347 A  
HETATM   28  N   UNL     1     -10.346  18.305  67.626  1.00  0.00    -0.378 NA 
HETATM   29  N   UNL     1     -10.610  17.519  66.529  1.00  0.00    -0.249 NA 
HETATM   30  N   UNL     1     -10.449  16.234  66.816  1.00  0.00    -0.298 NA 
ENDBRANCH  25  26
ENDBRANCH  22  25
ENDBRANCH   8  21
TORSDOF 6
ENDMDL
MODEL      147
REMARK 921   NORMALIZED FREE ENERGY PREDICTED BY IDOCK:   -4.21 KCAL/MOL
REMARK 922        TOTAL FREE ENERGY PREDICTED BY IDOCK:   -6.67 KCAL/MOL
REMARK 923 INTER-LIGAND FREE ENERGY PREDICTED BY IDOCK:   -6.05 KCAL/MOL
REMARK 924 INTRA-LIGAND FREE ENERGY PREDICTED BY IDOCK:   -0.62 KCAL/MOL
REMARK 927      BINDING AFFINITY PREDICTED BY RF-SCORE:    0.00 PKD
ROOT
HETATM    1  C   UNL     1     -12.162  10.657  69.174  1.00  0.00     0.030 C  
HETATM    2  S   UNL     1     -12.013  11.836  70.526  1.00  0.00    -0.182 SA 
HETATM    3  C   UNL     1     -11.879  13.256  69.415  1.00  0.00    -0.329 C  
HETATM    4  C   UNL     1     -10.805  13.103  68.347  1.00  0.00    -0.283 C  
HETATM    5  O   UNL     1      -8.668  10.711  66.616  1.00  0.00    -0.135 OA 
HETATM    6  CA  UNL     1     -10.420  11.886  67.854  1.00  0.00    -0.204 C  
HETATM    7  N   UNL     1     -10.970  10.734  68.348  1.00  0.00    -0.228 N  
HETATM    8  CA  UNL     1     -11.765   9.177  69.483  1.00  0.00     0.551 C  
HETATM    9  C   UNL     1      -9.433  11.812  66.709  1.00  0.00    -0.193 C  
HETATM   10  O   UNL     1      -9.696   8.827  67.974  1.00  0.00    -0.150 OA 
HETATM   11  C   UNL     1     -10.646   9.429  68.422  1.00  0.00    -0.204 C  
HETATM   12  OXT UNL     1      -9.352  12.691  65.858  1.00  0.00    -0.147 OA 
ENDROOT
BRANCH   4  13
HETATM   13  C   UNL     1     -10.178  14.413  67.854  1.00  0.00    -0.232 C  
BRANCH  13  14
HETATM   14  S   UNL     1      -9.607  15.595  69.112  1.00  0.00    -0.267 SA 
BRANCH  14  15
HETATM   15  C   UNL     1      -9.631  17.104  68.233  1.00  0.00    -0.280 A  
HETATM   16  N   UNL     1      -9.217  18.243  68.749  1.00  0.00    -0.274 NA 
HETATM   17  S   UNL     1     -10.276  17.244  66.653  1.00  0.00    -0.310 SA 
HETATM   18  N   UNL     1      -9.438  19.311  67.905  1.00  0.00    -0.314 NA 
HETATM   19  C   UNL     1     -10.366  19.845  65.662  1.00  0.00    -0.426 C  
HETATM   20  C   UNL     1      -9.993  18.934  66.771  1.00  0.00    -0.360 A  
ENDBRANCH  14  15
ENDBRANCH  13  14
ENDBRANCH   4  13
BRANCH   8  21
HETATM   21  N   UNL     1     -11.240   8.865  70.853  1.00  0.00    -0.266 N  
HETATM   22  C   UNL     1     -11.684   7.756  71.542  1.00  0.00    -0.280 C  
HETATM   23  H   UNL     1     -10.548   9.481  71.280  1.00  0.00     0.000 HD 
HETATM   24  O   UNL     1     -12.395   6.902  71.016  1.00  0.00    -0.381 OA 
BRANCH  22  25
HETATM   25  C   UNL     1     -11.226   7.662  72.977  1.00  0.00    -0.333 C  
BRANCH  25  26
HETATM   26  N   UNL     1     -10.376   6.520  73.184  1.00  0.00    -0.214 NA 
HETATM   27  C   UNL     1     -10.717   5.222  73.392  1.00  0.00    -0.281 A  
HETATM   28  N   UNL     1      -9.618   4.504  73.418  1.00  0.00    -0.117 NA 
HETATM   29  N   UNL     1      -8.585   5.389  73.218  1.00  0.00    -0.117 NA 
HETATM   30  N   UNL     1      -9.041   6.625  73.063  1.00  0.00    -0.128 NA 
ENDBRANCH  25  26
ENDBRANCH  22  25
ENDBRANCH   8  21
TORSDOF 6
ENDMDL
MODEL      148
REMARK 921   NORMALIZED FREE ENERGY PREDICTED BY IDOCK:   -4.19 KCAL/MOL
REMARK 922        TOTAL FREE ENERGY PREDICTED BY IDOCK:   -6.65 KCAL/MOL
REMARK 923 INTER-LIGAND FREE ENERGY PREDICTED BY IDOCK:   -5.89 KCAL/MOL
REMARK 924 INTRA-LIGAND FREE ENERGY PREDICTED BY IDOCK:   -0.75 KCAL/MOL
REMARK 927      BINDING AFFINITY PREDICTED BY RF-SCORE:    0.00 PKD
ROOT
HETATM    1  C   UNL     1     -10.894   9.150  67.830  1.00  0.00    -0.092 C  
HETATM    2  S   UNL     1     -10.177   9.702  69.386  1.00  0.00    -0.224 SA 
HETATM    3  C   UNL     1     -10.845  11.374  69.224  1.00  0.00    -0.194 C  
HETATM    4  C   UNL     1     -10.518  12.042  67.896  1.00  0.00    -0.221 C  
HETATM    5  O   UNL     1      -9.396  11.449  64.480  1.00  0.00    -0.183 OA 
HETATM    6  CA  UNL     1     -10.319  11.335  66.742  1.00  0.00    -0.238 C  
HETATM    7  N   UNL     1     -10.365   9.967  66.752  1.00  0.00    -0.229 N  
HETATM    8  CA  UNL     1     -10.216   7.924  67.137  1.00  0.00    -0.290 C  
HETATM    9  C   UNL     1     -10.114  12.067  65.433  1.00  0.00    -0.256 C  
HETATM   10  O   UNL     1      -9.280   8.958  64.962  1.00  0.00    -0.130 OA 
HETATM   11  C   UNL     1      -9.897   8.950  66.003  1.00  0.00    -0.207 C  
HETATM   12  OXT UNL     1     -10.618  13.162  65.212  1.00  0.00    -0.296 OA 
ENDROOT
BRANCH   4  13
HETATM   13  C   UNL     1     -10.426  13.573  67.937  1.00  0.00    -0.250 C  
BRANCH  13  14
HETATM   14  S   UNL     1     -11.976  14.500  68.153  1.00  0.00    -0.204 SA 
BRANCH  14  15
HETATM   15  C   UNL     1     -11.886  14.973  69.832  1.00  0.00    -0.324 A  
HETATM   16  N   UNL     1     -10.819  15.532  70.364  1.00  0.00    -0.324 NA 
HETATM   17  S   UNL     1     -13.149  14.669  70.948  1.00  0.00    -0.323 SA 
HETATM   18  N   UNL     1     -10.947  15.712  71.726  1.00  0.00    -0.080 NA 
HETATM   19  C   UNL     1     -12.556  15.345  73.584  1.00  0.00    -0.723 C  
HETATM   20  C   UNL     1     -12.116  15.299  72.168  1.00  0.00    -0.396 A  
ENDBRANCH  14  15
ENDBRANCH  13  14
ENDBRANCH   4  13
BRANCH   8  21
HETATM   21  N   UNL     1      -8.997   7.341  67.786  1.00  0.00    -0.127 N  
HETATM   22  C   UNL     1      -8.622   6.036  67.540  1.00  0.00    -0.106 C  
HETATM   23  H   UNL     1      -8.438   7.915  68.417  1.00  0.00     0.000 HD 
HETATM   24  O   UNL     1      -9.167   5.354  66.675  1.00  0.00    -0.126 OA 
BRANCH  22  25
HETATM   25  C   UNL     1      -7.495   5.515  68.398  1.00  0.00    -0.077 C  
BRANCH  25  26
HETATM   26  N   UNL     1      -7.739   4.161  68.819  1.00  0.00    -0.058 NA 
HETATM   27  C   UNL     1      -7.005   3.044  68.585  1.00  0.00    -0.048 A  
HETATM   28  N   UNL     1      -7.541   2.048  69.253  1.00  0.00    -0.043 NA 
HETATM   29  N   UNL     1      -8.626   2.577  69.911  1.00  0.00    -0.055 NA 
HETATM   30  N   UNL     1      -8.749   3.873  69.660  1.00  0.00    -0.072 NA 
ENDBRANCH  25  26
ENDBRANCH  22  25
ENDBRANCH   8  21
TORSDOF 6
ENDMDL
MODEL      149
REMARK 921   NORMALIZED FREE ENERGY PREDICTED BY IDOCK:   -4.18 KCAL/MOL
REMARK 922        TOTAL FREE ENERGY PREDICTED BY IDOCK:   -6.63 KCAL/MOL
REMARK 923 INTER-LIGAND FREE ENERGY PREDICTED BY IDOCK:   -5.59 KCAL/MOL
REMARK 924 INTRA-LIGAND FREE ENERGY PREDICTED BY IDOCK:   -1.04 KCAL/MOL
REMARK 927      BINDING AFFINITY PREDICTED BY RF-SCORE:    0.00 PKD
ROOT
HETATM    1  C   UNL     1      -7.812   7.255  68.550  1.00  0.00    -0.122 C  
HETATM    2  S   UNL     1      -7.857   8.614  67.370  1.00  0.00    -0.098 SA 
HETATM    3  C   UNL     1      -8.443   9.802  68.600  1.00  0.00    -0.116 C  
HETATM    4  C   UNL     1      -9.680   9.344  69.360  1.00  0.00    -0.181 C  
HETATM    5  O   UNL     1     -11.730   6.453  70.212  1.00  0.00    -0.411 OA 
HETATM    6  CA  UNL     1      -9.963   8.024  69.583  1.00  0.00    -0.188 C  
HETATM    7  N   UNL     1      -9.148   7.047  69.080  1.00  0.00    -0.136 N  
HETATM    8  CA  UNL     1      -7.898   5.809  67.962  1.00  0.00    -0.100 C  
HETATM    9  C   UNL     1     -11.145   7.641  70.448  1.00  0.00    -0.258 C  
HETATM   10  O   UNL     1     -10.156   4.962  68.890  1.00  0.00    -0.171 OA 
HETATM   11  C   UNL     1      -9.240   5.742  68.759  1.00  0.00    -0.118 C  
HETATM   12  OXT UNL     1     -11.540   8.350  71.366  1.00  0.00    -0.265 OA 
ENDROOT
BRANCH   4  13
HETATM   13  C   UNL     1     -10.594  10.468  69.865  1.00  0.00    -0.211 C  
BRANCH  13  14
HETATM   14  S   UNL     1     -12.017  10.921  68.828  1.00  0.00    -0.025 SA 
BRANCH  14  15
HETATM   15  C   UNL     1     -11.411  12.315  67.967  1.00  0.00    -0.321 A  
HETATM   16  N   UNL     1     -10.747  13.289  68.555  1.00  0.00    -0.257 NA 
HETATM   17  S   UNL     1     -11.706  12.573  66.300  1.00  0.00    -0.388 SA 
HETATM   18  N   UNL     1     -10.471  14.328  67.691  1.00  0.00    -0.247 NA 
HETATM   19  C   UNL     1     -10.794  15.017  65.325  1.00  0.00    -0.399 C  
HETATM   20  C   UNL     1     -10.921  14.091  66.476  1.00  0.00    -0.306 A  
ENDBRANCH  14  15
ENDBRANCH  13  14
ENDBRANCH   4  13
BRANCH   8  21
HETATM   21  N   UNL     1      -8.067   5.666  66.479  1.00  0.00    -0.105 N  
HETATM   22  C   UNL     1      -7.579   4.558  65.817  1.00  0.00    -0.082 C  
HETATM   23  H   UNL     1      -8.547   6.396  65.954  1.00  0.00     0.000 HD 
HETATM   24  O   UNL     1      -7.133   3.583  66.418  1.00  0.00    -0.060 OA 
BRANCH  22  25
HETATM   25  C   UNL     1      -7.644   4.627  64.311  1.00  0.00    -0.072 C  
BRANCH  25  26
HETATM   26  N   UNL     1      -8.961   4.313  63.826  1.00  0.00    -0.134 NA 
HETATM   27  C   UNL     1      -9.389   4.143  62.550  1.00  0.00    -0.120 A  
HETATM   28  N   UNL     1     -10.644   3.758  62.581  1.00  0.00    -0.202 NA 
HETATM   29  N   UNL     1     -10.985   3.689  63.911  1.00  0.00    -0.302 NA 
HETATM   30  N   UNL     1      -9.957   4.018  64.682  1.00  0.00    -0.194 NA 
ENDBRANCH  25  26
ENDBRANCH  22  25
ENDBRANCH   8  21
TORSDOF 6
ENDMDL
MODEL      150
REMARK 921   NORMALIZED FREE ENERGY PREDICTED BY IDOCK:   -4.18 KCAL/MOL
REMARK 922        TOTAL FREE ENERGY PREDICTED BY IDOCK:   -6.62 KCAL/MOL
REMARK 923 INTER-LIGAND FREE ENERGY PREDICTED BY IDOCK:   -5.30 KCAL/MOL
REMARK 924 INTRA-LIGAND FREE ENERGY PREDICTED BY IDOCK:   -1.32 KCAL/MOL
REMARK 927      BINDING AFFINITY PREDICTED BY RF-SCORE:    0.00 PKD
ROOT
HETATM    1  C   UNL     1      -9.734   8.862  71.882  1.00  0.00    -0.279 C  
HETATM    2  S   UNL     1      -8.580   8.158  70.693  1.00  0.00    -0.135 SA 
HETATM    3  C   UNL     1      -8.323   9.734  69.847  1.00  0.00    -0.184 C  
HETATM    4  C   UNL     1      -9.612  10.422  69.420  1.00  0.00    -0.213 C  
HETATM    5  O   UNL     1     -13.220  10.529  69.927  1.00  0.00    -0.025 OA 
HETATM    6  CA  UNL     1     -10.794  10.257  70.089  1.00  0.00    -0.302 C  
HETATM    7  N   UNL     1     -10.869   9.415  71.165  1.00  0.00    -0.331 N  
HETATM    8  CA  UNL     1     -10.736   7.874  72.561  1.00  0.00    -0.328 C  
HETATM    9  C   UNL     1     -12.011  11.062  69.683  1.00  0.00    -0.353 C  
HETATM   10  O   UNL     1     -13.019   8.689  71.666  1.00  0.00    -0.325 OA 
HETATM   11  C   UNL     1     -11.819   8.723  71.823  1.00  0.00    -0.344 C  
HETATM   12  OXT UNL     1     -11.919  12.182  69.194  1.00  0.00    -0.299 OA 
ENDROOT
BRANCH   4  13
HETATM   13  C   UNL     1      -9.499  11.319  68.181  1.00  0.00    -0.184 C  
BRANCH  13  14
HETATM   14  S   UNL     1      -9.884  10.573  66.568  1.00  0.00    -0.214 SA 
BRANCH  14  15
HETATM   15  C   UNL     1      -8.783   9.218  66.520  1.00  0.00    -0.132 A  
HETATM   16  N   UNL     1      -7.501   9.344  66.250  1.00  0.00    -0.096 NA 
HETATM   17  S   UNL     1      -9.299   7.599  66.737  1.00  0.00    -0.182 SA 
HETATM   18  N   UNL     1      -6.863   8.124  66.161  1.00  0.00    -0.057 NA 
HETATM   19  C   UNL     1      -7.310   5.687  66.355  1.00  0.00    -0.078 C  
HETATM   20  C   UNL     1      -7.686   7.122  66.388  1.00  0.00    -0.100 A  
ENDBRANCH  14  15
ENDBRANCH  13  14
ENDBRANCH   4  13
BRANCH   8  21
HETATM   21  N   UNL     1     -10.699   6.437  72.134  1.00  0.00    -0.220 N  
HETATM   22  C   UNL     1     -10.175   5.467  72.964  1.00  0.00    -0.188 C  
HETATM   23  H   UNL     1     -11.065   6.173  71.220  1.00  0.00     0.000 HD 
HETATM   24  O   UNL     1      -9.865   5.704  74.130  1.00  0.00    -0.165 OA 
BRANCH  22  25
HETATM   25  C   UNL     1     -10.021   4.100  72.343  1.00  0.00    -0.166 C  
BRANCH  25  26
HETATM   26  N   UNL     1      -9.029   4.105  71.301  1.00  0.00    -0.109 NA 
HETATM   27  C   UNL     1      -7.879   3.391  71.207  1.00  0.00    -0.059 A  
HETATM   28  N   UNL     1      -7.338   3.629  70.034  1.00  0.00    -0.041 NA 
HETATM   29  N   UNL     1      -8.184   4.509  69.401  1.00  0.00    -0.068 NA 
HETATM   30  N   UNL     1      -9.228   4.798  70.165  1.00  0.00    -0.126 NA 
ENDBRANCH  25  26
ENDBRANCH  22  25
ENDBRANCH   8  21
TORSDOF 6
ENDMDL
MODEL      151
REMARK 921   NORMALIZED FREE ENERGY PREDICTED BY IDOCK:   -4.15 KCAL/MOL
REMARK 922        TOTAL FREE ENERGY PREDICTED BY IDOCK:   -6.59 KCAL/MOL
REMARK 923 INTER-LIGAND FREE ENERGY PREDICTED BY IDOCK:   -5.98 KCAL/MOL
REMARK 924 INTRA-LIGAND FREE ENERGY PREDICTED BY IDOCK:   -0.61 KCAL/MOL
REMARK 927      BINDING AFFINITY PREDICTED BY RF-SCORE:    0.00 PKD
ROOT
HETATM    1  C   UNL     1      -8.963  11.893  67.432  1.00  0.00    -0.173 C  
HETATM    2  S   UNL     1      -7.352  12.008  68.229  1.00  0.00    -0.102 SA 
HETATM    3  C   UNL     1      -7.310  10.248  68.639  1.00  0.00    -0.083 C  
HETATM    4  C   UNL     1      -8.549   9.757  69.375  1.00  0.00    -0.168 C  
HETATM    5  O   UNL     1     -12.015  10.538  70.189  1.00  0.00    -0.281 OA 
HETATM    6  CA  UNL     1      -9.780  10.332  69.215  1.00  0.00    -0.225 C  
HETATM    7  N   UNL     1      -9.935  11.421  68.402  1.00  0.00    -0.198 N  
HETATM    8  CA  UNL     1      -9.799  13.210  67.341  1.00  0.00    -0.226 C  
HETATM    9  C   UNL     1     -10.992   9.720  69.886  1.00  0.00    -0.264 C  
HETATM   10  O   UNL     1     -11.836  12.683  68.842  1.00  0.00    -0.302 OA 
HETATM   11  C   UNL     1     -10.803  12.442  68.261  1.00  0.00    -0.237 C  
HETATM   12  OXT UNL     1     -11.079   8.517  70.107  1.00  0.00    -0.248 OA 
ENDROOT
BRANCH   4  13
HETATM   13  C   UNL     1      -8.324   8.565  70.315  1.00  0.00    -0.125 C  
BRANCH  13  14
HETATM   14  S   UNL     1      -7.031   8.729  71.583  1.00  0.00    -0.039 SA 
BRANCH  14  15
HETATM   15  C   UNL     1      -7.460   7.463  72.707  1.00  0.00    -0.077 A  
HETATM   16  N   UNL     1      -6.689   7.105  73.713  1.00  0.00    -0.069 NA 
HETATM   17  S   UNL     1      -8.881   6.521  72.541  1.00  0.00    -0.131 SA 
HETATM   18  N   UNL     1      -7.189   6.012  74.391  1.00  0.00    -0.087 NA 
HETATM   19  C   UNL     1      -9.113   4.439  74.376  1.00  0.00    -0.109 C  
HETATM   20  C   UNL     1      -8.330   5.598  73.881  1.00  0.00    -0.113 A  
ENDBRANCH  14  15
ENDBRANCH  13  14
ENDBRANCH   4  13
BRANCH   8  21
HETATM   21  N   UNL     1      -9.228  14.446  67.969  1.00  0.00    -0.187 N  
HETATM   22  C   UNL     1      -9.633  15.698  67.555  1.00  0.00    -0.224 C  
HETATM   23  H   UNL     1      -8.533  14.360  68.710  1.00  0.00     0.000 HD 
HETATM   24  O   UNL     1     -10.574  15.857  66.781  1.00  0.00    -0.314 OA 
BRANCH  22  25
HETATM   25  C   UNL     1      -8.846  16.852  68.127  1.00  0.00    -0.223 C  
BRANCH  25  26
HETATM   26  N   UNL     1      -9.276  18.108  67.573  1.00  0.00    -0.256 NA 
HETATM   27  C   UNL     1      -8.850  18.743  66.452  1.00  0.00    -0.291 A  
HETATM   28  N   UNL     1      -9.597  19.807  66.268  1.00  0.00    -0.405 NA 
HETATM   29  N   UNL     1     -10.502  19.815  67.304  1.00  0.00    -0.445 NA 
HETATM   30  N   UNL     1     -10.320  18.772  68.102  1.00  0.00    -0.378 NA 
ENDBRANCH  25  26
ENDBRANCH  22  25
ENDBRANCH   8  21
TORSDOF 6
ENDMDL
MODEL      152
REMARK 921   NORMALIZED FREE ENERGY PREDICTED BY IDOCK:   -4.15 KCAL/MOL
REMARK 922        TOTAL FREE ENERGY PREDICTED BY IDOCK:   -6.59 KCAL/MOL
REMARK 923 INTER-LIGAND FREE ENERGY PREDICTED BY IDOCK:   -5.97 KCAL/MOL
REMARK 924 INTRA-LIGAND FREE ENERGY PREDICTED BY IDOCK:   -0.61 KCAL/MOL
REMARK 927      BINDING AFFINITY PREDICTED BY RF-SCORE:    0.00 PKD
ROOT
HETATM    1  C   UNL     1      -9.745   8.904  71.715  1.00  0.00    -0.295 C  
HETATM    2  S   UNL     1      -8.698   7.980  70.578  1.00  0.00    -0.137 SA 
HETATM    3  C   UNL     1      -8.267   9.448  69.615  1.00  0.00    -0.136 C  
HETATM    4  C   UNL     1      -9.471  10.250  69.142  1.00  0.00    -0.225 C  
HETATM    5  O   UNL     1     -13.034  10.824  69.654  1.00  0.00    -0.137 OA 
HETATM    6  CA  UNL     1     -10.656  10.278  69.826  1.00  0.00    -0.271 C  
HETATM    7  N   UNL     1     -10.816   9.533  70.963  1.00  0.00    -0.329 N  
HETATM    8  CA  UNL     1     -10.848   8.095  72.471  1.00  0.00    -0.361 C  
HETATM    9  C   UNL     1     -11.773  11.190  69.365  1.00  0.00    -0.332 C  
HETATM   10  O   UNL     1     -13.030   9.108  71.526  1.00  0.00    -0.326 OA 
HETATM   11  C   UNL     1     -11.833   9.010  71.675  1.00  0.00    -0.360 C  
HETATM   12  OXT UNL     1     -11.556  12.251  68.792  1.00  0.00    -0.281 OA 
ENDROOT
BRANCH   4  13
HETATM   13  C   UNL     1      -9.268  11.032  67.838  1.00  0.00    -0.155 C  
BRANCH  13  14
HETATM   14  S   UNL     1      -9.865  10.268  66.300  1.00  0.00    -0.231 SA 
BRANCH  14  15
HETATM   15  C   UNL     1      -9.494   8.582  66.562  1.00  0.00    -0.218 A  
HETATM   16  N   UNL     1      -8.328   8.048  66.263  1.00  0.00    -0.114 NA 
HETATM   17  S   UNL     1     -10.648   7.462  67.152  1.00  0.00    -0.324 SA 
HETATM   18  N   UNL     1      -8.313   6.683  66.457  1.00  0.00    -0.113 NA 
HETATM   19  C   UNL     1      -9.772   4.819  67.214  1.00  0.00    -0.210 C  
HETATM   20  C   UNL     1      -9.465   6.239  66.915  1.00  0.00    -0.138 A  
ENDBRANCH  14  15
ENDBRANCH  13  14
ENDBRANCH   4  13
BRANCH   8  21
HETATM   21  N   UNL     1     -10.987   6.636  72.153  1.00  0.00    -0.236 N  
HETATM   22  C   UNL     1     -10.039   5.728  72.576  1.00  0.00    -0.180 C  
HETATM   23  H   UNL     1     -11.793   6.311  71.618  1.00  0.00     0.000 HD 
HETATM   24  O   UNL     1      -9.136   6.041  73.350  1.00  0.00    -0.132 OA 
BRANCH  22  25
HETATM   25  C   UNL     1     -10.195   4.330  72.030  1.00  0.00    -0.150 C  
BRANCH  25  26
HETATM   26  N   UNL     1      -9.964   3.340  73.047  1.00  0.00    -0.132 NA 
HETATM   27  C   UNL     1     -10.857   2.711  73.853  1.00  0.00    -0.196 A  
HETATM   28  N   UNL     1     -10.217   1.803  74.553  1.00  0.00    -0.110 NA 
HETATM   29  N   UNL     1      -8.902   1.882  74.160  1.00  0.00    -0.064 NA 
HETATM   30  N   UNL     1      -8.739   2.814  73.231  1.00  0.00    -0.078 NA 
ENDBRANCH  25  26
ENDBRANCH  22  25
ENDBRANCH   8  21
TORSDOF 6
ENDMDL
MODEL      153
REMARK 921   NORMALIZED FREE ENERGY PREDICTED BY IDOCK:   -4.12 KCAL/MOL
REMARK 922        TOTAL FREE ENERGY PREDICTED BY IDOCK:   -6.54 KCAL/MOL
REMARK 923 INTER-LIGAND FREE ENERGY PREDICTED BY IDOCK:   -5.76 KCAL/MOL
REMARK 924 INTRA-LIGAND FREE ENERGY PREDICTED BY IDOCK:   -0.79 KCAL/MOL
REMARK 927      BINDING AFFINITY PREDICTED BY RF-SCORE:    0.00 PKD
ROOT
HETATM    1  C   UNL     1     -10.294   9.963  67.987  1.00  0.00    -0.203 C  
HETATM    2  S   UNL     1      -8.518   9.708  68.137  1.00  0.00    -0.119 SA 
HETATM    3  C   UNL     1      -8.691   7.939  68.463  1.00  0.00    -0.131 C  
HETATM    4  C   UNL     1      -9.658   7.612  69.593  1.00  0.00    -0.160 C  
HETATM    5  O   UNL     1     -12.369   8.926  71.644  1.00  0.00    -0.307 OA 
HETATM    6  CA  UNL     1     -10.721   8.413  69.911  1.00  0.00    -0.227 C  
HETATM    7  N   UNL     1     -10.931   9.585  69.237  1.00  0.00    -0.190 N  
HETATM    8  CA  UNL     1     -10.821  11.412  68.241  1.00  0.00    -0.209 C  
HETATM    9  C   UNL     1     -11.712   7.969  70.966  1.00  0.00    -0.277 C  
HETATM   10  O   UNL     1     -12.251  11.122  70.374  1.00  0.00    -0.318 OA 
HETATM   11  C   UNL     1     -11.564  10.754  69.448  1.00  0.00    -0.308 C  
HETATM   12  OXT UNL     1     -11.956   6.787  71.177  1.00  0.00    -0.339 OA 
ENDROOT
BRANCH   4  13
HETATM   13  C   UNL     1      -9.361   6.315  70.357  1.00  0.00    -0.161 C  
BRANCH  13  14
HETATM   14  S   UNL     1     -10.010   4.765  69.661  1.00  0.00    -0.201 SA 
BRANCH  14  15
HETATM   15  C   UNL     1      -8.962   4.516  68.287  1.00  0.00    -0.116 A  
HETATM   16  N   UNL     1      -7.664   4.323  68.399  1.00  0.00    -0.070 NA 
HETATM   17  S   UNL     1      -9.523   4.587  66.670  1.00  0.00    -0.191 SA 
HETATM   18  N   UNL     1      -7.036   4.262  67.172  1.00  0.00    -0.066 NA 
HETATM   19  C   UNL     1      -7.527   4.381  64.739  1.00  0.00    -0.072 C  
HETATM   20  C   UNL     1      -7.889   4.392  66.177  1.00  0.00    -0.095 A  
ENDBRANCH  14  15
ENDBRANCH  13  14
ENDBRANCH   4  13
BRANCH   8  21
HETATM   21  N   UNL     1      -9.825  12.459  68.641  1.00  0.00    -0.387 N  
HETATM   22  C   UNL     1      -9.647  13.593  67.875  1.00  0.00    -0.223 C  
HETATM   23  H   UNL     1      -9.273  12.332  69.489  1.00  0.00     0.000 HD 
HETATM   24  O   UNL     1     -10.389  13.869  66.936  1.00  0.00    -0.262 OA 
BRANCH  22  25
HETATM   25  C   UNL     1      -8.486  14.469  68.280  1.00  0.00    -0.161 C  
BRANCH  25  26
HETATM   26  N   UNL     1      -7.230  13.892  67.883  1.00  0.00    -0.139 NA 
HETATM   27  C   UNL     1      -5.968  14.294  68.181  1.00  0.00    -0.134 A  
HETATM   28  N   UNL     1      -5.126  13.409  67.700  1.00  0.00    -0.290 NA 
HETATM   29  N   UNL     1      -5.898  12.444  67.096  1.00  0.00    -0.278 NA 
HETATM   30  N   UNL     1      -7.188  12.727  67.212  1.00  0.00    -0.124 NA 
ENDBRANCH  25  26
ENDBRANCH  22  25
ENDBRANCH   8  21
TORSDOF 6
ENDMDL
MODEL      154
REMARK 921   NORMALIZED FREE ENERGY PREDICTED BY IDOCK:   -4.06 KCAL/MOL
REMARK 922        TOTAL FREE ENERGY PREDICTED BY IDOCK:   -6.47 KCAL/MOL
REMARK 923 INTER-LIGAND FREE ENERGY PREDICTED BY IDOCK:   -5.91 KCAL/MOL
REMARK 924 INTRA-LIGAND FREE ENERGY PREDICTED BY IDOCK:   -0.56 KCAL/MOL
REMARK 927      BINDING AFFINITY PREDICTED BY RF-SCORE:    0.00 PKD
ROOT
HETATM    1  C   UNL     1     -10.881   9.027  67.544  1.00  0.00    -0.060 C  
HETATM    2  S   UNL     1     -10.407  10.312  68.712  1.00  0.00    -0.208 SA 
HETATM    3  C   UNL     1     -10.974  11.649  67.636  1.00  0.00    -0.239 C  
HETATM    4  C   UNL     1     -10.409  11.585  66.224  1.00  0.00    -0.280 C  
HETATM    5  O   UNL     1      -8.769   9.430  63.785  1.00  0.00    -0.211 OA 
HETATM    6  CA  UNL     1     -10.052  10.409  65.623  1.00  0.00    -0.269 C  
HETATM    7  N   UNL     1     -10.152   9.226  66.304  1.00  0.00    -0.276 N  
HETATM    8  CA  UNL     1     -10.147   7.654  67.672  1.00  0.00    -0.192 C  
HETATM    9  C   UNL     1      -9.609  10.403  64.175  1.00  0.00    -0.322 C  
HETATM   10  O   UNL     1      -8.829   7.516  65.453  1.00  0.00    -0.059 OA 
HETATM   11  C   UNL     1      -9.607   7.995  66.246  1.00  0.00    -0.152 C  
HETATM   12  OXT UNL     1     -10.027  11.219  63.361  1.00  0.00    -0.318 OA 
ENDROOT
BRANCH   4  13
HETATM   13  C   UNL     1     -10.267  12.936  65.512  1.00  0.00    -0.287 C  
BRANCH  13  14
HETATM   14  S   UNL     1     -11.391  14.273  66.018  1.00  0.00    -0.341 SA 
BRANCH  14  15
HETATM   15  C   UNL     1     -10.302  15.632  66.155  1.00  0.00    -0.316 A  
HETATM   16  N   UNL     1     -10.532  16.797  65.584  1.00  0.00    -0.527 NA 
HETATM   17  S   UNL     1      -8.801  15.536  66.973  1.00  0.00    -0.250 SA 
HETATM   18  N   UNL     1      -9.479  17.673  65.742  1.00  0.00    -0.499 NA 
HETATM   19  C   UNL     1      -7.226  17.825  66.780  1.00  0.00    -0.241 C  
HETATM   20  C   UNL     1      -8.500  17.143  66.446  1.00  0.00    -0.272 A  
ENDBRANCH  14  15
ENDBRANCH  13  14
ENDBRANCH   4  13
BRANCH   8  21
HETATM   21  N   UNL     1      -9.073   7.529  68.711  1.00  0.00    -0.136 N  
HETATM   22  C   UNL     1      -8.796   6.311  69.297  1.00  0.00    -0.123 C  
HETATM   23  H   UNL     1      -8.541   8.354  68.988  1.00  0.00     0.000 HD 
HETATM   24  O   UNL     1      -9.297   5.264  68.892  1.00  0.00    -0.114 OA 
BRANCH  22  25
HETATM   25  C   UNL     1      -7.833   6.357  70.457  1.00  0.00    -0.107 C  
BRANCH  25  26
HETATM   26  N   UNL     1      -6.739   5.441  70.269  1.00  0.00    -0.045 NA 
HETATM   27  C   UNL     1      -6.141   4.621  71.169  1.00  0.00    -0.018 A  
HETATM   28  N   UNL     1      -5.261   3.881  70.535  1.00  0.00    -0.004 NA 
HETATM   29  N   UNL     1      -5.329   4.262  69.216  1.00  0.00    -0.011 NA 
HETATM   30  N   UNL     1      -6.239   5.210  69.042  1.00  0.00    -0.029 NA 
ENDBRANCH  25  26
ENDBRANCH  22  25
ENDBRANCH   8  21
TORSDOF 6
ENDMDL
MODEL      155
REMARK 921   NORMALIZED FREE ENERGY PREDICTED BY IDOCK:   -4.05 KCAL/MOL
REMARK 922        TOTAL FREE ENERGY PREDICTED BY IDOCK:   -6.46 KCAL/MOL
REMARK 923 INTER-LIGAND FREE ENERGY PREDICTED BY IDOCK:   -5.82 KCAL/MOL
REMARK 924 INTRA-LIGAND FREE ENERGY PREDICTED BY IDOCK:   -0.63 KCAL/MOL
REMARK 927      BINDING AFFINITY PREDICTED BY RF-SCORE:    0.00 PKD
ROOT
HETATM    1  C   UNL     1      -9.100  10.911  66.210  1.00  0.00    -0.176 C  
HETATM    2  S   UNL     1     -10.569  11.200  67.211  1.00  0.00    -0.254 SA 
HETATM    3  C   UNL     1     -10.473  12.995  67.025  1.00  0.00    -0.247 C  
HETATM    4  C   UNL     1      -9.115  13.580  67.386  1.00  0.00    -0.219 C  
HETATM    5  O   UNL     1      -5.599  12.788  67.933  1.00  0.00    -0.087 OA 
HETATM    6  CA  UNL     1      -7.949  12.876  67.257  1.00  0.00    -0.149 C  
HETATM    7  N   UNL     1      -7.969  11.576  66.831  1.00  0.00    -0.160 N  
HETATM    8  CA  UNL     1      -8.344   9.563  66.442  1.00  0.00    -0.119 C  
HETATM    9  C   UNL     1      -6.622  13.556  67.520  1.00  0.00    -0.117 C  
HETATM   10  O   UNL     1      -6.076  10.352  67.397  1.00  0.00    -0.053 OA 
HETATM   11  C   UNL     1      -7.178  10.489  66.915  1.00  0.00    -0.106 C  
HETATM   12  OXT UNL     1      -6.452  14.754  67.323  1.00  0.00    -0.300 OA 
ENDROOT
BRANCH   4  13
HETATM   13  C   UNL     1      -9.139  15.023  67.906  1.00  0.00    -0.180 C  
BRANCH  13  14
HETATM   14  S   UNL     1     -10.499  16.093  67.347  1.00  0.00    -0.310 SA 
BRANCH  14  15
HETATM   15  C   UNL     1      -9.681  17.615  67.085  1.00  0.00    -0.291 A  
HETATM   16  N   UNL     1      -9.546  18.162  65.895  1.00  0.00    -0.507 NA 
HETATM   17  S   UNL     1      -8.911  18.480  68.346  1.00  0.00    -0.324 SA 
HETATM   18  N   UNL     1      -8.770  19.302  65.928  1.00  0.00    -0.421 NA 
HETATM   19  C   UNL     1      -7.507  20.737  67.516  1.00  0.00    -0.337 C  
HETATM   20  C   UNL     1      -8.365  19.583  67.149  1.00  0.00    -0.290 A  
ENDBRANCH  14  15
ENDBRANCH  13  14
ENDBRANCH   4  13
BRANCH   8  21
HETATM   21  N   UNL     1      -8.860   8.646  67.510  1.00  0.00    -0.134 N  
HETATM   22  C   UNL     1      -8.183   7.489  67.835  1.00  0.00    -0.123 C  
HETATM   23  H   UNL     1      -9.723   8.880  68.002  1.00  0.00     0.000 HD 
HETATM   24  O   UNL     1      -7.066   7.239  67.386  1.00  0.00    -0.082 OA 
BRANCH  22  25
HETATM   25  C   UNL     1      -8.904   6.564  68.784  1.00  0.00    -0.125 C  
BRANCH  25  26
HETATM   26  N   UNL     1      -9.188   5.296  68.167  1.00  0.00    -0.111 NA 
HETATM   27  C   UNL     1      -9.202   4.056  68.718  1.00  0.00    -0.151 A  
HETATM   28  N   UNL     1      -9.622   3.203  67.812  1.00  0.00    -0.151 NA 
HETATM   29  N   UNL     1      -9.871   3.946  66.682  1.00  0.00    -0.165 NA 
HETATM   30  N   UNL     1      -9.618   5.231  66.893  1.00  0.00    -0.135 NA 
ENDBRANCH  25  26
ENDBRANCH  22  25
ENDBRANCH   8  21
TORSDOF 6
ENDMDL
MODEL      156
REMARK 921   NORMALIZED FREE ENERGY PREDICTED BY IDOCK:   -4.05 KCAL/MOL
REMARK 922        TOTAL FREE ENERGY PREDICTED BY IDOCK:   -6.45 KCAL/MOL
REMARK 923 INTER-LIGAND FREE ENERGY PREDICTED BY IDOCK:   -5.90 KCAL/MOL
REMARK 924 INTRA-LIGAND FREE ENERGY PREDICTED BY IDOCK:   -0.55 KCAL/MOL
REMARK 927      BINDING AFFINITY PREDICTED BY RF-SCORE:    0.00 PKD
ROOT
HETATM    1  C   UNL     1      -8.939   8.757  71.341  1.00  0.00    -0.238 C  
HETATM    2  S   UNL     1      -8.525   8.094  69.718  1.00  0.00    -0.126 SA 
HETATM    3  C   UNL     1      -8.949   9.630  68.864  1.00  0.00    -0.144 C  
HETATM    4  C   UNL     1     -10.337  10.157  69.197  1.00  0.00    -0.237 C  
HETATM    5  O   UNL     1     -13.098   9.941  71.566  1.00  0.00    -0.361 OA 
HETATM    6  CA  UNL     1     -10.949   9.921  70.398  1.00  0.00    -0.318 C  
HETATM    7  N   UNL     1     -10.338   9.148  71.346  1.00  0.00    -0.324 N  
HETATM    8  CA  UNL     1      -9.298   7.721  72.454  1.00  0.00    -0.169 C  
HETATM    9  C   UNL     1     -12.279  10.575  70.709  1.00  0.00    -0.369 C  
HETATM   10  O   UNL     1     -11.783   8.248  72.927  1.00  0.00    -0.348 OA 
HETATM   11  C   UNL     1     -10.700   8.410  72.413  1.00  0.00    -0.335 C  
HETATM   12  OXT UNL     1     -12.597  11.664  70.245  1.00  0.00    -0.187 OA 
ENDROOT
BRANCH   4  13
HETATM   13  C   UNL     1     -11.010  10.979  68.090  1.00  0.00    -0.247 C  
BRANCH  13  14
HETATM   14  S   UNL     1     -10.855  10.370  66.383  1.00  0.00     0.102 SA 
BRANCH  14  15
HETATM   15  C   UNL     1     -11.247  11.795  65.451  1.00  0.00    -0.251 A  
HETATM   16  N   UNL     1     -11.348  11.789  64.138  1.00  0.00    -0.359 NA 
HETATM   17  S   UNL     1     -11.447  13.339  66.163  1.00  0.00    -0.342 SA 
HETATM   18  N   UNL     1     -11.555  13.052  63.624  1.00  0.00    -0.464 NA 
HETATM   19  C   UNL     1     -11.825  15.415  64.344  1.00  0.00    -0.260 C  
HETATM   20  C   UNL     1     -11.622  13.963  64.572  1.00  0.00    -0.393 A  
ENDBRANCH  14  15
ENDBRANCH  13  14
ENDBRANCH   4  13
BRANCH   8  21
HETATM   21  N   UNL     1      -9.326   6.270  72.077  1.00  0.00    -0.152 N  
HETATM   22  C   UNL     1      -8.315   5.419  72.473  1.00  0.00    -0.114 C  
HETATM   23  H   UNL     1     -10.100   5.909  71.521  1.00  0.00     0.000 HD 
HETATM   24  O   UNL     1      -7.445   5.766  73.269  1.00  0.00    -0.093 OA 
BRANCH  22  25
HETATM   25  C   UNL     1      -8.362   4.036  71.870  1.00  0.00    -0.095 C  
BRANCH  25  26
HETATM   26  N   UNL     1      -7.048   3.461  71.773  1.00  0.00    -0.034 NA 
HETATM   27  C   UNL     1      -6.343   2.767  72.702  1.00  0.00    -0.013 A  
HETATM   28  N   UNL     1      -5.235   2.335  72.146  1.00  0.00     0.000 NA 
HETATM   29  N   UNL     1      -5.271   2.776  70.844  1.00  0.00    -0.004 NA 
HETATM   30  N   UNL     1      -6.383   3.457  70.603  1.00  0.00    -0.026 NA 
ENDBRANCH  25  26
ENDBRANCH  22  25
ENDBRANCH   8  21
TORSDOF 6
ENDMDL
MODEL      157
REMARK 921   NORMALIZED FREE ENERGY PREDICTED BY IDOCK:   -4.04 KCAL/MOL
REMARK 922        TOTAL FREE ENERGY PREDICTED BY IDOCK:   -6.43 KCAL/MOL
REMARK 923 INTER-LIGAND FREE ENERGY PREDICTED BY IDOCK:   -5.75 KCAL/MOL
REMARK 924 INTRA-LIGAND FREE ENERGY PREDICTED BY IDOCK:   -0.68 KCAL/MOL
REMARK 927      BINDING AFFINITY PREDICTED BY RF-SCORE:    0.00 PKD
ROOT
HETATM    1  C   UNL     1      -8.233   7.481  68.268  1.00  0.00    -0.125 C  
HETATM    2  S   UNL     1      -8.537   7.312  66.502  1.00  0.00    -0.139 SA 
HETATM    3  C   UNL     1      -8.944   9.061  66.296  1.00  0.00    -0.162 C  
HETATM    4  C   UNL     1     -10.010   9.563  67.260  1.00  0.00    -0.244 C  
HETATM    5  O   UNL     1     -11.764   8.842  70.372  1.00  0.00    -0.172 OA 
HETATM    6  CA  UNL     1     -10.198   9.020  68.502  1.00  0.00    -0.200 C  
HETATM    7  N   UNL     1      -9.446   7.953  68.912  1.00  0.00    -0.150 N  
HETATM    8  CA  UNL     1      -8.364   6.186  69.132  1.00  0.00    -0.116 C  
HETATM    9  C   UNL     1     -11.195   9.643  69.456  1.00  0.00    -0.109 C  
HETATM   10  O   UNL     1     -10.389   6.724  70.644  1.00  0.00    -0.198 OA 
HETATM   11  C   UNL     1      -9.542   6.955  69.811  1.00  0.00    -0.154 C  
HETATM   12  OXT UNL     1     -11.450  10.842  69.443  1.00  0.00    -0.249 OA 
ENDROOT
BRANCH   4  13
HETATM   13  C   UNL     1     -10.865  10.728  66.745  1.00  0.00    -0.194 C  
BRANCH  13  14
HETATM   14  S   UNL     1     -10.910  11.004  64.948  1.00  0.00    -0.048 SA 
BRANCH  14  15
HETATM   15  C   UNL     1     -11.301  12.704  64.851  1.00  0.00    -0.311 A  
HETATM   16  N   UNL     1     -12.355  13.163  64.210  1.00  0.00    -0.565 NA 
HETATM   17  S   UNL     1     -10.294  13.924  65.509  1.00  0.00    -0.343 SA 
HETATM   18  N   UNL     1     -12.390  14.542  64.179  1.00  0.00    -0.729 NA 
HETATM   19  C   UNL     1     -11.111  16.527  64.953  1.00  0.00    -0.199 C  
HETATM   20  C   UNL     1     -11.367  15.072  64.816  1.00  0.00    -0.406 A  
ENDBRANCH  14  15
ENDBRANCH  13  14
ENDBRANCH   4  13
BRANCH   8  21
HETATM   21  N   UNL     1      -8.784   4.923  68.441  1.00  0.00    -0.100 N  
HETATM   22  C   UNL     1      -8.971   3.757  69.154  1.00  0.00    -0.117 C  
HETATM   23  H   UNL     1      -8.932   4.927  67.432  1.00  0.00     0.000 HD 
HETATM   24  O   UNL     1      -8.957   3.734  70.383  1.00  0.00    -0.080 OA 
BRANCH  22  25
HETATM   25  C   UNL     1      -9.204   2.521  68.319  1.00  0.00    -0.202 C  
BRANCH  25  26
HETATM   26  N   UNL     1      -8.615   2.650  67.013  1.00  0.00    -0.102 NA 
HETATM   27  C   UNL     1      -9.167   3.116  65.864  1.00  0.00    -0.135 A  
HETATM   28  N   UNL     1      -8.232   3.160  64.943  1.00  0.00    -0.090 NA 
HETATM   29  N   UNL     1      -7.083   2.711  65.550  1.00  0.00    -0.056 NA 
HETATM   30  N   UNL     1      -7.306   2.406  66.822  1.00  0.00    -0.060 NA 
ENDBRANCH  25  26
ENDBRANCH  22  25
ENDBRANCH   8  21
TORSDOF 6
ENDMDL
MODEL      158
REMARK 921   NORMALIZED FREE ENERGY PREDICTED BY IDOCK:   -4.01 KCAL/MOL
REMARK 922        TOTAL FREE ENERGY PREDICTED BY IDOCK:   -6.40 KCAL/MOL
REMARK 923 INTER-LIGAND FREE ENERGY PREDICTED BY IDOCK:   -5.17 KCAL/MOL
REMARK 924 INTRA-LIGAND FREE ENERGY PREDICTED BY IDOCK:   -1.23 KCAL/MOL
REMARK 927      BINDING AFFINITY PREDICTED BY RF-SCORE:    0.00 PKD
ROOT
HETATM    1  C   UNL     1      -9.722  13.482  67.772  1.00  0.00    -0.226 C  
HETATM    2  S   UNL     1      -9.735  11.711  67.446  1.00  0.00    -0.177 SA 
HETATM    3  C   UNL     1      -8.749  11.326  68.912  1.00  0.00    -0.046 C  
HETATM    4  C   UNL     1      -7.457  12.125  69.013  1.00  0.00     0.039 C  
HETATM    5  O   UNL     1      -5.694  15.071  67.790  1.00  0.00    -0.203 OA 
HETATM    6  CA  UNL     1      -7.318  13.377  68.478  1.00  0.00    -0.111 C  
HETATM    7  N   UNL     1      -8.347  13.949  67.779  1.00  0.00    -0.160 N  
HETATM    8  CA  UNL     1      -9.959  14.424  66.548  1.00  0.00    -0.283 C  
HETATM    9  C   UNL     1      -6.047  14.164  68.717  1.00  0.00    -0.085 C  
HETATM   10  O   UNL     1      -7.697  15.656  66.343  1.00  0.00    -0.042 OA 
HETATM   11  C   UNL     1      -8.504  14.907  66.846  1.00  0.00    -0.223 C  
HETATM   12  OXT UNL     1      -5.377  14.030  69.734  1.00  0.00    -0.091 OA 
ENDROOT
BRANCH   4  13
HETATM   13  C   UNL     1      -6.312  11.430  69.761  1.00  0.00    -0.139 C  
BRANCH  13  14
HETATM   14  S   UNL     1      -5.209  10.356  68.793  1.00  0.00    -0.037 SA 
BRANCH  14  15
HETATM   15  C   UNL     1      -6.319   9.159  68.171  1.00  0.00    -0.055 A  
HETATM   16  N   UNL     1      -6.776   9.177  66.936  1.00  0.00    -0.075 NA 
HETATM   17  S   UNL     1      -6.976   7.912  69.144  1.00  0.00    -0.058 SA 
HETATM   18  N   UNL     1      -7.721   8.198  66.714  1.00  0.00    -0.094 NA 
HETATM   19  C   UNL     1      -8.893   6.340  67.876  1.00  0.00    -0.112 C  
HETATM   20  C   UNL     1      -7.929   7.464  67.787  1.00  0.00    -0.118 A  
ENDBRANCH  14  15
ENDBRANCH  13  14
ENDBRANCH   4  13
BRANCH   8  21
HETATM   21  N   UNL     1     -10.122  13.791  65.199  1.00  0.00    -0.538 N  
HETATM   22  C   UNL     1     -11.373  13.639  64.637  1.00  0.00    -0.366 C  
HETATM   23  H   UNL     1      -9.299  13.468  64.690  1.00  0.00     0.000 HD 
HETATM   24  O   UNL     1     -12.377  14.146  65.133  1.00  0.00    -0.418 OA 
BRANCH  22  25
HETATM   25  C   UNL     1     -11.417  12.818  63.371  1.00  0.00    -0.394 C  
BRANCH  25  26
HETATM   26  N   UNL     1     -10.421  11.780  63.383  1.00  0.00    -0.423 NA 
HETATM   27  C   UNL     1      -9.371  11.588  62.545  1.00  0.00     0.070 A  
HETATM   28  N   UNL     1      -8.659  10.580  62.996  1.00  0.00    -0.177 NA 
HETATM   29  N   UNL     1      -9.294  10.153  64.139  1.00  0.00    -0.270 NA 
HETATM   30  N   UNL     1     -10.368  10.889  64.390  1.00  0.00    -0.357 NA 
ENDBRANCH  25  26
ENDBRANCH  22  25
ENDBRANCH   8  21
TORSDOF 6
ENDMDL
MODEL      159
REMARK 921   NORMALIZED FREE ENERGY PREDICTED BY IDOCK:   -3.99 KCAL/MOL
REMARK 922        TOTAL FREE ENERGY PREDICTED BY IDOCK:   -6.38 KCAL/MOL
REMARK 923 INTER-LIGAND FREE ENERGY PREDICTED BY IDOCK:   -5.91 KCAL/MOL
REMARK 924 INTRA-LIGAND FREE ENERGY PREDICTED BY IDOCK:   -0.47 KCAL/MOL
REMARK 927      BINDING AFFINITY PREDICTED BY RF-SCORE:    0.00 PKD
ROOT
HETATM    1  C   UNL     1     -10.473  10.002  68.025  1.00  0.00    -0.218 C  
HETATM    2  S   UNL     1      -8.687   9.980  68.253  1.00  0.00    -0.120 SA 
HETATM    3  C   UNL     1      -8.714   8.413  69.154  1.00  0.00    -0.142 C  
HETATM    4  C   UNL     1      -9.684   8.394  70.328  1.00  0.00    -0.178 C  
HETATM    5  O   UNL     1     -12.564  10.057  71.817  1.00  0.00    -0.384 OA 
HETATM    6  CA  UNL     1     -10.823   9.151  70.358  1.00  0.00    -0.242 C  
HETATM    7  N   UNL     1     -11.114  10.005  69.329  1.00  0.00    -0.225 N  
HETATM    8  CA  UNL     1     -11.134  11.396  67.778  1.00  0.00    -0.265 C  
HETATM    9  C   UNL     1     -11.804   8.995  71.501  1.00  0.00    -0.345 C  
HETATM   10  O   UNL     1     -12.599  11.703  69.883  1.00  0.00    -0.093 OA 
HETATM   11  C   UNL     1     -11.854  11.113  69.135  1.00  0.00    -0.350 C  
HETATM   12  OXT UNL     1     -11.950   7.934  72.096  1.00  0.00    -0.303 OA 
ENDROOT
BRANCH   4  13
HETATM   13  C   UNL     1      -9.298   7.461  71.483  1.00  0.00    -0.144 C  
BRANCH  13  14
HETATM   14  S   UNL     1      -9.654   5.688  71.283  1.00  0.00    -0.163 SA 
BRANCH  14  15
HETATM   15  C   UNL     1      -8.210   5.114  70.486  1.00  0.00    -0.102 A  
HETATM   16  N   UNL     1      -7.016   5.165  71.039  1.00  0.00    -0.049 NA 
HETATM   17  S   UNL     1      -8.216   4.516  68.881  1.00  0.00    -0.080 SA 
HETATM   18  N   UNL     1      -6.022   4.756  70.174  1.00  0.00    -0.020 NA 
HETATM   19  C   UNL     1      -5.696   3.917  67.858  1.00  0.00    -0.022 C  
HETATM   20  C   UNL     1      -6.507   4.394  69.005  1.00  0.00    -0.040 A  
ENDBRANCH  14  15
ENDBRANCH  13  14
ENDBRANCH   4  13
BRANCH   8  21
HETATM   21  N   UNL     1     -10.247  12.605  67.804  1.00  0.00    -0.217 N  
HETATM   22  C   UNL     1      -9.919  13.265  66.637  1.00  0.00    -0.272 C  
HETATM   23  H   UNL     1      -9.882  12.944  68.694  1.00  0.00     0.000 HD 
HETATM   24  O   UNL     1     -10.452  12.995  65.563  1.00  0.00    -0.276 OA 
BRANCH  22  25
HETATM   25  C   UNL     1      -8.871  14.342  66.778  1.00  0.00    -0.200 C  
BRANCH  25  26
HETATM   26  N   UNL     1      -9.424  15.648  66.534  1.00  0.00    -0.252 NA 
HETATM   27  C   UNL     1      -8.785  16.821  66.297  1.00  0.00    -0.307 A  
HETATM   28  N   UNL     1      -9.685  17.735  66.017  1.00  0.00    -0.533 NA 
HETATM   29  N   UNL     1     -10.902  17.098  66.084  1.00  0.00    -0.071 NA 
HETATM   30  N   UNL     1     -10.751  15.817  66.390  1.00  0.00    -0.303 NA 
ENDBRANCH  25  26
ENDBRANCH  22  25
ENDBRANCH   8  21
TORSDOF 6
ENDMDL
MODEL      160
REMARK 921   NORMALIZED FREE ENERGY PREDICTED BY IDOCK:   -3.98 KCAL/MOL
REMARK 922        TOTAL FREE ENERGY PREDICTED BY IDOCK:   -6.36 KCAL/MOL
REMARK 923 INTER-LIGAND FREE ENERGY PREDICTED BY IDOCK:   -6.97 KCAL/MOL
REMARK 924 INTRA-LIGAND FREE ENERGY PREDICTED BY IDOCK:    0.61 KCAL/MOL
REMARK 927      BINDING AFFINITY PREDICTED BY RF-SCORE:    0.00 PKD
ROOT
HETATM    1  C   UNL     1     -11.667  11.600  67.341  1.00  0.00    -0.201 C  
HETATM    2  S   UNL     1     -10.085  11.181  66.590  1.00  0.00    -0.224 SA 
HETATM    3  C   UNL     1     -10.258   9.419  66.954  1.00  0.00    -0.248 C  
HETATM    4  C   UNL     1     -10.570   9.118  68.413  1.00  0.00    -0.217 C  
HETATM    5  O   UNL     1     -11.766  10.554  71.542  1.00  0.00    -0.194 OA 
HETATM    6  CA  UNL     1     -11.249   9.991  69.218  1.00  0.00    -0.166 C  
HETATM    7  N   UNL     1     -11.641  11.212  68.740  1.00  0.00    -0.295 N  
HETATM    8  CA  UNL     1     -11.848  13.074  67.827  1.00  0.00    -0.347 C  
HETATM    9  C   UNL     1     -11.631   9.581  70.625  1.00  0.00    -0.283 C  
HETATM   10  O   UNL     1     -12.062  12.796  70.387  1.00  0.00    -0.363 OA 
HETATM   11  C   UNL     1     -11.963  12.420  69.241  1.00  0.00    -0.253 C  
HETATM   12  OXT UNL     1     -11.861   8.415  70.925  1.00  0.00    -0.283 OA 
ENDROOT
BRANCH   4  13
HETATM   13  C   UNL     1     -10.072   7.761  68.925  1.00  0.00    -0.195 C  
BRANCH  13  14
HETATM   14  S   UNL     1      -8.361   7.672  69.535  1.00  0.00    -0.131 SA 
BRANCH  14  15
HETATM   15  C   UNL     1      -7.441   7.745  68.052  1.00  0.00    -0.108 A  
HETATM   16  N   UNL     1      -6.807   6.706  67.548  1.00  0.00    -0.073 NA 
HETATM   17  S   UNL     1      -7.214   9.198  67.174  1.00  0.00    -0.087 SA 
HETATM   18  N   UNL     1      -6.063   7.037  66.435  1.00  0.00    -0.034 NA 
HETATM   19  C   UNL     1      -5.494   8.981  64.995  1.00  0.00    -0.042 C  
HETATM   20  C   UNL     1      -6.178   8.313  66.129  1.00  0.00    -0.049 A  
ENDBRANCH  14  15
ENDBRANCH  13  14
ENDBRANCH   4  13
BRANCH   8  21
HETATM   21  N   UNL     1     -10.681  14.006  67.685  1.00  0.00    -0.255 N  
HETATM   22  C   UNL     1     -10.588  14.859  66.605  1.00  0.00    -0.305 C  
HETATM   23  H   UNL     1      -9.949  14.008  68.394  1.00  0.00     0.000 HD 
HETATM   24  O   UNL     1     -11.512  15.006  65.808  1.00  0.00    -0.327 OA 
BRANCH  22  25
HETATM   25  C   UNL     1      -9.280  15.601  66.480  1.00  0.00    -0.293 C  
BRANCH  25  26
HETATM   26  N   UNL     1      -9.492  17.002  66.230  1.00  0.00    -0.345 NA 
HETATM   27  C   UNL     1     -10.657  17.693  66.150  1.00  0.00    -0.220 A  
HETATM   28  N   UNL     1     -10.375  18.969  66.018  1.00  0.00    -0.489 NA 
HETATM   29  N   UNL     1      -9.003  19.053  66.022  1.00  0.00    -0.454 NA 
HETATM   30  N   UNL     1      -8.453  17.854  66.162  1.00  0.00    -0.489 NA 
ENDBRANCH  25  26
ENDBRANCH  22  25
ENDBRANCH   8  21
TORSDOF 6
ENDMDL
MODEL      161
REMARK 921   NORMALIZED FREE ENERGY PREDICTED BY IDOCK:   -3.98 KCAL/MOL
REMARK 922        TOTAL FREE ENERGY PREDICTED BY IDOCK:   -6.35 KCAL/MOL
REMARK 923 INTER-LIGAND FREE ENERGY PREDICTED BY IDOCK:   -5.30 KCAL/MOL
REMARK 924 INTRA-LIGAND FREE ENERGY PREDICTED BY IDOCK:   -1.05 KCAL/MOL
REMARK 927      BINDING AFFINITY PREDICTED BY RF-SCORE:    0.00 PKD
ROOT
HETATM    1  C   UNL     1      -9.957  11.296  68.554  1.00  0.00    -0.202 C  
HETATM    2  S   UNL     1     -10.887  10.400  67.299  1.00  0.00    -0.228 SA 
HETATM    3  C   UNL     1     -10.343   8.783  67.898  1.00  0.00    -0.224 C  
HETATM    4  C   UNL     1      -8.833   8.653  68.038  1.00  0.00    -0.141 C  
HETATM    5  O   UNL     1      -5.708  10.516  68.251  1.00  0.00    -0.041 OA 
HETATM    6  CA  UNL     1      -8.021   9.722  68.302  1.00  0.00    -0.096 C  
HETATM    7  N   UNL     1      -8.547  10.981  68.408  1.00  0.00    -0.143 N  
HETATM    8  CA  UNL     1      -9.586  12.779  68.230  1.00  0.00    -0.211 C  
HETATM    9  C   UNL     1      -6.543   9.506  68.547  1.00  0.00    -0.053 C  
HETATM   10  O   UNL     1      -7.007  12.692  68.090  1.00  0.00    -0.078 OA 
HETATM   11  C   UNL     1      -8.116  12.252  68.291  1.00  0.00    -0.166 C  
HETATM   12  OXT UNL     1      -6.107   8.473  69.043  1.00  0.00    -0.042 OA 
ENDROOT
BRANCH   4  13
HETATM   13  C   UNL     1      -8.277   7.234  67.864  1.00  0.00    -0.119 C  
BRANCH  13  14
HETATM   14  S   UNL     1      -9.020   5.914  68.871  1.00  0.00    -0.117 SA 
BRANCH  14  15
HETATM   15  C   UNL     1      -8.425   4.475  68.079  1.00  0.00    -0.098 A  
HETATM   16  N   UNL     1      -8.995   3.295  68.212  1.00  0.00    -0.124 NA 
HETATM   17  S   UNL     1      -6.998   4.462  67.132  1.00  0.00    -0.064 SA 
HETATM   18  N   UNL     1      -8.282   2.296  67.583  1.00  0.00    -0.064 NA 
HETATM   19  C   UNL     1      -6.228   1.943  66.228  1.00  0.00    -0.023 C  
HETATM   20  C   UNL     1      -7.208   2.764  66.981  1.00  0.00    -0.057 A  
ENDBRANCH  14  15
ENDBRANCH  13  14
ENDBRANCH   4  13
BRANCH   8  21
HETATM   21  N   UNL     1      -9.980  13.321  66.889  1.00  0.00    -0.245 N  
HETATM   22  C   UNL     1     -10.781  14.440  66.788  1.00  0.00    -0.292 C  
HETATM   23  H   UNL     1      -9.652  12.858  66.042  1.00  0.00     0.000 HD 
HETATM   24  O   UNL     1     -11.074  15.123  67.767  1.00  0.00    -0.293 OA 
BRANCH  22  25
HETATM   25  C   UNL     1     -11.259  14.768  65.395  1.00  0.00    -0.347 C  
BRANCH  25  26
HETATM   26  N   UNL     1     -11.798  13.607  64.738  1.00  0.00    -0.369 NA 
HETATM   27  C   UNL     1     -13.088  13.201  64.633  1.00  0.00     0.137 A  
HETATM   28  N   UNL     1     -13.130  12.147  63.851  1.00  0.00    -0.729 NA 
HETATM   29  N   UNL     1     -11.830  11.909  63.471  1.00  0.00    -0.486 NA 
HETATM   30  N   UNL     1     -11.008  12.805  64.001  1.00  0.00    -0.388 NA 
ENDBRANCH  25  26
ENDBRANCH  22  25
ENDBRANCH   8  21
TORSDOF 6
ENDMDL
MODEL      162
REMARK 921   NORMALIZED FREE ENERGY PREDICTED BY IDOCK:   -3.97 KCAL/MOL
REMARK 922        TOTAL FREE ENERGY PREDICTED BY IDOCK:   -6.34 KCAL/MOL
REMARK 923 INTER-LIGAND FREE ENERGY PREDICTED BY IDOCK:   -5.57 KCAL/MOL
REMARK 924 INTRA-LIGAND FREE ENERGY PREDICTED BY IDOCK:   -0.76 KCAL/MOL
REMARK 927      BINDING AFFINITY PREDICTED BY RF-SCORE:    0.00 PKD
ROOT
HETATM    1  C   UNL     1      -8.730   7.269  67.300  1.00  0.00    -0.121 C  
HETATM    2  S   UNL     1     -10.460   7.769  67.278  1.00  0.00    -0.318 SA 
HETATM    3  C   UNL     1     -10.171   9.097  66.086  1.00  0.00    -0.119 C  
HETATM    4  C   UNL     1      -9.053  10.051  66.485  1.00  0.00    -0.172 C  
HETATM    5  O   UNL     1      -6.157  10.477  68.656  1.00  0.00    -0.044 OA 
HETATM    6  CA  UNL     1      -7.993   9.665  67.258  1.00  0.00    -0.106 C  
HETATM    7  N   UNL     1      -7.922   8.389  67.748  1.00  0.00    -0.110 N  
HETATM    8  CA  UNL     1      -8.236   6.499  68.567  1.00  0.00    -0.121 C  
HETATM    9  C   UNL     1      -6.856  10.630  67.518  1.00  0.00    -0.078 C  
HETATM   10  O   UNL     1      -6.532   8.147  69.594  1.00  0.00    -0.036 OA 
HETATM   11  C   UNL     1      -7.316   7.746  68.765  1.00  0.00    -0.087 C  
HETATM   12  OXT UNL     1      -6.537  11.496  66.711  1.00  0.00    -0.134 OA 
ENDROOT
BRANCH   4  13
HETATM   13  C   UNL     1      -9.194  11.484  65.956  1.00  0.00    -0.217 C  
BRANCH  13  14
HETATM   14  S   UNL     1     -10.875  12.094  65.624  1.00  0.00    -0.294 SA 
BRANCH  14  15
HETATM   15  C   UNL     1     -10.699  13.811  65.887  1.00  0.00    -0.285 A  
HETATM   16  N   UNL     1     -10.130  14.617  65.014  1.00  0.00    -0.353 NA 
HETATM   17  S   UNL     1     -11.174  14.577  67.343  1.00  0.00    -0.340 SA 
HETATM   18  N   UNL     1     -10.008  15.905  65.493  1.00  0.00    -0.416 NA 
HETATM   19  C   UNL     1     -10.521  17.280  67.499  1.00  0.00    -0.356 C  
HETATM   20  C   UNL     1     -10.509  16.027  66.705  1.00  0.00    -0.308 A  
ENDBRANCH  14  15
ENDBRANCH  13  14
ENDBRANCH   4  13
BRANCH   8  21
HETATM   21  N   UNL     1      -9.216   6.286  69.683  1.00  0.00    -0.141 N  
HETATM   22  C   UNL     1      -9.132   5.173  70.492  1.00  0.00    -0.139 C  
HETATM   23  H   UNL     1      -9.952   6.973  69.845  1.00  0.00     0.000 HD 
HETATM   24  O   UNL     1      -8.179   4.398  70.440  1.00  0.00    -0.068 OA 
BRANCH  22  25
HETATM   25  C   UNL     1     -10.285   4.981  71.448  1.00  0.00    -0.200 C  
BRANCH  25  26
HETATM   26  N   UNL     1     -10.318   6.018  72.444  1.00  0.00    -0.190 NA 
HETATM   27  C   UNL     1      -9.301   6.543  73.173  1.00  0.00    -0.134 A  
HETATM   28  N   UNL     1      -9.770   7.544  73.881  1.00  0.00    -0.249 NA 
HETATM   29  N   UNL     1     -11.107   7.630  73.571  1.00  0.00    -0.216 NA 
HETATM   30  N   UNL     1     -11.450   6.705  72.684  1.00  0.00    -0.225 NA 
ENDBRANCH  25  26
ENDBRANCH  22  25
ENDBRANCH   8  21
TORSDOF 6
ENDMDL
MODEL      163
REMARK 921   NORMALIZED FREE ENERGY PREDICTED BY IDOCK:   -3.92 KCAL/MOL
REMARK 922        TOTAL FREE ENERGY PREDICTED BY IDOCK:   -6.27 KCAL/MOL
REMARK 923 INTER-LIGAND FREE ENERGY PREDICTED BY IDOCK:   -4.89 KCAL/MOL
REMARK 924 INTRA-LIGAND FREE ENERGY PREDICTED BY IDOCK:   -1.38 KCAL/MOL
REMARK 927      BINDING AFFINITY PREDICTED BY RF-SCORE:    0.00 PKD
ROOT
HETATM    1  C   UNL     1      -7.858   8.110  66.076  1.00  0.00    -0.093 C  
HETATM    2  S   UNL     1      -6.487   8.727  67.067  1.00  0.00    -0.061 SA 
HETATM    3  C   UNL     1      -5.910   7.068  67.494  1.00  0.00    -0.024 C  
HETATM    4  C   UNL     1      -6.993   6.170  68.075  1.00  0.00    -0.076 C  
HETATM    5  O   UNL     1     -10.592   5.728  68.443  1.00  0.00    -0.218 OA 
HETATM    6  CA  UNL     1      -8.317   6.308  67.758  1.00  0.00    -0.117 C  
HETATM    7  N   UNL     1      -8.727   7.310  66.921  1.00  0.00    -0.122 N  
HETATM    8  CA  UNL     1      -9.069   9.077  65.870  1.00  0.00    -0.212 C  
HETATM    9  C   UNL     1      -9.327   5.307  68.277  1.00  0.00    -0.118 C  
HETATM   10  O   UNL     1     -10.978   7.854  67.109  1.00  0.00    -0.219 OA 
HETATM   11  C   UNL     1      -9.861   7.989  66.664  1.00  0.00    -0.252 C  
HETATM   12  OXT UNL     1      -9.034   4.137  68.497  1.00  0.00    -0.103 OA 
ENDROOT
BRANCH   4  13
HETATM   13  C   UNL     1      -6.499   5.089  69.046  1.00  0.00    -0.036 C  
BRANCH  13  14
HETATM   14  S   UNL     1      -6.083   5.610  70.738  1.00  0.00    -0.031 SA 
BRANCH  14  15
HETATM   15  C   UNL     1      -7.656   5.966  71.407  1.00  0.00    -0.098 A  
HETATM   16  N   UNL     1      -8.564   5.041  71.639  1.00  0.00    -0.126 NA 
HETATM   17  S   UNL     1      -8.182   7.563  71.737  1.00  0.00    -0.109 SA 
HETATM   18  N   UNL     1      -9.762   5.578  72.063  1.00  0.00    -0.158 NA 
HETATM   19  C   UNL     1     -10.832   7.764  72.569  1.00  0.00    -0.386 C  
HETATM   20  C   UNL     1      -9.707   6.891  72.153  1.00  0.00    -0.148 A  
ENDBRANCH  14  15
ENDBRANCH  13  14
ENDBRANCH   4  13
BRANCH   8  21
HETATM   21  N   UNL     1      -9.022  10.411  66.552  1.00  0.00    -0.144 N  
HETATM   22  C   UNL     1      -9.796  11.461  66.102  1.00  0.00    -0.222 C  
HETATM   23  H   UNL     1      -8.412  10.544  67.358  1.00  0.00     0.000 HD 
HETATM   24  O   UNL     1     -10.658  11.312  65.239  1.00  0.00    -0.275 OA 
BRANCH  22  25
HETATM   25  C   UNL     1      -9.515  12.794  66.751  1.00  0.00    -0.243 C  
BRANCH  25  26
HETATM   26  N   UNL     1     -10.554  13.156  67.678  1.00  0.00    -0.226 NA 
HETATM   27  C   UNL     1     -11.152  14.359  67.870  1.00  0.00    -0.274 A  
HETATM   28  N   UNL     1     -12.124  14.205  68.740  1.00  0.00    -0.327 NA 
HETATM   29  N   UNL     1     -12.116  12.873  69.082  1.00  0.00    -0.231 NA 
HETATM   30  N   UNL     1     -11.164  12.221  68.428  1.00  0.00    -0.243 NA 
ENDBRANCH  25  26
ENDBRANCH  22  25
ENDBRANCH   8  21
TORSDOF 6
ENDMDL
MODEL      164
REMARK 921   NORMALIZED FREE ENERGY PREDICTED BY IDOCK:   -3.90 KCAL/MOL
REMARK 922        TOTAL FREE ENERGY PREDICTED BY IDOCK:   -6.26 KCAL/MOL
REMARK 923 INTER-LIGAND FREE ENERGY PREDICTED BY IDOCK:   -7.43 KCAL/MOL
REMARK 924 INTRA-LIGAND FREE ENERGY PREDICTED BY IDOCK:    1.17 KCAL/MOL
REMARK 927      BINDING AFFINITY PREDICTED BY RF-SCORE:    0.00 PKD
ROOT
HETATM    1  C   UNL     1      -6.869  10.178  66.923  1.00  0.00    -0.084 C  
HETATM    2  S   UNL     1      -8.248  11.018  67.720  1.00  0.00    -0.120 SA 
HETATM    3  C   UNL     1      -8.138  10.007  69.215  1.00  0.00    -0.141 C  
HETATM    4  C   UNL     1      -8.144   8.508  68.946  1.00  0.00    -0.119 C  
HETATM    5  O   UNL     1      -7.666   5.955  66.389  1.00  0.00    -0.096 OA 
HETATM    6  CA  UNL     1      -7.664   7.963  67.787  1.00  0.00    -0.121 C  
HETATM    7  N   UNL     1      -7.192   8.769  66.787  1.00  0.00    -0.081 N  
HETATM    8  CA  UNL     1      -6.814  10.242  65.362  1.00  0.00    -0.140 C  
HETATM    9  C   UNL     1      -7.590   6.459  67.633  1.00  0.00    -0.101 C  
HETATM   10  O   UNL     1      -7.153   7.771  64.689  1.00  0.00    -0.064 OA 
HETATM   11  C   UNL     1      -6.998   8.694  65.456  1.00  0.00    -0.078 C  
HETATM   12  OXT UNL     1      -7.417   5.712  68.590  1.00  0.00    -0.080 OA 
ENDROOT
BRANCH   4  13
HETATM   13  C   UNL     1      -8.726   7.643  70.071  1.00  0.00    -0.142 C  
BRANCH  13  14
HETATM   14  S   UNL     1     -10.422   7.021  69.858  1.00  0.00    -0.225 SA 
BRANCH  14  15
HETATM   15  C   UNL     1     -11.350   8.166  70.794  1.00  0.00    -0.270 A  
HETATM   16  N   UNL     1     -12.031   7.829  71.870  1.00  0.00    -0.289 NA 
HETATM   17  S   UNL     1     -11.523   9.808  70.340  1.00  0.00    -0.276 SA 
HETATM   18  N   UNL     1     -12.771   8.880  72.371  1.00  0.00    -0.388 NA 
HETATM   19  C   UNL     1     -13.270  11.276  71.938  1.00  0.00    -0.491 C  
HETATM   20  C   UNL     1     -12.604   9.978  71.664  1.00  0.00    -0.427 A  
ENDBRANCH  14  15
ENDBRANCH  13  14
ENDBRANCH   4  13
BRANCH   8  21
HETATM   21  N   UNL     1      -7.932  10.943  64.651  1.00  0.00    -0.351 N  
HETATM   22  C   UNL     1      -9.138  10.309  64.435  1.00  0.00    -0.239 C  
HETATM   23  H   UNL     1      -7.799  11.899  64.322  1.00  0.00     0.000 HD 
HETATM   24  O   UNL     1      -9.403   9.222  64.943  1.00  0.00    -0.211 OA 
BRANCH  22  25
HETATM   25  C   UNL     1     -10.106  11.050  63.545  1.00  0.00    -0.373 C  
BRANCH  25  26
HETATM   26  N   UNL     1     -11.184  11.625  64.304  1.00  0.00    -0.338 NA 
HETATM   27  C   UNL     1     -11.301  11.782  65.647  1.00  0.00    -0.233 A  
HETATM   28  N   UNL     1     -12.401  12.455  65.892  1.00  0.00    -0.577 NA 
HETATM   29  N   UNL     1     -12.965  12.715  64.665  1.00  0.00    -0.844 NA 
HETATM   30  N   UNL     1     -12.220  12.219  63.686  1.00  0.00    -0.528 NA 
ENDBRANCH  25  26
ENDBRANCH  22  25
ENDBRANCH   8  21
TORSDOF 6
ENDMDL
MODEL      165
REMARK 921   NORMALIZED FREE ENERGY PREDICTED BY IDOCK:   -3.85 KCAL/MOL
REMARK 922        TOTAL FREE ENERGY PREDICTED BY IDOCK:   -6.18 KCAL/MOL
REMARK 923 INTER-LIGAND FREE ENERGY PREDICTED BY IDOCK:   -5.10 KCAL/MOL
REMARK 924 INTRA-LIGAND FREE ENERGY PREDICTED BY IDOCK:   -1.08 KCAL/MOL
REMARK 927      BINDING AFFINITY PREDICTED BY RF-SCORE:    0.00 PKD
ROOT
HETATM    1  C   UNL     1      -9.881   7.601  67.343  1.00  0.00    -0.173 C  
HETATM    2  S   UNL     1      -9.290   8.470  68.806  1.00  0.00    -0.142 SA 
HETATM    3  C   UNL     1     -10.261   9.952  68.449  1.00  0.00    -0.178 C  
HETATM    4  C   UNL     1     -10.060  10.497  67.042  1.00  0.00    -0.259 C  
HETATM    5  O   UNL     1      -8.828   9.701  63.706  1.00  0.00    -0.216 OA 
HETATM    6  CA  UNL     1      -9.724   9.701  65.982  1.00  0.00    -0.264 C  
HETATM    7  N   UNL     1      -9.510   8.361  66.163  1.00  0.00    -0.213 N  
HETATM    8  CA  UNL     1      -8.979   6.448  66.797  1.00  0.00    -0.130 C  
HETATM    9  C   UNL     1      -9.655  10.287  64.588  1.00  0.00    -0.312 C  
HETATM   10  O   UNL     1      -8.244   7.358  64.492  1.00  0.00    -0.114 OA 
HETATM   11  C   UNL     1      -8.854   7.365  65.538  1.00  0.00     0.035 C  
HETATM   12  OXT UNL     1     -10.356  11.231  64.241  1.00  0.00    -0.287 OA 
ENDROOT
BRANCH   4  13
HETATM   13  C   UNL     1     -10.260  12.010  66.890  1.00  0.00    -0.208 C  
BRANCH  13  14
HETATM   14  S   UNL     1      -8.787  13.069  67.021  1.00  0.00    -0.188 SA 
BRANCH  14  15
HETATM   15  C   UNL     1      -9.438  14.647  66.651  1.00  0.00    -0.278 A  
HETATM   16  N   UNL     1      -9.682  15.053  65.423  1.00  0.00    -0.271 NA 
HETATM   17  S   UNL     1      -9.733  15.831  67.853  1.00  0.00    -0.216 SA 
HETATM   18  N   UNL     1     -10.086  16.371  65.379  1.00  0.00    -0.563 NA 
HETATM   19  C   UNL     1     -10.542  18.307  66.869  1.00  0.00    -0.356 C  
HETATM   20  C   UNL     1     -10.152  16.905  66.581  1.00  0.00    -0.304 A  
ENDBRANCH  14  15
ENDBRANCH  13  14
ENDBRANCH   4  13
BRANCH   8  21
HETATM   21  N   UNL     1      -7.675   6.191  67.490  1.00  0.00    -0.096 N  
HETATM   22  C   UNL     1      -7.019   4.987  67.337  1.00  0.00    -0.065 C  
HETATM   23  H   UNL     1      -7.268   6.915  68.083  1.00  0.00     0.000 HD 
HETATM   24  O   UNL     1      -7.384   4.146  66.519  1.00  0.00    -0.077 OA 
BRANCH  22  25
HETATM   25  C   UNL     1      -5.823   4.785  68.235  1.00  0.00    -0.025 C  
BRANCH  25  26
HETATM   26  N   UNL     1      -6.050   5.336  69.544  1.00  0.00    -0.020 NA 
HETATM   27  C   UNL     1      -5.291   6.211  70.251  1.00  0.00    -0.013 A  
HETATM   28  N   UNL     1      -5.936   6.525  71.351  1.00  0.00    -0.035 NA 
HETATM   29  N   UNL     1      -7.118   5.824  71.308  1.00  0.00    -0.071 NA 
HETATM   30  N   UNL     1      -7.201   5.101  70.200  1.00  0.00    -0.057 NA 
ENDBRANCH  25  26
ENDBRANCH  22  25
ENDBRANCH   8  21
TORSDOF 6
ENDMDL
MODEL      166
REMARK 921   NORMALIZED FREE ENERGY PREDICTED BY IDOCK:   -3.84 KCAL/MOL
REMARK 922        TOTAL FREE ENERGY PREDICTED BY IDOCK:   -6.17 KCAL/MOL
REMARK 923 INTER-LIGAND FREE ENERGY PREDICTED BY IDOCK:   -5.20 KCAL/MOL
REMARK 924 INTRA-LIGAND FREE ENERGY PREDICTED BY IDOCK:   -0.98 KCAL/MOL
REMARK 927      BINDING AFFINITY PREDICTED BY RF-SCORE:    0.00 PKD
ROOT
HETATM    1  C   UNL     1     -12.069   7.537  70.461  1.00  0.00    -0.001 C  
HETATM    2  S   UNL     1     -12.612   8.126  72.074  1.00  0.00    -0.320 SA 
HETATM    3  C   UNL     1     -13.055   9.762  71.446  1.00  0.00    -0.400 C  
HETATM    4  C   UNL     1     -11.942  10.444  70.664  1.00  0.00    -0.448 C  
HETATM    5  O   UNL     1      -8.787   9.905  68.921  1.00  0.00    -0.131 OA 
HETATM    6  CA  UNL     1     -10.990   9.746  69.971  1.00  0.00    -0.277 C  
HETATM    7  N   UNL     1     -10.981   8.378  69.995  1.00  0.00    -0.228 N  
HETATM    8  CA  UNL     1     -11.057   6.346  70.451  1.00  0.00    -0.339 C  
HETATM    9  C   UNL     1      -9.982  10.487  69.118  1.00  0.00    -0.220 C  
HETATM   10  O   UNL     1      -8.936   7.424  69.442  1.00  0.00    -0.140 OA 
HETATM   11  C   UNL     1     -10.093   7.386  69.794  1.00  0.00    -0.193 C  
HETATM   12  OXT UNL     1     -10.244  11.555  68.577  1.00  0.00    -0.201 OA 
ENDROOT
BRANCH   4  13
HETATM   13  C   UNL     1     -11.958  11.978  70.702  1.00  0.00    -0.160 C  
BRANCH  13  14
HETATM   14  S   UNL     1     -13.503  12.788  71.214  1.00  0.00     0.449 SA 
BRANCH  14  15
HETATM   15  C   UNL     1     -12.921  14.042  72.280  1.00  0.00    -0.373 A  
HETATM   16  N   UNL     1     -12.709  13.850  73.566  1.00  0.00     0.025 NA 
HETATM   17  S   UNL     1     -12.660  15.653  71.759  1.00  0.00    -0.467 SA 
HETATM   18  N   UNL     1     -12.358  15.015  74.217  1.00  0.00    -0.559 NA 
HETATM   19  C   UNL     1     -11.964  17.430  73.787  1.00  0.00     0.411 C  
HETATM   20  C   UNL     1     -12.301  16.040  73.393  1.00  0.00    -0.548 A  
ENDBRANCH  14  15
ENDBRANCH  13  14
ENDBRANCH   4  13
BRANCH   8  21
HETATM   21  N   UNL     1     -10.576   5.825  71.772  1.00  0.00    -0.231 N  
HETATM   22  C   UNL     1      -9.840   4.661  71.846  1.00  0.00    -0.179 C  
HETATM   23  H   UNL     1     -10.795   6.338  72.626  1.00  0.00     0.000 HD 
HETATM   24  O   UNL     1      -9.418   4.091  70.842  1.00  0.00    -0.138 OA 
BRANCH  22  25
HETATM   25  C   UNL     1      -9.584   4.147  73.242  1.00  0.00    -0.115 C  
BRANCH  25  26
HETATM   26  N   UNL     1      -8.348   4.659  73.772  1.00  0.00    -0.105 NA 
HETATM   27  C   UNL     1      -7.261   3.983  74.222  1.00  0.00    -0.062 A  
HETATM   28  N   UNL     1      -6.321   4.854  74.508  1.00  0.00    -0.057 NA 
HETATM   29  N   UNL     1      -6.851   6.090  74.222  1.00  0.00    -0.079 NA 
HETATM   30  N   UNL     1      -8.090   5.979  73.760  1.00  0.00    -0.108 NA 
ENDBRANCH  25  26
ENDBRANCH  22  25
ENDBRANCH   8  21
TORSDOF 6
ENDMDL
MODEL      167
REMARK 921   NORMALIZED FREE ENERGY PREDICTED BY IDOCK:   -3.83 KCAL/MOL
REMARK 922        TOTAL FREE ENERGY PREDICTED BY IDOCK:   -6.16 KCAL/MOL
REMARK 923 INTER-LIGAND FREE ENERGY PREDICTED BY IDOCK:   -4.84 KCAL/MOL
REMARK 924 INTRA-LIGAND FREE ENERGY PREDICTED BY IDOCK:   -1.32 KCAL/MOL
REMARK 927      BINDING AFFINITY PREDICTED BY RF-SCORE:    0.00 PKD
ROOT
HETATM    1  C   UNL     1     -10.826  11.178  64.060  1.00  0.00    -0.281 C  
HETATM    2  S   UNL     1      -9.346  11.705  63.181  1.00  0.00    -0.027 SA 
HETATM    3  C   UNL     1      -8.817  10.011  62.837  1.00  0.00    -0.237 C  
HETATM    4  C   UNL     1      -8.757   9.122  64.071  1.00  0.00    -0.165 C  
HETATM    5  O   UNL     1      -9.850   8.779  67.531  1.00  0.00    -0.159 OA 
HETATM    6  CA  UNL     1      -9.558   9.316  65.162  1.00  0.00    -0.033 C  
HETATM    7  N   UNL     1     -10.433  10.369  65.200  1.00  0.00    -0.190 N  
HETATM    8  CA  UNL     1     -11.436  12.191  65.081  1.00  0.00    -0.323 C  
HETATM    9  C   UNL     1      -9.531   8.325  66.306  1.00  0.00    -0.203 C  
HETATM   10  O   UNL     1     -11.111  10.975  67.338  1.00  0.00    -0.278 OA 
HETATM   11  C   UNL     1     -11.076  11.094  66.135  1.00  0.00    -0.085 C  
HETATM   12  OXT UNL     1      -9.278   7.138  66.136  1.00  0.00    -0.155 OA 
ENDROOT
BRANCH   4  13
HETATM   13  C   UNL     1      -7.730   7.983  64.010  1.00  0.00    -0.137 C  
BRANCH  13  14
HETATM   14  S   UNL     1      -6.013   8.378  64.459  1.00  0.00    -0.065 SA 
BRANCH  14  15
HETATM   15  C   UNL     1      -5.937   7.839  66.119  1.00  0.00    -0.038 A  
HETATM   16  N   UNL     1      -5.875   8.668  67.140  1.00  0.00    -0.042 NA 
HETATM   17  S   UNL     1      -5.851   6.184  66.551  1.00  0.00    -0.021 SA 
HETATM   18  N   UNL     1      -5.711   8.007  68.340  1.00  0.00    -0.032 NA 
HETATM   19  C   UNL     1      -5.499   5.714  69.274  1.00  0.00    -0.008 C  
HETATM   20  C   UNL     1      -5.676   6.701  68.180  1.00  0.00    -0.012 A  
ENDBRANCH  14  15
ENDBRANCH  13  14
ENDBRANCH   4  13
BRANCH   8  21
HETATM   21  N   UNL     1     -10.718  13.491  65.291  1.00  0.00    -0.309 N  
HETATM   22  C   UNL     1     -11.397  14.609  65.728  1.00  0.00    -0.340 C  
HETATM   23  H   UNL     1      -9.716  13.548  65.109  1.00  0.00     0.000 HD 
HETATM   24  O   UNL     1     -12.565  14.556  66.108  1.00  0.00    -0.286 OA 
BRANCH  22  25
HETATM   25  C   UNL     1     -10.603  15.893  65.714  1.00  0.00    -0.355 C  
BRANCH  25  26
HETATM   26  N   UNL     1      -9.405  15.777  66.501  1.00  0.00    -0.259 NA 
HETATM   27  C   UNL     1      -8.201  16.380  66.327  1.00  0.00    -0.308 A  
HETATM   28  N   UNL     1      -7.432  16.072  67.345  1.00  0.00    -0.159 NA 
HETATM   29  N   UNL     1      -8.189  15.263  68.159  1.00  0.00    -0.138 NA 
HETATM   30  N   UNL     1      -9.403  15.085  67.655  1.00  0.00    -0.192 NA 
ENDBRANCH  25  26
ENDBRANCH  22  25
ENDBRANCH   8  21
TORSDOF 6
ENDMDL
MODEL      168
REMARK 921   NORMALIZED FREE ENERGY PREDICTED BY IDOCK:   -3.82 KCAL/MOL
REMARK 922        TOTAL FREE ENERGY PREDICTED BY IDOCK:   -6.14 KCAL/MOL
REMARK 923 INTER-LIGAND FREE ENERGY PREDICTED BY IDOCK:   -5.02 KCAL/MOL
REMARK 924 INTRA-LIGAND FREE ENERGY PREDICTED BY IDOCK:   -1.12 KCAL/MOL
REMARK 927      BINDING AFFINITY PREDICTED BY RF-SCORE:    0.00 PKD
ROOT
HETATM    1  C   UNL     1     -10.306   8.928  66.946  1.00  0.00    -0.262 C  
HETATM    2  S   UNL     1      -9.219   8.902  65.511  1.00  0.00    -0.128 SA 
HETATM    3  C   UNL     1      -8.194   7.571  66.177  1.00  0.00    -0.125 C  
HETATM    4  C   UNL     1      -7.677   7.836  67.583  1.00  0.00    -0.121 C  
HETATM    5  O   UNL     1      -8.134   9.869  70.573  1.00  0.00    -0.230 OA 
HETATM    6  CA  UNL     1      -8.350   8.615  68.484  1.00  0.00    -0.123 C  
HETATM    7  N   UNL     1      -9.518   9.234  68.128  1.00  0.00    -0.137 N  
HETATM    8  CA  UNL     1     -11.088  10.254  67.214  1.00  0.00    -0.142 C  
HETATM    9  C   UNL     1      -7.840   8.741  69.904  1.00  0.00    -0.093 C  
HETATM   10  O   UNL     1     -10.081  11.056  69.455  1.00  0.00    -0.157 OA 
HETATM   11  C   UNL     1     -10.244  10.295  68.528  1.00  0.00    -0.172 C  
HETATM   12  OXT UNL     1      -7.222   7.840  70.458  1.00  0.00    -0.056 OA 
ENDROOT
BRANCH   4  13
HETATM   13  C   UNL     1      -6.341   7.165  67.928  1.00  0.00    -0.044 C  
BRANCH  13  14
HETATM   14  S   UNL     1      -5.799   5.785  66.875  1.00  0.00    -0.018 SA 
BRANCH  14  15
HETATM   15  C   UNL     1      -6.679   4.439  67.557  1.00  0.00    -0.047 A  
HETATM   16  N   UNL     1      -7.926   4.160  67.236  1.00  0.00    -0.095 NA 
HETATM   17  S   UNL     1      -6.021   3.420  68.766  1.00  0.00    -0.024 SA 
HETATM   18  N   UNL     1      -8.438   3.122  67.986  1.00  0.00    -0.083 NA 
HETATM   19  C   UNL     1      -7.796   1.532  69.785  1.00  0.00    -0.047 C  
HETATM   20  C   UNL     1      -7.551   2.642  68.832  1.00  0.00    -0.047 A  
ENDBRANCH  14  15
ENDBRANCH  13  14
ENDBRANCH   4  13
BRANCH   8  21
HETATM   21  N   UNL     1     -10.835  11.413  66.296  1.00  0.00    -0.276 N  
HETATM   22  C   UNL     1     -11.647  12.527  66.326  1.00  0.00    -0.394 C  
HETATM   23  H   UNL     1     -10.053  11.376  65.642  1.00  0.00     0.000 HD 
HETATM   24  O   UNL     1     -12.502  12.688  67.195  1.00  0.00    -0.236 OA 
BRANCH  22  25
HETATM   25  C   UNL     1     -11.404  13.533  65.227  1.00  0.00    -0.290 C  
BRANCH  25  26
HETATM   26  N   UNL     1     -10.386  14.479  65.597  1.00  0.00    -0.328 NA 
HETATM   27  C   UNL     1     -10.295  15.802  65.306  1.00  0.00    -0.357 A  
HETATM   28  N   UNL     1      -9.259  16.297  65.942  1.00  0.00    -0.445 NA 
HETATM   29  N   UNL     1      -8.708  15.248  66.640  1.00  0.00    -0.282 NA 
HETATM   30  N   UNL     1      -9.399  14.132  66.443  1.00  0.00    -0.262 NA 
ENDBRANCH  25  26
ENDBRANCH  22  25
ENDBRANCH   8  21
TORSDOF 6
ENDMDL
MODEL      169
REMARK 921   NORMALIZED FREE ENERGY PREDICTED BY IDOCK:   -3.81 KCAL/MOL
REMARK 922        TOTAL FREE ENERGY PREDICTED BY IDOCK:   -6.13 KCAL/MOL
REMARK 923 INTER-LIGAND FREE ENERGY PREDICTED BY IDOCK:   -5.36 KCAL/MOL
REMARK 924 INTRA-LIGAND FREE ENERGY PREDICTED BY IDOCK:   -0.76 KCAL/MOL
REMARK 927      BINDING AFFINITY PREDICTED BY RF-SCORE:    0.00 PKD
ROOT
HETATM    1  C   UNL     1      -7.978   6.584  68.127  1.00  0.00    -0.110 C  
HETATM    2  S   UNL     1      -9.125   7.871  67.607  1.00  0.00    -0.133 SA 
HETATM    3  C   UNL     1      -9.359   8.491  69.289  1.00  0.00    -0.154 C  
HETATM    4  C   UNL     1      -9.745   7.415  70.294  1.00  0.00    -0.172 C  
HETATM    5  O   UNL     1      -9.830   3.822  70.901  1.00  0.00    -0.185 OA 
HETATM    6  CA  UNL     1      -9.369   6.106  70.158  1.00  0.00    -0.155 C  
HETATM    7  N   UNL     1      -8.653   5.702  69.064  1.00  0.00    -0.105 N  
HETATM    8  CA  UNL     1      -7.831   5.348  67.182  1.00  0.00    -0.101 C  
HETATM    9  C   UNL     1      -9.686   5.111  71.253  1.00  0.00    -0.169 C  
HETATM   10  O   UNL     1      -8.775   3.424  68.626  1.00  0.00    -0.087 OA 
HETATM   11  C   UNL     1      -8.421   4.558  68.394  1.00  0.00    -0.093 C  
HETATM   12  OXT UNL     1      -9.763   5.439  72.432  1.00  0.00    -0.153 OA 
ENDROOT
BRANCH   4  13
HETATM   13  C   UNL     1     -10.589   7.898  71.481  1.00  0.00    -0.222 C  
BRANCH  13  14
HETATM   14  S   UNL     1     -12.379   8.083  71.215  1.00  0.00    -0.231 SA 
BRANCH  14  15
HETATM   15  C   UNL     1     -12.598   9.806  71.401  1.00  0.00    -0.386 A  
HETATM   16  N   UNL     1     -13.387  10.336  72.313  1.00  0.00    -0.326 NA 
HETATM   17  S   UNL     1     -11.871  10.949  70.353  1.00  0.00    -0.376 SA 
HETATM   18  N   UNL     1     -13.481  11.707  72.190  1.00  0.00    -0.320 NA 
HETATM   19  C   UNL     1     -12.637  13.588  70.803  1.00  0.00    -0.382 C  
HETATM   20  C   UNL     1     -12.742  12.163  71.200  1.00  0.00    -0.253 A  
ENDBRANCH  14  15
ENDBRANCH  13  14
ENDBRANCH   4  13
BRANCH   8  21
HETATM   21  N   UNL     1      -8.689   5.301  65.953  1.00  0.00    -0.133 N  
HETATM   22  C   UNL     1      -8.266   4.633  64.823  1.00  0.00    -0.111 C  
HETATM   23  H   UNL     1      -9.595   5.769  65.953  1.00  0.00     0.000 HD 
HETATM   24  O   UNL     1      -7.261   3.927  64.820  1.00  0.00    -0.064 OA 
BRANCH  22  25
HETATM   25  C   UNL     1      -9.131   4.823  63.600  1.00  0.00    -0.022 C  
BRANCH  25  26
HETATM   26  N   UNL     1      -9.797   3.602  63.233  1.00  0.00    -0.140 NA 
HETATM   27  C   UNL     1      -9.323   2.543  62.528  1.00  0.00    -0.090 A  
HETATM   28  N   UNL     1     -10.239   1.602  62.527  1.00  0.00    -0.094 NA 
HETATM   29  N   UNL     1     -11.295   2.103  63.252  1.00  0.00    -0.315 NA 
HETATM   30  N   UNL     1     -11.029   3.324  63.697  1.00  0.00    -0.283 NA 
ENDBRANCH  25  26
ENDBRANCH  22  25
ENDBRANCH   8  21
TORSDOF 6
ENDMDL
MODEL      170
REMARK 921   NORMALIZED FREE ENERGY PREDICTED BY IDOCK:   -3.79 KCAL/MOL
REMARK 922        TOTAL FREE ENERGY PREDICTED BY IDOCK:   -6.10 KCAL/MOL
REMARK 923 INTER-LIGAND FREE ENERGY PREDICTED BY IDOCK:   -5.61 KCAL/MOL
REMARK 924 INTRA-LIGAND FREE ENERGY PREDICTED BY IDOCK:   -0.49 KCAL/MOL
REMARK 927      BINDING AFFINITY PREDICTED BY RF-SCORE:    0.00 PKD
ROOT
HETATM    1  C   UNL     1      -8.067  10.975  67.674  1.00  0.00    -0.116 C  
HETATM    2  S   UNL     1      -8.869  10.198  69.087  1.00  0.00    -0.184 SA 
HETATM    3  C   UNL     1      -7.818   8.729  69.011  1.00  0.00    -0.096 C  
HETATM    4  C   UNL     1      -7.775   8.073  67.639  1.00  0.00    -0.110 C  
HETATM    5  O   UNL     1      -8.463   8.570  64.094  1.00  0.00    -0.137 OA 
HETATM    6  CA  UNL     1      -7.951   8.774  66.477  1.00  0.00    -0.103 C  
HETATM    7  N   UNL     1      -8.222  10.115  66.513  1.00  0.00    -0.122 N  
HETATM    8  CA  UNL     1      -8.894  12.050  66.898  1.00  0.00    -0.197 C  
HETATM    9  C   UNL     1      -7.777   8.082  65.142  1.00  0.00    -0.105 C  
HETATM   10  O   UNL     1      -9.221  10.943  64.586  1.00  0.00    -0.201 OA 
HETATM   11  C   UNL     1      -8.791  11.037  65.713  1.00  0.00    -0.191 C  
HETATM   12  OXT UNL     1      -7.008   7.140  64.990  1.00  0.00    -0.049 OA 
ENDROOT
BRANCH   4  13
HETATM   13  C   UNL     1      -7.517   6.560  67.643  1.00  0.00    -0.097 C  
BRANCH  13  14
HETATM   14  S   UNL     1      -8.966   5.463  67.719  1.00  0.00    -0.108 SA 
BRANCH  14  15
HETATM   15  C   UNL     1      -9.732   5.974  69.203  1.00  0.00    -0.137 A  
HETATM   16  N   UNL     1      -9.141   5.903  70.378  1.00  0.00    -0.146 NA 
HETATM   17  S   UNL     1     -11.350   6.531  69.265  1.00  0.00    -0.216 SA 
HETATM   18  N   UNL     1      -9.984   6.260  71.410  1.00  0.00    -0.184 NA 
HETATM   19  C   UNL     1     -12.309   7.029  71.831  1.00  0.00    -0.358 C  
HETATM   20  C   UNL     1     -11.177   6.607  70.972  1.00  0.00    -0.300 A  
ENDBRANCH  14  15
ENDBRANCH  13  14
ENDBRANCH   4  13
BRANCH   8  21
HETATM   21  N   UNL     1     -10.300  12.311  67.350  1.00  0.00    -0.206 N  
HETATM   22  C   UNL     1     -10.794  13.598  67.408  1.00  0.00    -0.273 C  
HETATM   23  H   UNL     1     -10.897  11.529  67.617  1.00  0.00     0.000 HD 
HETATM   24  O   UNL     1     -10.174  14.557  66.953  1.00  0.00    -0.259 OA 
BRANCH  22  25
HETATM   25  C   UNL     1     -12.149  13.740  68.058  1.00  0.00    -0.280 C  
BRANCH  25  26
HETATM   26  N   UNL     1     -12.051  14.382  69.341  1.00  0.00    -0.311 NA 
HETATM   27  C   UNL     1     -12.821  14.215  70.446  1.00  0.00    -0.197 A  
HETATM   28  N   UNL     1     -12.303  14.922  71.424  1.00  0.00    -0.313 NA 
HETATM   29  N   UNL     1     -11.188  15.532  70.898  1.00  0.00    -0.348 NA 
HETATM   30  N   UNL     1     -11.020  15.199  69.625  1.00  0.00    -0.267 NA 
ENDBRANCH  25  26
ENDBRANCH  22  25
ENDBRANCH   8  21
TORSDOF 6
ENDMDL
MODEL      171
REMARK 921   NORMALIZED FREE ENERGY PREDICTED BY IDOCK:   -3.77 KCAL/MOL
REMARK 922        TOTAL FREE ENERGY PREDICTED BY IDOCK:   -6.08 KCAL/MOL
REMARK 923 INTER-LIGAND FREE ENERGY PREDICTED BY IDOCK:   -5.04 KCAL/MOL
REMARK 924 INTRA-LIGAND FREE ENERGY PREDICTED BY IDOCK:   -1.04 KCAL/MOL
REMARK 927      BINDING AFFINITY PREDICTED BY RF-SCORE:    0.00 PKD
ROOT
HETATM    1  C   UNL     1      -8.790   6.483  67.929  1.00  0.00    -0.114 C  
HETATM    2  S   UNL     1     -10.294   7.303  67.374  1.00  0.00    -0.292 SA 
HETATM    3  C   UNL     1     -10.812   7.724  69.054  1.00  0.00    -0.021 C  
HETATM    4  C   UNL     1     -10.838   6.537  70.007  1.00  0.00    -0.342 C  
HETATM    5  O   UNL     1      -9.668   3.123  70.517  1.00  0.00    -0.161 OA 
HETATM    6  CA  UNL     1     -10.015   5.454  69.860  1.00  0.00    -0.224 C  
HETATM    7  N   UNL     1      -9.151   5.379  68.801  1.00  0.00    -0.116 N  
HETATM    8  CA  UNL     1      -8.169   5.423  66.964  1.00  0.00    -0.104 C  
HETATM    9  C   UNL     1     -10.008   4.363  70.910  1.00  0.00    -0.172 C  
HETATM   10  O   UNL     1      -8.434   3.227  68.300  1.00  0.00    -0.080 OA 
HETATM   11  C   UNL     1      -8.496   4.421  68.118  1.00  0.00    -0.094 C  
HETATM   12  OXT UNL     1     -10.253   4.589  72.089  1.00  0.00    -0.188 OA 
ENDROOT
BRANCH   4  13
HETATM   13  C   UNL     1     -11.853   6.636  71.152  1.00  0.00    -0.360 C  
BRANCH  13  14
HETATM   14  S   UNL     1     -11.770   8.105  72.222  1.00  0.00    -0.399 SA 
BRANCH  14  15
HETATM   15  C   UNL     1     -10.106   8.075  72.753  1.00  0.00    -0.308 A  
HETATM   16  N   UNL     1      -9.176   8.854  72.242  1.00  0.00    -0.357 NA 
HETATM   17  S   UNL     1      -9.529   6.966  73.923  1.00  0.00    -0.248 SA 
HETATM   18  N   UNL     1      -7.923   8.569  72.744  1.00  0.00    -0.367 NA 
HETATM   19  C   UNL     1      -6.777   7.050  74.343  1.00  0.00    -0.086 C  
HETATM   20  C   UNL     1      -7.958   7.597  73.631  1.00  0.00    -0.146 A  
ENDBRANCH  14  15
ENDBRANCH  13  14
ENDBRANCH   4  13
BRANCH   8  21
HETATM   21  N   UNL     1      -8.895   5.130  65.685  1.00  0.00    -0.142 N  
HETATM   22  C   UNL     1      -8.280   5.320  64.465  1.00  0.00    -0.135 C  
HETATM   23  H   UNL     1      -9.855   4.787  65.718  1.00  0.00     0.000 HD 
HETATM   24  O   UNL     1      -7.083   5.581  64.372  1.00  0.00    -0.047 OA 
BRANCH  22  25
HETATM   25  C   UNL     1      -9.178   5.174  63.260  1.00  0.00     0.271 C  
BRANCH  25  26
HETATM   26  N   UNL     1      -9.787   3.872  63.214  1.00  0.00    -0.151 NA 
HETATM   27  C   UNL     1      -9.274   2.699  62.765  1.00  0.00    -0.090 A  
HETATM   28  N   UNL     1     -10.140   1.744  63.016  1.00  0.00    -0.104 NA 
HETATM   29  N   UNL     1     -11.205   2.355  63.636  1.00  0.00    -0.178 NA 
HETATM   30  N   UNL     1     -10.993   3.657  63.770  1.00  0.00    -0.289 NA 
ENDBRANCH  25  26
ENDBRANCH  22  25
ENDBRANCH   8  21
TORSDOF 6
ENDMDL
MODEL      172
REMARK 921   NORMALIZED FREE ENERGY PREDICTED BY IDOCK:   -3.77 KCAL/MOL
REMARK 922        TOTAL FREE ENERGY PREDICTED BY IDOCK:   -6.08 KCAL/MOL
REMARK 923 INTER-LIGAND FREE ENERGY PREDICTED BY IDOCK:   -5.08 KCAL/MOL
REMARK 924 INTRA-LIGAND FREE ENERGY PREDICTED BY IDOCK:   -1.00 KCAL/MOL
REMARK 927      BINDING AFFINITY PREDICTED BY RF-SCORE:    0.00 PKD
ROOT
HETATM    1  C   UNL     1      -7.597   6.439  69.141  1.00  0.00    -0.100 C  
HETATM    2  S   UNL     1      -7.259   7.440  67.683  1.00  0.00    -0.096 SA 
HETATM    3  C   UNL     1      -7.854   8.961  68.458  1.00  0.00    -0.103 C  
HETATM    4  C   UNL     1      -9.248   8.842  69.057  1.00  0.00    -0.140 C  
HETATM    5  O   UNL     1     -11.802   6.494  70.175  1.00  0.00    -0.416 OA 
HETATM    6  CA  UNL     1      -9.751   7.662  69.532  1.00  0.00    -0.168 C  
HETATM    7  N   UNL     1      -9.016   6.511  69.442  1.00  0.00    -0.132 N  
HETATM    8  CA  UNL     1      -7.797   4.906  68.911  1.00  0.00    -0.077 C  
HETATM    9  C   UNL     1     -11.097   7.638  70.225  1.00  0.00    -0.244 C  
HETATM   10  O   UNL     1     -10.272   4.560  69.571  1.00  0.00    -0.168 OA 
HETATM   11  C   UNL     1      -9.244   5.183  69.433  1.00  0.00    -0.112 C  
HETATM   12  OXT UNL     1     -11.525   8.598  70.854  1.00  0.00    -0.271 OA 
ENDROOT
BRANCH   4  13
HETATM   13  C   UNL     1     -10.059  10.144  69.096  1.00  0.00    -0.213 C  
BRANCH  13  14
HETATM   14  S   UNL     1      -9.305  11.624  68.355  1.00  0.00    -0.170 SA 
BRANCH  14  15
HETATM   15  C   UNL     1      -9.671  11.410  66.661  1.00  0.00    -0.200 A  
HETATM   16  N   UNL     1     -10.867  11.619  66.153  1.00  0.00    -0.286 NA 
HETATM   17  S   UNL     1      -8.522  10.825  65.533  1.00  0.00    -0.115 SA 
HETATM   18  N   UNL     1     -10.936  11.277  64.818  1.00  0.00    -0.243 NA 
HETATM   19  C   UNL     1      -9.529  10.384  62.974  1.00  0.00    -0.362 C  
HETATM   20  C   UNL     1      -9.780  10.840  64.363  1.00  0.00    -0.301 A  
ENDBRANCH  14  15
ENDBRANCH  13  14
ENDBRANCH   4  13
BRANCH   8  21
HETATM   21  N   UNL     1      -7.749   4.397  67.502  1.00  0.00    -0.084 N  
HETATM   22  C   UNL     1      -8.026   3.076  67.219  1.00  0.00    -0.077 C  
HETATM   23  H   UNL     1      -7.508   5.036  66.744  1.00  0.00     0.000 HD 
HETATM   24  O   UNL     1      -8.469   2.306  68.068  1.00  0.00    -0.066 OA 
BRANCH  22  25
HETATM   25  C   UNL     1      -7.756   2.651  65.796  1.00  0.00    -0.077 C  
BRANCH  25  26
HETATM   26  N   UNL     1      -8.893   2.897  64.949  1.00  0.00    -0.112 NA 
HETATM   27  C   UNL     1      -9.495   2.069  64.058  1.00  0.00    -0.126 A  
HETATM   28  N   UNL     1     -10.565   2.671  63.591  1.00  0.00    -0.188 NA 
HETATM   29  N   UNL     1     -10.613   3.894  64.217  1.00  0.00    -0.261 NA 
HETATM   30  N   UNL     1      -9.598   4.037  65.059  1.00  0.00    -0.169 NA 
ENDBRANCH  25  26
ENDBRANCH  22  25
ENDBRANCH   8  21
TORSDOF 6
ENDMDL
MODEL      173
REMARK 921   NORMALIZED FREE ENERGY PREDICTED BY IDOCK:   -3.75 KCAL/MOL
REMARK 922        TOTAL FREE ENERGY PREDICTED BY IDOCK:   -6.05 KCAL/MOL
REMARK 923 INTER-LIGAND FREE ENERGY PREDICTED BY IDOCK:   -5.42 KCAL/MOL
REMARK 924 INTRA-LIGAND FREE ENERGY PREDICTED BY IDOCK:   -0.63 KCAL/MOL
REMARK 927      BINDING AFFINITY PREDICTED BY RF-SCORE:    0.00 PKD
ROOT
HETATM    1  C   UNL     1      -8.438  11.253  68.132  1.00  0.00    -0.145 C  
HETATM    2  S   UNL     1     -10.026  11.318  67.286  1.00  0.00    -0.186 SA 
HETATM    3  C   UNL     1      -9.712   9.802  66.353  1.00  0.00    -0.216 C  
HETATM    4  C   UNL     1      -8.388   9.805  65.600  1.00  0.00    -0.138 C  
HETATM    5  O   UNL     1      -5.133  11.423  65.339  1.00  0.00    -0.287 OA 
HETATM    6  CA  UNL     1      -7.298  10.514  66.025  1.00  0.00    -0.137 C  
HETATM    7  N   UNL     1      -7.376  11.299  67.143  1.00  0.00    -0.122 N  
HETATM    8  CA  UNL     1      -7.881  12.602  68.688  1.00  0.00    -0.043 C  
HETATM    9  C   UNL     1      -5.978  10.379  65.296  1.00  0.00    -0.135 C  
HETATM   10  O   UNL     1      -5.756  12.960  67.263  1.00  0.00    -0.317 OA 
HETATM   11  C   UNL     1      -6.731  12.363  67.659  1.00  0.00    -0.132 C  
HETATM   12  OXT UNL     1      -5.651   9.346  64.723  1.00  0.00    -0.059 OA 
ENDROOT
BRANCH   4  13
HETATM   13  C   UNL     1      -8.357   8.952  64.325  1.00  0.00    -0.169 C  
BRANCH  13  14
HETATM   14  S   UNL     1      -7.975   7.183  64.509  1.00  0.00    -0.069 SA 
BRANCH  14  15
HETATM   15  C   UNL     1      -8.189   6.941  66.225  1.00  0.00    -0.117 A  
HETATM   16  N   UNL     1      -7.236   7.165  67.106  1.00  0.00    -0.083 NA 
HETATM   17  S   UNL     1      -9.631   6.307  66.897  1.00  0.00    -0.152 SA 
HETATM   18  N   UNL     1      -7.607   6.796  68.383  1.00  0.00    -0.102 NA 
HETATM   19  C   UNL     1      -9.522   5.832  69.640  1.00  0.00    -0.174 C  
HETATM   20  C   UNL     1      -8.836   6.324  68.420  1.00  0.00    -0.114 A  
ENDBRANCH  14  15
ENDBRANCH  13  14
ENDBRANCH   4  13
BRANCH   8  21
HETATM   21  N   UNL     1      -8.676  13.847  68.429  1.00  0.00    -0.181 N  
HETATM   22  C   UNL     1      -8.413  15.010  69.124  1.00  0.00    -0.192 C  
HETATM   23  H   UNL     1      -9.419  13.834  67.731  1.00  0.00     0.000 HD 
HETATM   24  O   UNL     1      -7.434  15.123  69.859  1.00  0.00    -0.182 OA 
BRANCH  22  25
HETATM   25  C   UNL     1      -9.403  16.128  68.908  1.00  0.00    -0.235 C  
BRANCH  25  26
HETATM   26  N   UNL     1      -9.295  16.678  67.584  1.00  0.00    -0.223 NA 
HETATM   27  C   UNL     1     -10.217  17.361  66.859  1.00  0.00    -0.322 A  
HETATM   28  N   UNL     1      -9.651  17.770  65.747  1.00  0.00    -0.499 NA 
HETATM   29  N   UNL     1      -8.351  17.324  65.800  1.00  0.00    -0.494 NA 
HETATM   30  N   UNL     1      -8.121  16.663  66.927  1.00  0.00    -0.191 NA 
ENDBRANCH  25  26
ENDBRANCH  22  25
ENDBRANCH   8  21
TORSDOF 6
ENDMDL
MODEL      174
REMARK 921   NORMALIZED FREE ENERGY PREDICTED BY IDOCK:   -3.73 KCAL/MOL
REMARK 922        TOTAL FREE ENERGY PREDICTED BY IDOCK:   -6.02 KCAL/MOL
REMARK 923 INTER-LIGAND FREE ENERGY PREDICTED BY IDOCK:   -4.62 KCAL/MOL
REMARK 924 INTRA-LIGAND FREE ENERGY PREDICTED BY IDOCK:   -1.40 KCAL/MOL
REMARK 927      BINDING AFFINITY PREDICTED BY RF-SCORE:    0.00 PKD
ROOT
HETATM    1  C   UNL     1      -8.159   7.067  70.733  1.00  0.00    -0.113 C  
HETATM    2  S   UNL     1      -7.760   8.132  69.338  1.00  0.00    -0.105 SA 
HETATM    3  C   UNL     1      -8.592   9.567  70.057  1.00  0.00    -0.215 C  
HETATM    4  C   UNL     1     -10.026   9.295  70.488  1.00  0.00    -0.307 C  
HETATM    5  O   UNL     1     -12.438   6.676  71.270  1.00  0.00    -0.340 OA 
HETATM    6  CA  UNL     1     -10.457   8.058  70.887  1.00  0.00    -0.202 C  
HETATM    7  N   UNL     1      -9.603   6.989  70.868  1.00  0.00    -0.168 N  
HETATM    8  CA  UNL     1      -8.173   5.528  70.463  1.00  0.00    -0.112 C  
HETATM    9  C   UNL     1     -11.864   7.883  71.416  1.00  0.00    -0.299 C  
HETATM   10  O   UNL     1     -10.658   4.920  70.825  1.00  0.00    -0.153 OA 
HETATM   11  C   UNL     1      -9.691   5.646  70.815  1.00  0.00    -0.177 C  
HETATM   12  OXT UNL     1     -12.458   8.780  72.004  1.00  0.00    -0.336 OA 
ENDROOT
BRANCH   4  13
HETATM   13  C   UNL     1     -10.965  10.507  70.449  1.00  0.00    -0.178 C  
BRANCH  13  14
HETATM   14  S   UNL     1     -11.962  10.747  68.947  1.00  0.00    -0.011 SA 
BRANCH  14  15
HETATM   15  C   UNL     1     -10.755  10.647  67.688  1.00  0.00    -0.267 A  
HETATM   16  N   UNL     1      -9.989  11.662  67.345  1.00  0.00    -0.183 NA 
HETATM   17  S   UNL     1     -10.526   9.241  66.736  1.00  0.00    -0.141 SA 
HETATM   18  N   UNL     1      -9.195  11.372  66.255  1.00  0.00    -0.202 NA 
HETATM   19  C   UNL     1      -8.681   9.528  64.670  1.00  0.00    -0.233 C  
HETATM   20  C   UNL     1      -9.377  10.139  65.829  1.00  0.00    -0.188 A  
ENDBRANCH  14  15
ENDBRANCH  13  14
ENDBRANCH   4  13
BRANCH   8  21
HETATM   21  N   UNL     1      -7.912   5.062  69.062  1.00  0.00    -0.080 N  
HETATM   22  C   UNL     1      -7.595   3.744  68.805  1.00  0.00    -0.053 C  
HETATM   23  H   UNL     1      -7.968   5.726  68.291  1.00  0.00     0.000 HD 
HETATM   24  O   UNL     1      -7.665   2.875  69.672  1.00  0.00    -0.044 OA 
BRANCH  22  25
HETATM   25  C   UNL     1      -7.168   3.447  67.388  1.00  0.00    -0.059 C  
BRANCH  25  26
HETATM   26  N   UNL     1      -7.503   4.530  66.501  1.00  0.00    -0.081 NA 
HETATM   27  C   UNL     1      -6.703   5.499  65.988  1.00  0.00    -0.056 A  
HETATM   28  N   UNL     1      -7.407   6.210  65.137  1.00  0.00    -0.070 NA 
HETATM   29  N   UNL     1      -8.665   5.656  65.133  1.00  0.00    -0.131 NA 
HETATM   30  N   UNL     1      -8.731   4.620  65.958  1.00  0.00    -0.115 NA 
ENDBRANCH  25  26
ENDBRANCH  22  25
ENDBRANCH   8  21
TORSDOF 6
ENDMDL
MODEL      175
REMARK 921   NORMALIZED FREE ENERGY PREDICTED BY IDOCK:   -3.67 KCAL/MOL
REMARK 922        TOTAL FREE ENERGY PREDICTED BY IDOCK:   -5.94 KCAL/MOL
REMARK 923 INTER-LIGAND FREE ENERGY PREDICTED BY IDOCK:   -4.91 KCAL/MOL
REMARK 924 INTRA-LIGAND FREE ENERGY PREDICTED BY IDOCK:   -1.03 KCAL/MOL
REMARK 927      BINDING AFFINITY PREDICTED BY RF-SCORE:    0.00 PKD
ROOT
HETATM    1  C   UNL     1      -7.750   7.100  69.652  1.00  0.00    -0.109 C  
HETATM    2  S   UNL     1      -7.909   6.503  67.961  1.00  0.00    -0.106 SA 
HETATM    3  C   UNL     1      -8.507   8.092  67.342  1.00  0.00    -0.126 C  
HETATM    4  C   UNL     1      -9.689   8.652  68.121  1.00  0.00    -0.178 C  
HETATM    5  O   UNL     1     -11.556   8.419  71.243  1.00  0.00    -0.269 OA 
HETATM    6  CA  UNL     1      -9.896   8.380  69.446  1.00  0.00    -0.185 C  
HETATM    7  N   UNL     1      -9.053   7.539  70.121  1.00  0.00    -0.148 N  
HETATM    8  CA  UNL     1      -7.785   6.025  70.785  1.00  0.00    -0.098 C  
HETATM    9  C   UNL     1     -11.024   9.063  70.190  1.00  0.00    -0.233 C  
HETATM   10  O   UNL     1      -9.960   6.615  72.049  1.00  0.00    -0.167 OA 
HETATM   11  C   UNL     1      -9.091   6.764  71.221  1.00  0.00    -0.150 C  
HETATM   12  OXT UNL     1     -11.419  10.184  69.891  1.00  0.00    -0.253 OA 
ENDROOT
BRANCH   4  13
HETATM   13  C   UNL     1     -10.639   9.549  67.318  1.00  0.00    -0.248 C  
BRANCH  13  14
HETATM   14  S   UNL     1     -10.084  10.100  65.676  1.00  0.00    -0.215 SA 
BRANCH  14  15
HETATM   15  C   UNL     1     -10.788  11.695  65.570  1.00  0.00    -0.279 A  
HETATM   16  N   UNL     1     -11.226  12.358  66.620  1.00  0.00    -0.297 NA 
HETATM   17  S   UNL     1     -11.047  12.494  64.077  1.00  0.00    -0.434 SA 
HETATM   18  N   UNL     1     -11.838  13.544  66.271  1.00  0.00    -0.371 NA 
HETATM   19  C   UNL     1     -12.409  14.915  64.278  1.00  0.00    -0.300 C  
HETATM   20  C   UNL     1     -11.822  13.741  64.969  1.00  0.00    -0.366 A  
ENDBRANCH  14  15
ENDBRANCH  13  14
ENDBRANCH   4  13
BRANCH   8  21
HETATM   21  N   UNL     1      -8.003   4.596  70.387  1.00  0.00    -0.063 N  
HETATM   22  C   UNL     1      -7.800   3.573  71.290  1.00  0.00    -0.059 C  
HETATM   23  H   UNL     1      -8.304   4.378  69.437  1.00  0.00     0.000 HD 
HETATM   24  O   UNL     1      -7.589   3.787  72.482  1.00  0.00    -0.057 OA 
BRANCH  22  25
HETATM   25  C   UNL     1      -7.866   2.180  70.713  1.00  0.00    -0.039 C  
BRANCH  25  26
HETATM   26  N   UNL     1      -7.199   2.106  69.440  1.00  0.00    -0.043 NA 
HETATM   27  C   UNL     1      -7.607   1.513  68.290  1.00  0.00    -0.046 A  
HETATM   28  N   UNL     1      -6.734   1.790  67.348  1.00  0.00    -0.031 NA 
HETATM   29  N   UNL     1      -5.774   2.574  67.943  1.00  0.00    -0.018 NA 
HETATM   30  N   UNL     1      -6.056   2.782  69.223  1.00  0.00    -0.024 NA 
ENDBRANCH  25  26
ENDBRANCH  22  25
ENDBRANCH   8  21
TORSDOF 6
ENDMDL
MODEL      176
REMARK 921   NORMALIZED FREE ENERGY PREDICTED BY IDOCK:   -3.67 KCAL/MOL
REMARK 922        TOTAL FREE ENERGY PREDICTED BY IDOCK:   -5.93 KCAL/MOL
REMARK 923 INTER-LIGAND FREE ENERGY PREDICTED BY IDOCK:   -5.32 KCAL/MOL
REMARK 924 INTRA-LIGAND FREE ENERGY PREDICTED BY IDOCK:   -0.61 KCAL/MOL
REMARK 927      BINDING AFFINITY PREDICTED BY RF-SCORE:    0.00 PKD
ROOT
HETATM    1  C   UNL     1     -10.718   7.020  68.852  1.00  0.00    -0.200 C  
HETATM    2  S   UNL     1     -10.100   8.498  69.675  1.00  0.00    -0.207 SA 
HETATM    3  C   UNL     1      -9.482   9.224  68.140  1.00  0.00    -0.138 C  
HETATM    4  C   UNL     1      -8.575   8.299  67.341  1.00  0.00    -0.125 C  
HETATM    5  O   UNL     1      -7.533   4.835  66.893  1.00  0.00    -0.084 OA 
HETATM    6  CA  UNL     1      -8.685   6.936  67.387  1.00  0.00    -0.119 C  
HETATM    7  N   UNL     1      -9.608   6.343  68.205  1.00  0.00    -0.123 N  
HETATM    8  CA  UNL     1     -10.889   5.742  69.735  1.00  0.00    -0.349 C  
HETATM    9  C   UNL     1      -7.831   6.078  66.477  1.00  0.00    -0.104 C  
HETATM   10  O   UNL     1      -9.146   4.126  68.722  1.00  0.00    -0.112 OA 
HETATM   11  C   UNL     1      -9.790   5.147  68.798  1.00  0.00    -0.168 C  
HETATM   12  OXT UNL     1      -7.456   6.466  65.377  1.00  0.00    -0.077 OA 
ENDROOT
BRANCH   4  13
HETATM   13  C   UNL     1      -7.522   9.000  66.474  1.00  0.00    -0.089 C  
BRANCH  13  14
HETATM   14  S   UNL     1      -8.057   9.638  64.857  1.00  0.00    -0.142 SA 
BRANCH  14  15
HETATM   15  C   UNL     1      -9.116  10.950  65.314  1.00  0.00    -0.197 A  
HETATM   16  N   UNL     1      -8.787  11.860  66.208  1.00  0.00    -0.157 NA 
HETATM   17  S   UNL     1     -10.707  11.111  64.702  1.00  0.00    -0.229 SA 
HETATM   18  N   UNL     1      -9.826  12.724  66.480  1.00  0.00    -0.252 NA 
HETATM   19  C   UNL     1     -12.183  13.182  65.837  1.00  0.00    -0.497 C  
HETATM   20  C   UNL     1     -10.897  12.445  65.766  1.00  0.00    -0.276 A  
ENDBRANCH  14  15
ENDBRANCH  13  14
ENDBRANCH   4  13
BRANCH   8  21
HETATM   21  N   UNL     1     -10.477   5.826  71.174  1.00  0.00    -0.229 N  
HETATM   22  C   UNL     1     -11.331   6.347  72.124  1.00  0.00    -0.290 C  
HETATM   23  H   UNL     1      -9.554   5.493  71.454  1.00  0.00     0.000 HD 
HETATM   24  O   UNL     1     -12.503   6.616  71.869  1.00  0.00    -0.344 OA 
BRANCH  22  25
HETATM   25  C   UNL     1     -10.728   6.551  73.492  1.00  0.00    -0.263 C  
BRANCH  25  26
HETATM   26  N   UNL     1      -9.390   6.027  73.559  1.00  0.00    -0.134 NA 
HETATM   27  C   UNL     1      -8.960   4.826  74.023  1.00  0.00    -0.112 A  
HETATM   28  N   UNL     1      -7.672   4.728  73.790  1.00  0.00    -0.093 NA 
HETATM   29  N   UNL     1      -7.312   5.899  73.165  1.00  0.00    -0.093 NA 
HETATM   30  N   UNL     1      -8.360   6.697  73.011  1.00  0.00    -0.117 NA 
ENDBRANCH  25  26
ENDBRANCH  22  25
ENDBRANCH   8  21
TORSDOF 6
ENDMDL
MODEL      177
REMARK 921   NORMALIZED FREE ENERGY PREDICTED BY IDOCK:   -3.65 KCAL/MOL
REMARK 922        TOTAL FREE ENERGY PREDICTED BY IDOCK:   -5.91 KCAL/MOL
REMARK 923 INTER-LIGAND FREE ENERGY PREDICTED BY IDOCK:   -5.04 KCAL/MOL
REMARK 924 INTRA-LIGAND FREE ENERGY PREDICTED BY IDOCK:   -0.87 KCAL/MOL
REMARK 927      BINDING AFFINITY PREDICTED BY RF-SCORE:    0.00 PKD
ROOT
HETATM    1  C   UNL     1      -7.507   8.941  66.161  1.00  0.00    -0.090 C  
HETATM    2  S   UNL     1      -6.390   8.825  67.568  1.00  0.00    -0.057 SA 
HETATM    3  C   UNL     1      -6.317   7.020  67.497  1.00  0.00    -0.046 C  
HETATM    4  C   UNL     1      -7.682   6.348  67.486  1.00  0.00    -0.101 C  
HETATM    5  O   UNL     1     -11.242   6.883  66.917  1.00  0.00    -0.353 OA 
HETATM    6  CA  UNL     1      -8.798   6.948  66.969  1.00  0.00    -0.119 C  
HETATM    7  N   UNL     1      -8.730   8.221  66.471  1.00  0.00    -0.134 N  
HETATM    8  CA  UNL     1      -8.379  10.233  66.058  1.00  0.00    -0.142 C  
HETATM    9  C   UNL     1     -10.098   6.179  66.881  1.00  0.00    -0.183 C  
HETATM   10  O   UNL     1     -10.776   9.318  66.363  1.00  0.00    -0.064 OA 
HETATM   11  C   UNL     1      -9.575   9.244  66.237  1.00  0.00    -0.248 C  
HETATM   12  OXT UNL     1     -10.129   4.962  66.733  1.00  0.00    -0.199 OA 
ENDROOT
BRANCH   4  13
HETATM   13  C   UNL     1      -7.727   4.941  68.098  1.00  0.00    -0.082 C  
BRANCH  13  14
HETATM   14  S   UNL     1      -7.019   4.726  69.759  1.00  0.00    -0.054 SA 
BRANCH  14  15
HETATM   15  C   UNL     1      -8.438   4.812  70.773  1.00  0.00    -0.101 A  
HETATM   16  N   UNL     1      -9.554   5.403  70.399  1.00  0.00    -0.166 NA 
HETATM   17  S   UNL     1      -8.467   4.210  72.376  1.00  0.00    -0.104 SA 
HETATM   18  N   UNL     1     -10.492   5.438  71.410  1.00  0.00    -0.231 NA 
HETATM   19  C   UNL     1     -10.819   4.737  73.771  1.00  0.00    -0.379 C  
HETATM   20  C   UNL     1     -10.054   4.854  72.506  1.00  0.00    -0.182 A  
ENDBRANCH  14  15
ENDBRANCH  13  14
ENDBRANCH   4  13
BRANCH   8  21
HETATM   21  N   UNL     1      -8.261  11.245  67.159  1.00  0.00    -0.143 N  
HETATM   22  C   UNL     1      -8.882  12.473  67.058  1.00  0.00    -0.212 C  
HETATM   23  H   UNL     1      -7.716  11.023  67.992  1.00  0.00     0.000 HD 
HETATM   24  O   UNL     1      -9.673  12.731  66.153  1.00  0.00    -0.258 OA 
BRANCH  22  25
HETATM   25  C   UNL     1      -8.529  13.466  68.138  1.00  0.00    -0.172 C  
BRANCH  25  26
HETATM   26  N   UNL     1      -9.451  14.570  68.159  1.00  0.00    -0.202 NA 
HETATM   27  C   UNL     1     -10.613  14.706  68.847  1.00  0.00    -0.253 A  
HETATM   28  N   UNL     1     -11.070  15.921  68.654  1.00  0.00    -0.316 NA 
HETATM   29  N   UNL     1     -10.160  16.539  67.828  1.00  0.00    -0.257 NA 
HETATM   30  N   UNL     1      -9.159  15.722  67.529  1.00  0.00    -0.194 NA 
ENDBRANCH  25  26
ENDBRANCH  22  25
ENDBRANCH   8  21
TORSDOF 6
ENDMDL
MODEL      178
REMARK 921   NORMALIZED FREE ENERGY PREDICTED BY IDOCK:   -3.62 KCAL/MOL
REMARK 922        TOTAL FREE ENERGY PREDICTED BY IDOCK:   -5.87 KCAL/MOL
REMARK 923 INTER-LIGAND FREE ENERGY PREDICTED BY IDOCK:   -4.83 KCAL/MOL
REMARK 924 INTRA-LIGAND FREE ENERGY PREDICTED BY IDOCK:   -1.03 KCAL/MOL
REMARK 927      BINDING AFFINITY PREDICTED BY RF-SCORE:    0.00 PKD
ROOT
HETATM    1  C   UNL     1      -7.949  10.594  67.171  1.00  0.00    -0.121 C  
HETATM    2  S   UNL     1      -8.607  11.005  68.796  1.00  0.00    -0.114 SA 
HETATM    3  C   UNL     1      -7.712   9.666  69.616  1.00  0.00    -0.124 C  
HETATM    4  C   UNL     1      -7.922   8.301  68.975  1.00  0.00    -0.112 C  
HETATM    5  O   UNL     1      -9.060   6.585  65.968  1.00  0.00    -0.151 OA 
HETATM    6  CA  UNL     1      -8.199   8.144  67.645  1.00  0.00    -0.127 C  
HETATM    7  N   UNL     1      -8.343   9.237  66.834  1.00  0.00    -0.122 N  
HETATM    8  CA  UNL     1      -8.779  11.066  65.935  1.00  0.00    -0.178 C  
HETATM    9  C   UNL     1      -8.279   6.755  67.048  1.00  0.00    -0.113 C  
HETATM   10  O   UNL     1      -9.528   8.831  64.877  1.00  0.00     0.168 OA 
HETATM   11  C   UNL     1      -8.935   9.536  65.662  1.00  0.00    -0.183 C  
HETATM   12  OXT UNL     1      -7.625   5.817  67.489  1.00  0.00    -0.090 OA 
ENDROOT
BRANCH   4  13
HETATM   13  C   UNL     1      -7.802   7.104  69.927  1.00  0.00    -0.113 C  
BRANCH  13  14
HETATM   14  S   UNL     1      -9.303   6.578  70.807  1.00  0.00    -0.157 SA 
BRANCH  14  15
HETATM   15  C   UNL     1      -8.786   5.083  71.549  1.00  0.00    -0.132 A  
HETATM   16  N   UNL     1      -8.067   4.179  70.917  1.00  0.00    -0.069 NA 
HETATM   17  S   UNL     1      -9.246   4.630  73.135  1.00  0.00    -0.117 SA 
HETATM   18  N   UNL     1      -7.878   3.040  71.672  1.00  0.00    -0.055 NA 
HETATM   19  C   UNL     1      -8.435   2.076  73.893  1.00  0.00    -0.061 C  
HETATM   20  C   UNL     1      -8.447   3.136  72.855  1.00  0.00    -0.080 A  
ENDBRANCH  14  15
ENDBRANCH  13  14
ENDBRANCH   4  13
BRANCH   8  21
HETATM   21  N   UNL     1     -10.078  11.770  66.192  1.00  0.00    -0.217 N  
HETATM   22  C   UNL     1     -10.731  12.437  65.177  1.00  0.00    -0.292 C  
HETATM   23  H   UNL     1     -10.482  11.756  67.128  1.00  0.00     0.000 HD 
HETATM   24  O   UNL     1     -10.371  12.356  64.004  1.00  0.00    -0.363 OA 
BRANCH  22  25
HETATM   25  C   UNL     1     -11.921  13.261  65.607  1.00  0.00    -0.412 C  
BRANCH  25  26
HETATM   26  N   UNL     1     -11.578  14.159  66.677  1.00  0.00    -0.366 NA 
HETATM   27  C   UNL     1     -12.046  14.198  67.950  1.00  0.00    -0.274 A  
HETATM   28  N   UNL     1     -11.375  15.111  68.612  1.00  0.00    -0.293 NA 
HETATM   29  N   UNL     1     -10.473  15.638  67.718  1.00  0.00    -0.267 NA 
HETATM   30  N   UNL     1     -10.584  15.054  66.532  1.00  0.00    -0.298 NA 
ENDBRANCH  25  26
ENDBRANCH  22  25
ENDBRANCH   8  21
TORSDOF 6
ENDMDL
MODEL      179
REMARK 921   NORMALIZED FREE ENERGY PREDICTED BY IDOCK:   -3.60 KCAL/MOL
REMARK 922        TOTAL FREE ENERGY PREDICTED BY IDOCK:   -5.84 KCAL/MOL
REMARK 923 INTER-LIGAND FREE ENERGY PREDICTED BY IDOCK:   -5.75 KCAL/MOL
REMARK 924 INTRA-LIGAND FREE ENERGY PREDICTED BY IDOCK:   -0.09 KCAL/MOL
REMARK 927      BINDING AFFINITY PREDICTED BY RF-SCORE:    0.00 PKD
ROOT
HETATM    1  C   UNL     1     -11.591  11.669  67.423  1.00  0.00    -0.254 C  
HETATM    2  S   UNL     1      -9.983  11.149  66.802  1.00  0.00    -0.214 SA 
HETATM    3  C   UNL     1     -10.273   9.409  67.197  1.00  0.00    -0.254 C  
HETATM    4  C   UNL     1     -10.705   9.168  68.636  1.00  0.00    -0.156 C  
HETATM    5  O   UNL     1     -12.046  10.754  71.631  1.00  0.00    -0.211 OA 
HETATM    6  CA  UNL     1     -11.394  10.097  69.367  1.00  0.00    -0.178 C  
HETATM    7  N   UNL     1     -11.686  11.322  68.831  1.00  0.00    -0.316 N  
HETATM    8  CA  UNL     1     -11.728  13.164  67.857  1.00  0.00    -0.357 C  
HETATM    9  C   UNL     1     -11.897   9.749  70.752  1.00  0.00    -0.319 C  
HETATM   10  O   UNL     1     -12.140  12.973  70.401  1.00  0.00    -0.359 OA 
HETATM   11  C   UNL     1     -11.979  12.559  69.275  1.00  0.00    -0.250 C  
HETATM   12  OXT UNL     1     -12.208   8.605  71.065  1.00  0.00    -0.273 OA 
ENDROOT
BRANCH   4  13
HETATM   13  C   UNL     1     -10.317   7.803  69.218  1.00  0.00    -0.219 C  
BRANCH  13  14
HETATM   14  S   UNL     1      -8.748   7.697  70.132  1.00  0.00    -0.142 SA 
BRANCH  14  15
HETATM   15  C   UNL     1      -8.225   6.070  69.771  1.00  0.00    -0.118 A  
HETATM   16  N   UNL     1      -6.985   5.770  69.443  1.00  0.00    -0.061 NA 
HETATM   17  S   UNL     1      -9.303   4.740  69.728  1.00  0.00    -0.158 SA 
HETATM   18  N   UNL     1      -6.842   4.443  69.096  1.00  0.00    -0.046 NA 
HETATM   19  C   UNL     1      -8.158   2.346  68.880  1.00  0.00    -0.066 C  
HETATM   20  C   UNL     1      -7.978   3.785  69.194  1.00  0.00    -0.055 A  
ENDBRANCH  14  15
ENDBRANCH  13  14
ENDBRANCH   4  13
BRANCH   8  21
HETATM   21  N   UNL     1     -10.507  14.031  67.776  1.00  0.00    -0.234 N  
HETATM   22  C   UNL     1     -10.184  14.686  66.606  1.00  0.00    -0.274 C  
HETATM   23  H   UNL     1      -9.909  14.136  68.595  1.00  0.00     0.000 HD 
HETATM   24  O   UNL     1     -10.947  14.718  65.643  1.00  0.00    -0.319 OA 
BRANCH  22  25
HETATM   25  C   UNL     1      -8.836  15.367  66.599  1.00  0.00    -0.295 C  
BRANCH  25  26
HETATM   26  N   UNL     1      -7.862  14.610  67.340  1.00  0.00    -0.192 NA 
HETATM   27  C   UNL     1      -7.629  13.273  67.336  1.00  0.00    -0.129 A  
HETATM   28  N   UNL     1      -6.572  13.034  68.078  1.00  0.00    -0.099 NA 
HETATM   29  N   UNL     1      -6.152  14.259  68.541  1.00  0.00    -0.085 NA 
HETATM   30  N   UNL     1      -6.930  15.231  68.085  1.00  0.00    -0.116 NA 
ENDBRANCH  25  26
ENDBRANCH  22  25
ENDBRANCH   8  21
TORSDOF 6
ENDMDL
MODEL      180
REMARK 921   NORMALIZED FREE ENERGY PREDICTED BY IDOCK:   -3.54 KCAL/MOL
REMARK 922        TOTAL FREE ENERGY PREDICTED BY IDOCK:   -5.76 KCAL/MOL
REMARK 923 INTER-LIGAND FREE ENERGY PREDICTED BY IDOCK:   -5.12 KCAL/MOL
REMARK 924 INTRA-LIGAND FREE ENERGY PREDICTED BY IDOCK:   -0.64 KCAL/MOL
REMARK 927      BINDING AFFINITY PREDICTED BY RF-SCORE:    0.00 PKD
ROOT
HETATM    1  C   UNL     1      -8.123  10.539  67.904  1.00  0.00    -0.107 C  
HETATM    2  S   UNL     1      -9.133  10.063  69.317  1.00  0.00    -0.210 SA 
HETATM    3  C   UNL     1      -8.196   8.545  69.610  1.00  0.00    -0.115 C  
HETATM    4  C   UNL     1      -8.051   7.662  68.379  1.00  0.00    -0.124 C  
HETATM    5  O   UNL     1      -8.303   7.584  64.744  1.00  0.00    -0.108 OA 
HETATM    6  CA  UNL     1      -8.044   8.164  67.106  1.00  0.00    -0.116 C  
HETATM    7  N   UNL     1      -8.214   9.504  66.890  1.00  0.00    -0.112 N  
HETATM    8  CA  UNL     1      -8.774  11.511  66.869  1.00  0.00    -0.181 C  
HETATM    9  C   UNL     1      -7.777   7.245  65.933  1.00  0.00    -0.097 C  
HETATM   10  O   UNL     1      -8.927  10.046  64.746  1.00  0.00    -0.177 OA 
HETATM   11  C   UNL     1      -8.618  10.307  65.886  1.00  0.00    -0.152 C  
HETATM   12  OXT UNL     1      -7.069   6.249  66.031  1.00  0.00    -0.064 OA 
ENDROOT
BRANCH   4  13
HETATM   13  C   UNL     1      -7.912   6.160  68.661  1.00  0.00    -0.101 C  
BRANCH  13  14
HETATM   14  S   UNL     1      -9.423   5.245  69.093  1.00  0.00    -0.145 SA 
BRANCH  14  15
HETATM   15  C   UNL     1      -9.306   3.841  68.060  1.00  0.00    -0.179 A  
HETATM   16  N   UNL     1      -9.096   2.625  68.521  1.00  0.00    -0.145 NA 
HETATM   17  S   UNL     1      -9.369   3.942  66.352  1.00  0.00    -0.191 SA 
HETATM   18  N   UNL     1      -8.933   1.703  67.509  1.00  0.00    -0.121 NA 
HETATM   19  C   UNL     1      -8.909   1.534  65.029  1.00  0.00    -0.116 C  
HETATM   20  C   UNL     1      -9.045   2.256  66.319  1.00  0.00    -0.059 A  
ENDBRANCH  14  15
ENDBRANCH  13  14
ENDBRANCH   4  13
BRANCH   8  21
HETATM   21  N   UNL     1     -10.197  11.925  67.097  1.00  0.00    -0.207 N  
HETATM   22  C   UNL     1     -10.494  13.063  67.819  1.00  0.00    -0.228 C  
HETATM   23  H   UNL     1     -10.954  11.360  66.714  1.00  0.00     0.000 HD 
HETATM   24  O   UNL     1      -9.625  13.859  68.169  1.00  0.00    -0.206 OA 
BRANCH  22  25
HETATM   25  C   UNL     1     -11.955  13.261  68.139  1.00  0.00    -0.304 C  
BRANCH  25  26
HETATM   26  N   UNL     1     -12.131  13.921  69.405  1.00  0.00    -0.339 NA 
HETATM   27  C   UNL     1     -12.473  15.209  69.662  1.00  0.00    -0.136 A  
HETATM   28  N   UNL     1     -12.628  15.346  70.959  1.00  0.00    -0.397 NA 
HETATM   29  N   UNL     1     -12.377  14.108  71.501  1.00  0.00    -0.337 NA 
HETATM   30  N   UNL     1     -12.082  13.226  70.556  1.00  0.00    -0.345 NA 
ENDBRANCH  25  26
ENDBRANCH  22  25
ENDBRANCH   8  21
TORSDOF 6
ENDMDL
MODEL      181
REMARK 921   NORMALIZED FREE ENERGY PREDICTED BY IDOCK:   -3.47 KCAL/MOL
REMARK 922        TOTAL FREE ENERGY PREDICTED BY IDOCK:   -5.67 KCAL/MOL
REMARK 923 INTER-LIGAND FREE ENERGY PREDICTED BY IDOCK:   -5.03 KCAL/MOL
REMARK 924 INTRA-LIGAND FREE ENERGY PREDICTED BY IDOCK:   -0.64 KCAL/MOL
REMARK 927      BINDING AFFINITY PREDICTED BY RF-SCORE:    0.00 PKD
ROOT
HETATM    1  C   UNL     1      -7.917   9.778  66.607  1.00  0.00    -0.112 C  
HETATM    2  S   UNL     1      -8.977   8.899  67.767  1.00  0.00    -0.134 SA 
HETATM    3  C   UNL     1      -8.199   7.302  67.434  1.00  0.00    -0.116 C  
HETATM    4  C   UNL     1      -8.138   6.943  65.956  1.00  0.00    -0.119 C  
HETATM    5  O   UNL     1      -8.379   8.274  62.572  1.00  0.00    -0.185 OA 
HETATM    6  CA  UNL     1      -8.074   7.887  64.968  1.00  0.00    -0.144 C  
HETATM    7  N   UNL     1      -8.107   9.219  65.280  1.00  0.00    -0.116 N  
HETATM    8  CA  UNL     1      -8.462  11.127  66.038  1.00  0.00    -0.138 C  
HETATM    9  C   UNL     1      -7.895   7.460  63.526  1.00  0.00    -0.111 C  
HETATM   10  O   UNL     1      -8.752  10.598  63.525  1.00  0.00    -0.176 OA 
HETATM   11  C   UNL     1      -8.424  10.376  64.668  1.00  0.00    -0.173 C  
HETATM   12  OXT UNL     1      -7.292   6.439  63.217  1.00  0.00    -0.054 OA 
ENDROOT
BRANCH   4  13
HETATM   13  C   UNL     1      -8.152   5.440  65.645  1.00  0.00    -0.115 C  
BRANCH  13  14
HETATM   14  S   UNL     1      -6.914   4.400  66.477  1.00  0.00    -0.060 SA 
BRANCH  14  15
HETATM   15  C   UNL     1      -7.902   3.464  67.572  1.00  0.00    -0.077 A  
HETATM   16  N   UNL     1      -8.805   2.598  67.162  1.00  0.00    -0.128 NA 
HETATM   17  S   UNL     1      -7.837   3.659  69.272  1.00  0.00    -0.051 SA 
HETATM   18  N   UNL     1      -9.532   2.066  68.207  1.00  0.00    -0.205 NA 
HETATM   19  C   UNL     1      -9.724   2.172  70.682  1.00  0.00    -0.080 C  
HETATM   20  C   UNL     1      -9.135   2.538  69.371  1.00  0.00    -0.121 A  
ENDBRANCH  14  15
ENDBRANCH  13  14
ENDBRANCH   4  13
BRANCH   8  21
HETATM   21  N   UNL     1      -9.838  11.557  66.454  1.00  0.00    -0.200 N  
HETATM   22  C   UNL     1     -10.023  12.340  67.573  1.00  0.00    -0.199 C  
HETATM   23  H   UNL     1     -10.645  11.266  65.902  1.00  0.00     0.000 HD 
HETATM   24  O   UNL     1      -9.081  12.844  68.181  1.00  0.00    -0.199 OA 
BRANCH  22  25
HETATM   25  C   UNL     1     -11.460  12.541  67.989  1.00  0.00    -0.317 C  
BRANCH  25  26
HETATM   26  N   UNL     1     -11.656  13.830  68.597  1.00  0.00    -0.310 NA 
HETATM   27  C   UNL     1     -11.521  15.066  68.053  1.00  0.00    -0.342 A  
HETATM   28  N   UNL     1     -11.908  15.955  68.939  1.00  0.00    -0.377 NA 
HETATM   29  N   UNL     1     -12.290  15.238  70.048  1.00  0.00    -0.343 NA 
HETATM   30  N   UNL     1     -12.149  13.935  69.845  1.00  0.00    -0.328 NA 
ENDBRANCH  25  26
ENDBRANCH  22  25
ENDBRANCH   8  21
TORSDOF 6
ENDMDL
MODEL      182
REMARK 921   NORMALIZED FREE ENERGY PREDICTED BY IDOCK:   -3.46 KCAL/MOL
REMARK 922        TOTAL FREE ENERGY PREDICTED BY IDOCK:   -5.66 KCAL/MOL
REMARK 923 INTER-LIGAND FREE ENERGY PREDICTED BY IDOCK:   -4.42 KCAL/MOL
REMARK 924 INTRA-LIGAND FREE ENERGY PREDICTED BY IDOCK:   -1.24 KCAL/MOL
REMARK 927      BINDING AFFINITY PREDICTED BY RF-SCORE:    0.00 PKD
ROOT
HETATM    1  C   UNL     1      -7.083   5.789  68.733  1.00  0.00    -0.073 C  
HETATM    2  S   UNL     1      -6.205   6.151  67.204  1.00  0.00    -0.030 SA 
HETATM    3  C   UNL     1      -5.868   7.863  67.677  1.00  0.00    -0.041 C  
HETATM    4  C   UNL     1      -7.106   8.638  68.108  1.00  0.00    -0.082 C  
HETATM    5  O   UNL     1     -10.564   8.319  69.213  1.00  0.00    -0.223 OA 
HETATM    6  CA  UNL     1      -8.194   8.035  68.677  1.00  0.00    -0.126 C  
HETATM    7  N   UNL     1      -8.226   6.677  68.842  1.00  0.00    -0.119 N  
HETATM    8  CA  UNL     1      -8.099   4.602  68.698  1.00  0.00    -0.082 C  
HETATM    9  C   UNL     1      -9.342   8.879  69.191  1.00  0.00    -0.148 C  
HETATM   10  O   UNL     1     -10.360   5.791  69.084  1.00  0.00    -0.199 OA 
HETATM   11  C   UNL     1      -9.157   5.715  68.989  1.00  0.00    -0.111 C  
HETATM   12  OXT UNL     1      -9.177  10.014  69.621  1.00  0.00    -0.210 OA 
ENDROOT
BRANCH   4  13
HETATM   13  C   UNL     1      -7.051  10.151  67.862  1.00  0.00    -0.085 C  
BRANCH  13  14
HETATM   14  S   UNL     1      -7.631  10.760  66.249  1.00  0.00    -0.132 SA 
BRANCH  14  15
HETATM   15  C   UNL     1      -9.232  11.343  66.634  1.00  0.00    -0.181 A  
HETATM   16  N   UNL     1     -10.325  10.649  66.398  1.00  0.00    -0.237 NA 
HETATM   17  S   UNL     1      -9.517  12.906  67.274  1.00  0.00    -0.224 SA 
HETATM   18  N   UNL     1     -11.470  11.363  66.685  1.00  0.00    -0.408 NA 
HETATM   19  C   UNL     1     -12.208  13.578  67.535  1.00  0.00    -0.247 C  
HETATM   20  C   UNL     1     -11.196  12.565  67.147  1.00  0.00    -0.300 A  
ENDBRANCH  14  15
ENDBRANCH  13  14
ENDBRANCH   4  13
BRANCH   8  21
HETATM   21  N   UNL     1      -8.306   3.898  67.390  1.00  0.00    -0.097 N  
HETATM   22  C   UNL     1      -8.995   2.704  67.334  1.00  0.00    -0.159 C  
HETATM   23  H   UNL     1      -7.934   4.306  66.533  1.00  0.00     0.000 HD 
HETATM   24  O   UNL     1      -9.594   2.249  68.306  1.00  0.00    -0.211 OA 
BRANCH  22  25
HETATM   25  C   UNL     1      -8.967   2.005  65.996  1.00  0.00    -0.099 C  
BRANCH  25  26
HETATM   26  N   UNL     1      -9.065   2.945  64.911  1.00  0.00    -0.137 NA 
HETATM   27  C   UNL     1     -10.154   3.314  64.190  1.00  0.00    -0.175 A  
HETATM   28  N   UNL     1      -9.803   4.281  63.374  1.00  0.00    -0.083 NA 
HETATM   29  N   UNL     1      -8.467   4.506  63.609  1.00  0.00    -0.112 NA 
HETATM   30  N   UNL     1      -8.009   3.699  64.557  1.00  0.00    -0.085 NA 
ENDBRANCH  25  26
ENDBRANCH  22  25
ENDBRANCH   8  21
TORSDOF 6
ENDMDL
MODEL      183
REMARK 921   NORMALIZED FREE ENERGY PREDICTED BY IDOCK:   -3.45 KCAL/MOL
REMARK 922        TOTAL FREE ENERGY PREDICTED BY IDOCK:   -5.64 KCAL/MOL
REMARK 923 INTER-LIGAND FREE ENERGY PREDICTED BY IDOCK:   -5.41 KCAL/MOL
REMARK 924 INTRA-LIGAND FREE ENERGY PREDICTED BY IDOCK:   -0.23 KCAL/MOL
REMARK 927      BINDING AFFINITY PREDICTED BY RF-SCORE:    0.00 PKD
ROOT
HETATM    1  C   UNL     1      -9.237   8.551  70.546  1.00  0.00    -0.156 C  
HETATM    2  S   UNL     1      -9.157   7.244  69.310  1.00  0.00    -0.136 SA 
HETATM    3  C   UNL     1      -9.051   8.408  67.931  1.00  0.00    -0.133 C  
HETATM    4  C   UNL     1     -10.149   9.462  67.929  1.00  0.00    -0.239 C  
HETATM    5  O   UNL     1     -12.699  11.087  69.964  1.00  0.00    -0.230 OA 
HETATM    6  CA  UNL     1     -10.750   9.906  69.075  1.00  0.00    -0.222 C  
HETATM    7  N   UNL     1     -10.407   9.372  70.288  1.00  0.00    -0.225 N  
HETATM    8  CA  UNL     1      -9.887   8.184  71.918  1.00  0.00    -0.212 C  
HETATM    9  C   UNL     1     -11.750  11.041  69.013  1.00  0.00    -0.333 C  
HETATM   10  O   UNL     1     -12.004   9.665  71.950  1.00  0.00    -0.370 OA 
HETATM   11  C   UNL     1     -10.957   9.246  71.511  1.00  0.00    -0.375 C  
HETATM   12  OXT UNL     1     -11.684  11.924  68.166  1.00  0.00    -0.330 OA 
ENDROOT
BRANCH   4  13
HETATM   13  C   UNL     1     -10.539  10.001  66.546  1.00  0.00    -0.095 C  
BRANCH  13  14
HETATM   14  S   UNL     1      -9.485  11.293  65.822  1.00  0.00    -0.232 SA 
BRANCH  14  15
HETATM   15  C   UNL     1      -8.205  11.424  67.003  1.00  0.00    -0.160 A  
HETATM   16  N   UNL     1      -7.238  10.536  67.114  1.00  0.00    -0.089 NA 
HETATM   17  S   UNL     1      -8.149  12.673  68.173  1.00  0.00    -0.171 SA 
HETATM   18  N   UNL     1      -6.411  10.796  68.188  1.00  0.00    -0.058 NA 
HETATM   19  C   UNL     1      -6.098  12.423  70.040  1.00  0.00    -0.123 C  
HETATM   20  C   UNL     1      -6.775  11.883  68.835  1.00  0.00    -0.095 A  
ENDBRANCH  14  15
ENDBRANCH  13  14
ENDBRANCH   4  13
BRANCH   8  21
HETATM   21  N   UNL     1     -10.440   6.800  72.082  1.00  0.00    -0.204 N  
HETATM   22  C   UNL     1     -10.701   6.288  73.336  1.00  0.00    -0.259 C  
HETATM   23  H   UNL     1     -10.626   6.230  71.257  1.00  0.00     0.000 HD 
HETATM   24  O   UNL     1     -10.643   6.982  74.349  1.00  0.00    -0.136 OA 
BRANCH  22  25
HETATM   25  C   UNL     1     -11.071   4.825  73.373  1.00  0.00    -0.344 C  
BRANCH  25  26
HETATM   26  N   UNL     1      -9.945   4.008  73.738  1.00  0.00    -0.122 NA 
HETATM   27  C   UNL     1      -9.919   2.846  74.439  1.00  0.00    -0.123 A  
HETATM   28  N   UNL     1      -8.687   2.390  74.440  1.00  0.00    -0.069 NA 
HETATM   29  N   UNL     1      -7.948   3.298  73.719  1.00  0.00    -0.069 NA 
HETATM   30  N   UNL     1      -8.713   4.288  73.277  1.00  0.00    -0.096 NA 
ENDBRANCH  25  26
ENDBRANCH  22  25
ENDBRANCH   8  21
TORSDOF 6
ENDMDL
MODEL      184
REMARK 921   NORMALIZED FREE ENERGY PREDICTED BY IDOCK:   -3.38 KCAL/MOL
REMARK 922        TOTAL FREE ENERGY PREDICTED BY IDOCK:   -5.55 KCAL/MOL
REMARK 923 INTER-LIGAND FREE ENERGY PREDICTED BY IDOCK:   -5.22 KCAL/MOL
REMARK 924 INTRA-LIGAND FREE ENERGY PREDICTED BY IDOCK:   -0.34 KCAL/MOL
REMARK 927      BINDING AFFINITY PREDICTED BY RF-SCORE:    0.00 PKD
ROOT
HETATM    1  C   UNL     1      -8.332   9.647  68.029  1.00  0.00    -0.117 C  
HETATM    2  S   UNL     1      -8.463   8.933  66.382  1.00  0.00    -0.121 SA 
HETATM    3  C   UNL     1      -9.062  10.471  65.646  1.00  0.00    -0.182 C  
HETATM    4  C   UNL     1     -10.258  11.075  66.368  1.00  0.00    -0.284 C  
HETATM    5  O   UNL     1     -12.168  11.046  69.472  1.00  0.00    -0.336 OA 
HETATM    6  CA  UNL     1     -10.483  10.894  67.705  1.00  0.00    -0.203 C  
HETATM    7  N   UNL     1      -9.644  10.109  68.448  1.00  0.00    -0.141 N  
HETATM    8  CA  UNL     1      -8.377   8.653  69.234  1.00  0.00    -0.118 C  
HETATM    9  C   UNL     1     -11.625  11.620  68.384  1.00  0.00    -0.312 C  
HETATM   10  O   UNL     1     -10.573   9.314  70.424  1.00  0.00    -0.214 OA 
HETATM   11  C   UNL     1      -9.693   9.411  69.599  1.00  0.00    -0.190 C  
HETATM   12  OXT UNL     1     -12.022  12.715  68.003  1.00  0.00    -0.343 OA 
ENDROOT
BRANCH   4  13
HETATM   13  C   UNL     1     -11.202  11.908  65.491  1.00  0.00    -0.299 C  
BRANCH  13  14
HETATM   14  S   UNL     1     -10.486  13.318  64.592  1.00  0.00    -0.387 SA 
BRANCH  14  15
HETATM   15  C   UNL     1     -10.283  14.497  65.865  1.00  0.00    -0.322 A  
HETATM   16  N   UNL     1     -11.282  15.197  66.360  1.00  0.00    -0.317 NA 
HETATM   17  S   UNL     1      -8.752  14.901  66.516  1.00  0.00    -0.074 SA 
HETATM   18  N   UNL     1     -10.858  16.139  67.274  1.00  0.00    -0.281 NA 
HETATM   19  C   UNL     1      -8.789  16.991  68.357  1.00  0.00    -0.247 C  
HETATM   20  C   UNL     1      -9.553  16.100  67.450  1.00  0.00    -0.229 A  
ENDBRANCH  14  15
ENDBRANCH  13  14
ENDBRANCH   4  13
BRANCH   8  21
HETATM   21  N   UNL     1      -8.581   7.198  68.933  1.00  0.00    -0.129 N  
HETATM   22  C   UNL     1      -7.515   6.394  68.584  1.00  0.00    -0.088 C  
HETATM   23  H   UNL     1      -9.517   6.799  68.986  1.00  0.00     0.000 HD 
HETATM   24  O   UNL     1      -6.352   6.785  68.656  1.00  0.00    -0.029 OA 
BRANCH  22  25
HETATM   25  C   UNL     1      -7.880   5.004  68.122  1.00  0.00    -0.087 C  
BRANCH  25  26
HETATM   26  N   UNL     1      -7.240   3.998  68.926  1.00  0.00    -0.054 NA 
HETATM   27  C   UNL     1      -7.794   2.972  69.621  1.00  0.00    -0.042 A  
HETATM   28  N   UNL     1      -6.827   2.238  70.119  1.00  0.00    -0.033 NA 
HETATM   29  N   UNL     1      -5.655   2.832  69.714  1.00  0.00    -0.016 NA 
HETATM   30  N   UNL     1      -5.898   3.906  68.974  1.00  0.00    -0.022 NA 
ENDBRANCH  25  26
ENDBRANCH  22  25
ENDBRANCH   8  21
TORSDOF 6
ENDMDL
MODEL      185
REMARK 921   NORMALIZED FREE ENERGY PREDICTED BY IDOCK:   -3.33 KCAL/MOL
REMARK 922        TOTAL FREE ENERGY PREDICTED BY IDOCK:   -5.48 KCAL/MOL
REMARK 923 INTER-LIGAND FREE ENERGY PREDICTED BY IDOCK:   -4.43 KCAL/MOL
REMARK 924 INTRA-LIGAND FREE ENERGY PREDICTED BY IDOCK:   -1.05 KCAL/MOL
REMARK 927      BINDING AFFINITY PREDICTED BY RF-SCORE:    0.00 PKD
ROOT
HETATM    1  C   UNL     1      -9.109   6.414  65.848  1.00  0.00    -0.051 C  
HETATM    2  S   UNL     1      -9.977   6.709  67.398  1.00  0.00    -0.161 SA 
HETATM    3  C   UNL     1     -10.312   8.441  67.003  1.00  0.00    -0.315 C  
HETATM    4  C   UNL     1      -9.076   9.232  66.600  1.00  0.00    -0.177 C  
HETATM    5  O   UNL     1      -5.625   8.957  65.459  1.00  0.00    -0.045 OA 
HETATM    6  CA  UNL     1      -7.992   8.654  65.998  1.00  0.00    -0.107 C  
HETATM    7  N   UNL     1      -7.964   7.304  65.772  1.00  0.00    -0.115 N  
HETATM    8  CA  UNL     1      -8.095   5.225  65.824  1.00  0.00    -0.112 C  
HETATM    9  C   UNL     1      -6.846   9.517  65.515  1.00  0.00    -0.085 C  
HETATM   10  O   UNL     1      -5.834   6.426  65.477  1.00  0.00    -0.024 OA 
HETATM   11  C   UNL     1      -7.037   6.348  65.576  1.00  0.00    -0.065 C  
HETATM   12  OXT UNL     1      -7.012  10.671  65.137  1.00  0.00    -0.066 OA 
ENDROOT
BRANCH   4  13
HETATM   13  C   UNL     1      -9.126  10.733  66.914  1.00  0.00    -0.149 C  
BRANCH  13  14
HETATM   14  S   UNL     1     -10.761  11.476  67.200  1.00  0.00    -0.268 SA 
BRANCH  14  15
HETATM   15  C   UNL     1     -10.619  13.003  66.363  1.00  0.00    -0.284 A  
HETATM   16  N   UNL     1      -9.508  13.709  66.342  1.00  0.00    -0.263 NA 
HETATM   17  S   UNL     1     -11.941  13.750  65.572  1.00  0.00    -0.410 SA 
HETATM   18  N   UNL     1      -9.674  14.926  65.714  1.00  0.00    -0.337 NA 
HETATM   19  C   UNL     1     -11.402  16.286  64.556  1.00  0.00    -0.209 C  
HETATM   20  C   UNL     1     -10.903  15.083  65.266  1.00  0.00    -0.386 A  
ENDBRANCH  14  15
ENDBRANCH  13  14
ENDBRANCH   4  13
BRANCH   8  21
HETATM   21  N   UNL     1      -7.881   4.462  67.097  1.00  0.00    -0.096 N  
HETATM   22  C   UNL     1      -8.603   3.317  67.363  1.00  0.00    -0.108 C  
HETATM   23  H   UNL     1      -7.194   4.794  67.774  1.00  0.00     0.000 HD 
HETATM   24  O   UNL     1      -9.326   2.791  66.519  1.00  0.00    -0.120 OA 
BRANCH  22  25
HETATM   25  C   UNL     1      -8.433   2.756  68.753  1.00  0.00    -0.068 C  
BRANCH  25  26
HETATM   26  N   UNL     1      -8.296   3.803  69.730  1.00  0.00    -0.052 NA 
HETATM   27  C   UNL     1      -9.248   4.389  70.500  1.00  0.00    -0.125 A  
HETATM   28  N   UNL     1      -8.658   5.220  71.328  1.00  0.00    -0.127 NA 
HETATM   29  N   UNL     1      -7.313   5.133  71.055  1.00  0.00    -0.071 NA 
HETATM   30  N   UNL     1      -7.081   4.260  70.084  1.00  0.00    -0.041 NA 
ENDBRANCH  25  26
ENDBRANCH  22  25
ENDBRANCH   8  21
TORSDOF 6
ENDMDL
MODEL      186
REMARK 921   NORMALIZED FREE ENERGY PREDICTED BY IDOCK:   -3.30 KCAL/MOL
REMARK 922        TOTAL FREE ENERGY PREDICTED BY IDOCK:   -5.44 KCAL/MOL
REMARK 923 INTER-LIGAND FREE ENERGY PREDICTED BY IDOCK:   -4.10 KCAL/MOL
REMARK 924 INTRA-LIGAND FREE ENERGY PREDICTED BY IDOCK:   -1.34 KCAL/MOL
REMARK 927      BINDING AFFINITY PREDICTED BY RF-SCORE:    0.00 PKD
ROOT
HETATM    1  C   UNL     1     -10.276   7.270  67.509  1.00  0.00    -0.221 C  
HETATM    2  S   UNL     1      -9.637   8.726  68.354  1.00  0.00    -0.149 SA 
HETATM    3  C   UNL     1      -9.521   9.691  66.829  1.00  0.00    -0.161 C  
HETATM    4  C   UNL     1      -8.752   8.994  65.716  1.00  0.00    -0.197 C  
HETATM    5  O   UNL     1      -7.477   5.782  64.559  1.00  0.00    -0.066 OA 
HETATM    6  CA  UNL     1      -8.692   7.632  65.600  1.00  0.00    -0.092 C  
HETATM    7  N   UNL     1      -9.300   6.830  66.527  1.00  0.00    -0.165 N  
HETATM    8  CA  UNL     1     -10.069   5.895  68.223  1.00  0.00    -0.166 C  
HETATM    9  C   UNL     1      -8.009   7.005  64.402  1.00  0.00    -0.101 C  
HETATM   10  O   UNL     1      -8.474   4.660  66.608  1.00  0.00    -0.107 OA 
HETATM   11  C   UNL     1      -9.188   5.566  66.976  1.00  0.00    -0.116 C  
HETATM   12  OXT UNL     1      -7.976   7.556  63.308  1.00  0.00    -0.136 OA 
ENDROOT
BRANCH   4  13
HETATM   13  C   UNL     1      -8.043   9.926  64.725  1.00  0.00    -0.151 C  
BRANCH  13  14
HETATM   14  S   UNL     1      -6.232  10.051  64.840  1.00  0.00    -0.124 SA 
BRANCH  14  15
HETATM   15  C   UNL     1      -5.996  10.362  66.543  1.00  0.00    -0.070 A  
HETATM   16  N   UNL     1      -5.575   9.444  67.388  1.00  0.00    -0.041 NA 
HETATM   17  S   UNL     1      -6.376  11.864  67.271  1.00  0.00    -0.153 SA 
HETATM   18  N   UNL     1      -5.574   9.895  68.692  1.00  0.00    -0.036 NA 
HETATM   19  C   UNL     1      -6.097  11.915  70.042  1.00  0.00    -0.153 C  
HETATM   20  C   UNL     1      -5.977  11.146  68.779  1.00  0.00    -0.043 A  
ENDBRANCH  14  15
ENDBRANCH  13  14
ENDBRANCH   4  13
BRANCH   8  21
HETATM   21  N   UNL     1      -9.313   5.886  69.518  1.00  0.00    -0.133 N  
HETATM   22  C   UNL     1      -9.418   4.821  70.389  1.00  0.00    -0.172 C  
HETATM   23  H   UNL     1      -8.714   6.676  69.757  1.00  0.00     0.000 HD 
HETATM   24  O   UNL     1      -9.998   3.782  70.082  1.00  0.00    -0.128 OA 
BRANCH  22  25
HETATM   25  C   UNL     1      -8.763   5.020  71.734  1.00  0.00    -0.129 C  
BRANCH  25  26
HETATM   26  N   UNL     1      -9.276   6.187  72.400  1.00  0.00    -0.140 NA 
HETATM   27  C   UNL     1      -8.604   7.251  72.908  1.00  0.00    -0.122 A  
HETATM   28  N   UNL     1      -9.481   8.135  73.326  1.00  0.00    -0.257 NA 
HETATM   29  N   UNL     1     -10.717   7.593  73.061  1.00  0.00    -0.369 NA 
HETATM   30  N   UNL     1     -10.601   6.405  72.485  1.00  0.00    -0.206 NA 
ENDBRANCH  25  26
ENDBRANCH  22  25
ENDBRANCH   8  21
TORSDOF 6
ENDMDL
MODEL      187
REMARK 921   NORMALIZED FREE ENERGY PREDICTED BY IDOCK:   -3.27 KCAL/MOL
REMARK 922        TOTAL FREE ENERGY PREDICTED BY IDOCK:   -5.40 KCAL/MOL
REMARK 923 INTER-LIGAND FREE ENERGY PREDICTED BY IDOCK:   -4.55 KCAL/MOL
REMARK 924 INTRA-LIGAND FREE ENERGY PREDICTED BY IDOCK:   -0.84 KCAL/MOL
REMARK 927      BINDING AFFINITY PREDICTED BY RF-SCORE:    0.00 PKD
ROOT
HETATM    1  C   UNL     1      -8.920   9.368  65.766  1.00  0.00    -0.186 C  
HETATM    2  S   UNL     1      -7.288   9.971  66.231  1.00  0.00    -0.111 SA 
HETATM    3  C   UNL     1      -6.539   8.328  66.146  1.00  0.00    -0.050 C  
HETATM    4  C   UNL     1      -7.277   7.272  66.956  1.00  0.00    -0.092 C  
HETATM    5  O   UNL     1     -10.423   6.474  68.614  1.00  0.00    -0.180 OA 
HETATM    6  CA  UNL     1      -8.622   7.333  67.199  1.00  0.00    -0.121 C  
HETATM    7  N   UNL     1      -9.360   8.394  66.749  1.00  0.00    -0.171 N  
HETATM    8  CA  UNL     1     -10.142  10.244  66.192  1.00  0.00    -0.242 C  
HETATM    9  C   UNL     1      -9.314   6.189  67.910  1.00  0.00    -0.113 C  
HETATM   10  O   UNL     1     -11.369   8.711  67.872  1.00  0.00     0.422 OA 
HETATM   11  C   UNL     1     -10.523   8.999  67.056  1.00  0.00    -0.246 C  
HETATM   12  OXT UNL     1      -8.923   5.031  67.820  1.00  0.00    -0.109 OA 
ENDROOT
BRANCH   4  13
HETATM   13  C   UNL     1      -6.408   6.124  67.485  1.00  0.00    -0.037 C  
BRANCH  13  14
HETATM   14  S   UNL     1      -5.161   6.528  68.745  1.00  0.00    -0.016 SA 
BRANCH  14  15
HETATM   15  C   UNL     1      -6.000   6.137  70.226  1.00  0.00    -0.029 A  
HETATM   16  N   UNL     1      -7.246   6.495  70.462  1.00  0.00    -0.072 NA 
HETATM   17  S   UNL     1      -5.244   5.329  71.533  1.00  0.00    -0.005 SA 
HETATM   18  N   UNL     1      -7.651   6.169  71.740  1.00  0.00    -0.095 NA 
HETATM   19  C   UNL     1      -6.818   5.091  73.818  1.00  0.00    -0.079 C  
HETATM   20  C   UNL     1      -6.699   5.559  72.415  1.00  0.00    -0.071 A  
ENDBRANCH  14  15
ENDBRANCH  13  14
ENDBRANCH   4  13
BRANCH   8  21
HETATM   21  N   UNL     1      -9.870  11.479  66.998  1.00  0.00    -0.190 N  
HETATM   22  C   UNL     1     -10.807  12.488  67.080  1.00  0.00    -0.254 C  
HETATM   23  H   UNL     1      -8.982  11.574  67.491  1.00  0.00     0.000 HD 
HETATM   24  O   UNL     1     -11.946  12.358  66.637  1.00  0.00    -0.562 OA 
BRANCH  22  25
HETATM   25  C   UNL     1     -10.337  13.752  67.759  1.00  0.00    -0.241 C  
BRANCH  25  26
HETATM   26  N   UNL     1     -10.341  14.868  66.851  1.00  0.00    -0.261 NA 
HETATM   27  C   UNL     1     -10.471  16.192  67.119  1.00  0.00    -0.305 A  
HETATM   28  N   UNL     1     -10.305  16.860  66.001  1.00  0.00    -0.366 NA 
HETATM   29  N   UNL     1     -10.066  15.915  65.030  1.00  0.00    -0.415 NA 
HETATM   30  N   UNL     1     -10.076  14.693  65.544  1.00  0.00    -0.358 NA 
ENDBRANCH  25  26
ENDBRANCH  22  25
ENDBRANCH   8  21
TORSDOF 6
ENDMDL
MODEL      188
REMARK 921   NORMALIZED FREE ENERGY PREDICTED BY IDOCK:   -3.27 KCAL/MOL
REMARK 922        TOTAL FREE ENERGY PREDICTED BY IDOCK:   -5.39 KCAL/MOL
REMARK 923 INTER-LIGAND FREE ENERGY PREDICTED BY IDOCK:   -5.33 KCAL/MOL
REMARK 924 INTRA-LIGAND FREE ENERGY PREDICTED BY IDOCK:   -0.06 KCAL/MOL
REMARK 927      BINDING AFFINITY PREDICTED BY RF-SCORE:    0.00 PKD
ROOT
HETATM    1  C   UNL     1     -10.287  13.231  67.733  1.00  0.00    -0.233 C  
HETATM    2  S   UNL     1      -9.638  11.700  67.042  1.00  0.00    -0.186 SA 
HETATM    3  C   UNL     1      -8.522  11.419  68.436  1.00  0.00    -0.155 C  
HETATM    4  C   UNL     1      -7.628  12.608  68.759  1.00  0.00    -0.022 C  
HETATM    5  O   UNL     1      -7.169  16.189  68.263  1.00  0.00    -0.129 OA 
HETATM    6  CA  UNL     1      -7.997  13.901  68.506  1.00  0.00    -0.137 C  
HETATM    7  N   UNL     1      -9.193  14.173  67.900  1.00  0.00    -0.189 N  
HETATM    8  CA  UNL     1     -10.914  14.248  66.727  1.00  0.00    -0.304 C  
HETATM    9  C   UNL     1      -7.113  15.042  68.961  1.00  0.00    -0.133 C  
HETATM   10  O   UNL     1      -9.301  16.261  66.886  1.00  0.00    -0.211 OA 
HETATM   11  C   UNL     1      -9.741  15.173  67.183  1.00  0.00    -0.228 C  
HETATM   12  OXT UNL     1      -6.401  14.961  69.956  1.00  0.00    -0.144 OA 
ENDROOT
BRANCH   4  13
HETATM   13  C   UNL     1      -6.275  12.259  69.393  1.00  0.00    -0.110 C  
BRANCH  13  14
HETATM   14  S   UNL     1      -5.503  10.685  68.910  1.00  0.00    -0.040 SA 
BRANCH  14  15
HETATM   15  C   UNL     1      -6.199   9.569  70.059  1.00  0.00    -0.051 A  
HETATM   16  N   UNL     1      -7.143   9.912  70.912  1.00  0.00    -0.331 NA 
HETATM   17  S   UNL     1      -5.650   7.956  70.232  1.00  0.00    -0.022 SA 
HETATM   18  N   UNL     1      -7.451   8.893  71.789  1.00  0.00    -0.312 NA 
HETATM   19  C   UNL     1      -6.827   6.548  72.326  1.00  0.00    -0.068 C  
HETATM   20  C   UNL     1      -6.740   7.810  71.552  1.00  0.00    -0.046 A  
ENDBRANCH  14  15
ENDBRANCH  13  14
ENDBRANCH   4  13
BRANCH   8  21
HETATM   21  N   UNL     1     -10.879  13.901  65.268  1.00  0.00    -0.316 N  
HETATM   22  C   UNL     1     -11.650  12.872  64.769  1.00  0.00    -0.331 C  
HETATM   23  H   UNL     1     -10.277  14.432  64.638  1.00  0.00     0.000 HD 
HETATM   24  O   UNL     1     -12.503  12.306  65.450  1.00  0.00    -0.596 OA 
BRANCH  22  25
HETATM   25  C   UNL     1     -11.380  12.502  63.331  1.00  0.00    -0.422 C  
BRANCH  25  26
HETATM   26  N   UNL     1     -10.220  11.659  63.215  1.00  0.00    -0.406 NA 
HETATM   27  C   UNL     1     -10.031  10.391  63.663  1.00  0.00    -0.136 A  
HETATM   28  N   UNL     1      -8.863   9.971  63.237  1.00  0.00    -0.214 NA 
HETATM   29  N   UNL     1      -8.330  11.010  62.510  1.00  0.00    -0.208 NA 
HETATM   30  N   UNL     1      -9.159  12.044  62.483  1.00  0.00     0.348 NA 
ENDBRANCH  25  26
ENDBRANCH  22  25
ENDBRANCH   8  21
TORSDOF 6
ENDMDL
MODEL      189
REMARK 921   NORMALIZED FREE ENERGY PREDICTED BY IDOCK:   -3.21 KCAL/MOL
REMARK 922        TOTAL FREE ENERGY PREDICTED BY IDOCK:   -5.32 KCAL/MOL
REMARK 923 INTER-LIGAND FREE ENERGY PREDICTED BY IDOCK:   -6.51 KCAL/MOL
REMARK 924 INTRA-LIGAND FREE ENERGY PREDICTED BY IDOCK:    1.19 KCAL/MOL
REMARK 927      BINDING AFFINITY PREDICTED BY RF-SCORE:    0.00 PKD
ROOT
HETATM    1  C   UNL     1      -8.315  11.015  68.551  1.00  0.00    -0.149 C  
HETATM    2  S   UNL     1      -8.150  11.081  66.759  1.00  0.00    -0.156 SA 
HETATM    3  C   UNL     1      -8.836  12.750  66.650  1.00  0.00    -0.108 C  
HETATM    4  C   UNL     1     -10.178  12.912  67.350  1.00  0.00    -0.230 C  
HETATM    5  O   UNL     1     -12.443  11.429  69.790  1.00  0.00    -0.209 OA 
HETATM    6  CA  UNL     1     -10.544  12.155  68.429  1.00  0.00    -0.226 C  
HETATM    7  N   UNL     1      -9.715  11.173  68.901  1.00  0.00    -0.183 N  
HETATM    8  CA  UNL     1      -8.388   9.595  69.199  1.00  0.00    -0.130 C  
HETATM    9  C   UNL     1     -11.843  12.448  69.152  1.00  0.00    -0.300 C  
HETATM   10  O   UNL     1     -10.780   9.548  70.174  1.00  0.00    -0.222 OA 
HETATM   11  C   UNL     1      -9.822  10.044  69.625  1.00  0.00    -0.235 C  
HETATM   12  OXT UNL     1     -12.320  13.575  69.206  1.00  0.00    -0.260 OA 
ENDROOT
BRANCH   4  13
HETATM   13  C   UNL     1     -11.099  13.988  66.762  1.00  0.00    -0.306 C  
BRANCH  13  14
HETATM   14  S   UNL     1     -10.584  14.773  65.205  1.00  0.00    -0.433 SA 
BRANCH  14  15
HETATM   15  C   UNL     1      -9.939  16.298  65.761  1.00  0.00    -0.323 A  
HETATM   16  N   UNL     1     -10.652  17.404  65.809  1.00  0.00    -0.478 NA 
HETATM   17  S   UNL     1      -8.299  16.501  66.208  1.00  0.00    -0.282 SA 
HETATM   18  N   UNL     1      -9.896  18.498  66.175  1.00  0.00    -0.502 NA 
HETATM   19  C   UNL     1      -7.576  19.122  66.811  1.00  0.00    -0.251 C  
HETATM   20  C   UNL     1      -8.642  18.172  66.410  1.00  0.00    -0.229 A  
ENDBRANCH  14  15
ENDBRANCH  13  14
ENDBRANCH   4  13
BRANCH   8  21
HETATM   21  N   UNL     1      -8.372   8.407  68.284  1.00  0.00    -0.130 N  
HETATM   22  C   UNL     1      -9.520   8.001  67.635  1.00  0.00    -0.145 C  
HETATM   23  H   UNL     1      -7.503   7.892  68.141  1.00  0.00     0.000 HD 
HETATM   24  O   UNL     1     -10.550   8.672  67.650  1.00  0.00    -0.248 OA 
BRANCH  22  25
HETATM   25  C   UNL     1      -9.415   6.687  66.900  1.00  0.00    -0.154 C  
BRANCH  25  26
HETATM   26  N   UNL     1      -9.173   5.596  67.807  1.00  0.00    -0.107 NA 
HETATM   27  C   UNL     1      -8.007   4.971  68.107  1.00  0.00    -0.087 A  
HETATM   28  N   UNL     1      -8.235   4.107  69.069  1.00  0.00    -0.070 NA 
HETATM   29  N   UNL     1      -9.574   4.213  69.361  1.00  0.00    -0.191 NA 
HETATM   30  N   UNL     1     -10.155   5.130  68.600  1.00  0.00    -0.168 NA 
ENDBRANCH  25  26
ENDBRANCH  22  25
ENDBRANCH   8  21
TORSDOF 6
ENDMDL
MODEL      190
REMARK 921   NORMALIZED FREE ENERGY PREDICTED BY IDOCK:   -3.14 KCAL/MOL
REMARK 922        TOTAL FREE ENERGY PREDICTED BY IDOCK:   -5.23 KCAL/MOL
REMARK 923 INTER-LIGAND FREE ENERGY PREDICTED BY IDOCK:   -5.19 KCAL/MOL
REMARK 924 INTRA-LIGAND FREE ENERGY PREDICTED BY IDOCK:   -0.04 KCAL/MOL
REMARK 927      BINDING AFFINITY PREDICTED BY RF-SCORE:    0.00 PKD
ROOT
HETATM    1  C   UNL     1      -8.301  10.920  69.279  1.00  0.00    -0.012 C  
HETATM    2  S   UNL     1     -10.100  10.969  69.314  1.00  0.00    -0.021 SA 
HETATM    3  C   UNL     1     -10.236   9.346  70.099  1.00  0.00    -0.231 C  
HETATM    4  C   UNL     1      -9.466   8.247  69.380  1.00  0.00    -0.159 C  
HETATM    5  O   UNL     1      -6.841   7.580  66.942  1.00  0.00    -0.066 OA 
HETATM    6  CA  UNL     1      -8.338   8.494  68.647  1.00  0.00    -0.123 C  
HETATM    7  N   UNL     1      -7.876   9.773  68.495  1.00  0.00    -0.081 N  
HETATM    8  CA  UNL     1      -7.593  11.819  68.216  1.00  0.00    -0.122 C  
HETATM    9  C   UNL     1      -7.554   7.341  68.056  1.00  0.00    -0.115 C  
HETATM   10  O   UNL     1      -6.478  10.078  66.665  1.00  0.00    -0.068 OA 
HETATM   11  C   UNL     1      -7.101  10.456  67.631  1.00  0.00    -0.085 C  
HETATM   12  OXT UNL     1      -7.517   6.237  68.585  1.00  0.00    -0.084 OA 
ENDROOT
BRANCH   4  13
HETATM   13  C   UNL     1     -10.042   6.834  69.533  1.00  0.00    -0.178 C  
BRANCH  13  14
HETATM   14  S   UNL     1     -11.176   6.537  70.924  1.00  0.00    -0.330 SA 
BRANCH  14  15
HETATM   15  C   UNL     1     -10.242   5.457  71.931  1.00  0.00    -0.203 A  
HETATM   16  N   UNL     1     -10.642   5.058  73.120  1.00  0.00    -0.204 NA 
HETATM   17  S   UNL     1      -8.685   4.896  71.490  1.00  0.00    -0.131 SA 
HETATM   18  N   UNL     1      -9.687   4.301  73.767  1.00  0.00    -0.118 NA 
HETATM   19  C   UNL     1      -7.398   3.388  73.446  1.00  0.00    -0.056 C  
HETATM   20  C   UNL     1      -8.607   4.141  73.031  1.00  0.00    -0.100 A  
ENDBRANCH  14  15
ENDBRANCH  13  14
ENDBRANCH   4  13
BRANCH   8  21
HETATM   21  N   UNL     1      -8.458  12.604  67.276  1.00  0.00    -0.186 N  
HETATM   22  C   UNL     1      -8.397  13.982  67.246  1.00  0.00    -0.194 C  
HETATM   23  H   UNL     1      -9.098  12.114  66.652  1.00  0.00     0.000 HD 
HETATM   24  O   UNL     1      -7.538  14.611  67.861  1.00  0.00    -0.115 OA 
BRANCH  22  25
HETATM   25  C   UNL     1      -9.449  14.656  66.399  1.00  0.00    -0.299 C  
BRANCH  25  26
HETATM   26  N   UNL     1      -9.250  16.080  66.349  1.00  0.00    -0.276 NA 
HETATM   27  C   UNL     1      -8.092  16.783  66.278  1.00  0.00    -0.330 A  
HETATM   28  N   UNL     1      -8.387  18.055  66.140  1.00  0.00    -0.485 NA 
HETATM   29  N   UNL     1      -9.760  18.124  66.124  1.00  0.00    -0.500 NA 
HETATM   30  N   UNL     1     -10.298  16.918  66.241  1.00  0.00    -0.320 NA 
ENDBRANCH  25  26
ENDBRANCH  22  25
ENDBRANCH   8  21
TORSDOF 6
ENDMDL
MODEL      191
REMARK 921   NORMALIZED FREE ENERGY PREDICTED BY IDOCK:   -3.13 KCAL/MOL
REMARK 922        TOTAL FREE ENERGY PREDICTED BY IDOCK:   -5.21 KCAL/MOL
REMARK 923 INTER-LIGAND FREE ENERGY PREDICTED BY IDOCK:   -6.09 KCAL/MOL
REMARK 924 INTRA-LIGAND FREE ENERGY PREDICTED BY IDOCK:    0.88 KCAL/MOL
REMARK 927      BINDING AFFINITY PREDICTED BY RF-SCORE:    0.00 PKD
ROOT
HETATM    1  C   UNL     1      -9.685   5.963  72.776  1.00  0.00    -0.156 C  
HETATM    2  S   UNL     1     -10.779   5.096  71.637  1.00  0.00    -0.046 SA 
HETATM    3  C   UNL     1      -9.422   4.201  70.847  1.00  0.00    -0.162 C  
HETATM    4  C   UNL     1      -8.290   5.097  70.364  1.00  0.00    -0.105 C  
HETATM    5  O   UNL     1      -6.802   8.410  70.668  1.00  0.00    -0.036 OA 
HETATM    6  CA  UNL     1      -7.987   6.291  70.961  1.00  0.00    -0.116 C  
HETATM    7  N   UNL     1      -8.737   6.751  72.009  1.00  0.00    -0.126 N  
HETATM    8  CA  UNL     1     -10.212   7.308  73.372  1.00  0.00    -0.347 C  
HETATM    9  C   UNL     1      -6.775   7.076  70.507  1.00  0.00    -0.053 C  
HETATM   10  O   UNL     1      -8.579   9.041  72.369  1.00  0.00    -0.354 OA 
HETATM   11  C   UNL     1      -9.010   7.933  72.594  1.00  0.00    -0.192 C  
HETATM   12  OXT UNL     1      -5.776   6.531  70.051  1.00  0.00    -0.017 OA 
ENDROOT
BRANCH   4  13
HETATM   13  C   UNL     1      -7.505   4.570  69.157  1.00  0.00    -0.056 C  
BRANCH  13  14
HETATM   14  S   UNL     1      -8.440   4.219  67.637  1.00  0.00    -0.099 SA 
BRANCH  14  15
HETATM   15  C   UNL     1      -9.427   5.651  67.477  1.00  0.00    -0.114 A  
HETATM   16  N   UNL     1     -10.735   5.609  67.329  1.00  0.00    -0.252 NA 
HETATM   17  S   UNL     1      -8.764   7.229  67.412  1.00  0.00    -0.121 SA 
HETATM   18  N   UNL     1     -11.277   6.859  67.112  1.00  0.00    -0.295 NA 
HETATM   19  C   UNL     1     -10.617   9.246  66.910  1.00  0.00    -0.239 C  
HETATM   20  C   UNL     1     -10.357   7.802  67.124  1.00  0.00    -0.319 A  
ENDBRANCH  14  15
ENDBRANCH  13  14
ENDBRANCH   4  13
BRANCH   8  21
HETATM   21  N   UNL     1     -11.552   7.800  72.912  1.00  0.00    -0.603 N  
HETATM   22  C   UNL     1     -11.728   8.267  71.626  1.00  0.00    -0.292 C  
HETATM   23  H   UNL     1     -12.341   7.789  73.557  1.00  0.00     0.000 HD 
HETATM   24  O   UNL     1     -10.856   8.157  70.767  1.00  0.00    -0.220 OA 
BRANCH  22  25
HETATM   25  C   UNL     1     -13.067   8.908  71.350  1.00  0.00    -0.269 C  
BRANCH  25  26
HETATM   26  N   UNL     1     -12.952  10.338  71.245  1.00  0.00    -0.392 NA 
HETATM   27  C   UNL     1     -13.228  11.292  72.169  1.00  0.00    -0.181 A  
HETATM   28  N   UNL     1     -12.871  12.458  71.681  1.00  0.00    -0.322 NA 
HETATM   29  N   UNL     1     -12.364  12.203  70.429  1.00  0.00    -0.276 NA 
HETATM   30  N   UNL     1     -12.400  10.905  70.157  1.00  0.00    -0.324 NA 
ENDBRANCH  25  26
ENDBRANCH  22  25
ENDBRANCH   8  21
TORSDOF 6
ENDMDL
MODEL      192
REMARK 921   NORMALIZED FREE ENERGY PREDICTED BY IDOCK:   -3.12 KCAL/MOL
REMARK 922        TOTAL FREE ENERGY PREDICTED BY IDOCK:   -5.19 KCAL/MOL
REMARK 923 INTER-LIGAND FREE ENERGY PREDICTED BY IDOCK:   -3.86 KCAL/MOL
REMARK 924 INTRA-LIGAND FREE ENERGY PREDICTED BY IDOCK:   -1.33 KCAL/MOL
REMARK 927      BINDING AFFINITY PREDICTED BY RF-SCORE:    0.00 PKD
ROOT
HETATM    1  C   UNL     1      -7.494   6.684  69.078  1.00  0.00    -0.095 C  
HETATM    2  S   UNL     1      -8.163   5.888  67.609  1.00  0.00    -0.104 SA 
HETATM    3  C   UNL     1      -8.672   7.453  66.862  1.00  0.00    -0.126 C  
HETATM    4  C   UNL     1      -9.525   8.323  67.775  1.00  0.00    -0.171 C  
HETATM    5  O   UNL     1     -10.542   8.883  71.229  1.00  0.00    -0.232 OA 
HETATM    6  CA  UNL     1      -9.421   8.287  69.139  1.00  0.00    -0.155 C  
HETATM    7  N   UNL     1      -8.559   7.414  69.744  1.00  0.00    -0.139 N  
HETATM    8  CA  UNL     1      -7.387   5.807  70.367  1.00  0.00    -0.080 C  
HETATM    9  C   UNL     1     -10.213   9.263  69.983  1.00  0.00    -0.215 C  
HETATM   10  O   UNL     1      -9.061   6.956  71.966  1.00  0.00    -0.138 OA 
HETATM   11  C   UNL     1      -8.421   6.825  70.947  1.00  0.00    -0.136 C  
HETATM   12  OXT UNL     1     -10.511  10.382  69.581  1.00  0.00    -0.231 OA 
ENDROOT
BRANCH   4  13
HETATM   13  C   UNL     1     -10.514   9.253  67.060  1.00  0.00    -0.233 C  
BRANCH  13  14
HETATM   14  S   UNL     1      -9.901  10.185  65.624  1.00  0.00    -0.288 SA 
BRANCH  14  15
HETATM   15  C   UNL     1      -8.662  11.186  66.342  1.00  0.00    -0.177 A  
HETATM   16  N   UNL     1      -7.390  10.848  66.365  1.00  0.00    -0.141 NA 
HETATM   17  S   UNL     1      -9.013  12.653  67.154  1.00  0.00    -0.211 SA 
HETATM   18  N   UNL     1      -6.624  11.743  67.082  1.00  0.00    -0.131 NA 
HETATM   19  C   UNL     1      -6.820  13.854  68.379  1.00  0.00    -0.101 C  
HETATM   20  C   UNL     1      -7.346  12.737  67.558  1.00  0.00    -0.153 A  
ENDBRANCH  14  15
ENDBRANCH  13  14
ENDBRANCH   4  13
BRANCH   8  21
HETATM   21  N   UNL     1      -7.897   4.399  70.299  1.00  0.00    -0.058 N  
HETATM   22  C   UNL     1      -7.539   3.472  71.256  1.00  0.00    -0.048 C  
HETATM   23  H   UNL     1      -8.516   4.123  69.537  1.00  0.00     0.000 HD 
HETATM   24  O   UNL     1      -6.926   3.788  72.274  1.00  0.00    -0.042 OA 
BRANCH  22  25
HETATM   25  C   UNL     1      -7.960   2.051  70.969  1.00  0.00    -0.046 C  
BRANCH  25  26
HETATM   26  N   UNL     1      -8.147   1.834  69.559  1.00  0.00    -0.045 NA 
HETATM   27  C   UNL     1      -9.288   1.563  68.875  1.00  0.00    -0.144 A  
HETATM   28  N   UNL     1      -9.010   1.552  67.592  1.00  0.00    -0.118 NA 
HETATM   29  N   UNL     1      -7.667   1.828  67.495  1.00  0.00    -0.059 NA 
HETATM   30  N   UNL     1      -7.132   2.012  68.695  1.00  0.00    -0.043 NA 
ENDBRANCH  25  26
ENDBRANCH  22  25
ENDBRANCH   8  21
TORSDOF 6
ENDMDL
MODEL      193
REMARK 921   NORMALIZED FREE ENERGY PREDICTED BY IDOCK:   -3.11 KCAL/MOL
REMARK 922        TOTAL FREE ENERGY PREDICTED BY IDOCK:   -5.18 KCAL/MOL
REMARK 923 INTER-LIGAND FREE ENERGY PREDICTED BY IDOCK:   -4.59 KCAL/MOL
REMARK 924 INTRA-LIGAND FREE ENERGY PREDICTED BY IDOCK:   -0.59 KCAL/MOL
REMARK 927      BINDING AFFINITY PREDICTED BY RF-SCORE:    0.00 PKD
ROOT
HETATM    1  C   UNL     1      -8.876   7.343  73.107  1.00  0.00    -0.149 C  
HETATM    2  S   UNL     1      -7.717   7.496  71.738  1.00  0.00    -0.088 SA 
HETATM    3  C   UNL     1      -8.421   9.063  71.177  1.00  0.00    -0.177 C  
HETATM    4  C   UNL     1      -9.928   9.022  70.966  1.00  0.00    -0.349 C  
HETATM    5  O   UNL     1     -12.974   7.167  71.719  1.00  0.00    -0.352 OA 
HETATM    6  CA  UNL     1     -10.750   8.185  71.670  1.00  0.00    -0.241 C  
HETATM    7  N   UNL     1     -10.228   7.304  72.578  1.00  0.00    -0.190 N  
HETATM    8  CA  UNL     1      -9.128   5.904  73.660  1.00  0.00    -0.127 C  
HETATM    9  C   UNL     1     -12.251   8.279  71.497  1.00  0.00    -0.301 C  
HETATM   10  O   UNL     1     -11.614   5.508  73.078  1.00  0.00    -0.274 OA 
HETATM   11  C   UNL     1     -10.588   6.145  73.160  1.00  0.00    -0.248 C  
HETATM   12  OXT UNL     1     -12.812   9.331  71.214  1.00  0.00    -0.322 OA 
ENDROOT
BRANCH   4  13
HETATM   13  C   UNL     1     -10.469   9.989  69.905  1.00  0.00    -0.274 C  
BRANCH  13  14
HETATM   14  S   UNL     1     -10.489   9.415  68.180  1.00  0.00    -0.210 SA 
BRANCH  14  15
HETATM   15  C   UNL     1      -8.933   9.956  67.598  1.00  0.00    -0.128 A  
HETATM   16  N   UNL     1      -8.430  11.138  67.887  1.00  0.00    -0.127 NA 
HETATM   17  S   UNL     1      -7.970   9.025  66.531  1.00  0.00    -0.104 SA 
HETATM   18  N   UNL     1      -7.245  11.377  67.224  1.00  0.00    -0.111 NA 
HETATM   19  C   UNL     1      -5.669  10.307  65.627  1.00  0.00    -0.088 C  
HETATM   20  C   UNL     1      -6.887  10.356  66.473  1.00  0.00    -0.107 A  
ENDBRANCH  14  15
ENDBRANCH  13  14
ENDBRANCH   4  13
BRANCH   8  21
HETATM   21  N   UNL     1      -8.435   4.762  72.978  1.00  0.00    -0.103 N  
HETATM   22  C   UNL     1      -8.748   3.456  73.295  1.00  0.00    -0.081 C  
HETATM   23  H   UNL     1      -7.725   4.953  72.272  1.00  0.00     0.000 HD 
HETATM   24  O   UNL     1      -9.698   3.171  74.021  1.00  0.00    -0.094 OA 
BRANCH  22  25
HETATM   25  C   UNL     1      -7.850   2.410  72.682  1.00  0.00    -0.053 C  
BRANCH  25  26
HETATM   26  N   UNL     1      -8.082   2.282  71.268  1.00  0.00    -0.046 NA 
HETATM   27  C   UNL     1      -8.995   2.913  70.487  1.00  0.00    -0.102 A  
HETATM   28  N   UNL     1      -8.776   2.575  69.237  1.00  0.00    -0.074 NA 
HETATM   29  N   UNL     1      -7.701   1.718  69.261  1.00  0.00    -0.042 NA 
HETATM   30  N   UNL     1      -7.263   1.541  70.500  1.00  0.00    -0.033 NA 
ENDBRANCH  25  26
ENDBRANCH  22  25
ENDBRANCH   8  21
TORSDOF 6
ENDMDL
MODEL      194
REMARK 921   NORMALIZED FREE ENERGY PREDICTED BY IDOCK:   -3.09 KCAL/MOL
REMARK 922        TOTAL FREE ENERGY PREDICTED BY IDOCK:   -5.15 KCAL/MOL
REMARK 923 INTER-LIGAND FREE ENERGY PREDICTED BY IDOCK:   -6.29 KCAL/MOL
REMARK 924 INTRA-LIGAND FREE ENERGY PREDICTED BY IDOCK:    1.14 KCAL/MOL
REMARK 927      BINDING AFFINITY PREDICTED BY RF-SCORE:    0.00 PKD
ROOT
HETATM    1  C   UNL     1     -10.900   6.469  71.648  1.00  0.00    -0.240 C  
HETATM    2  S   UNL     1     -11.596   6.511  69.988  1.00  0.00    -0.299 SA 
HETATM    3  C   UNL     1     -10.331   5.409  69.315  1.00  0.00    -0.251 C  
HETATM    4  C   UNL     1      -8.906   5.853  69.610  1.00  0.00    -0.131 C  
HETATM    5  O   UNL     1      -6.850   8.001  71.719  1.00  0.00    -0.058 OA 
HETATM    6  CA  UNL     1      -8.573   6.581  70.721  1.00  0.00    -0.135 C  
HETATM    7  N   UNL     1      -9.541   6.980  71.602  1.00  0.00    -0.157 N  
HETATM    8  CA  UNL     1     -11.243   7.672  72.585  1.00  0.00    -0.366 C  
HETATM    9  C   UNL     1      -7.121   6.888  71.016  1.00  0.00    -0.071 C  
HETATM   10  O   UNL     1      -8.937   8.782  72.938  1.00  0.00    -0.337 OA 
HETATM   11  C   UNL     1      -9.705   7.940  72.532  1.00  0.00    -0.227 C  
HETATM   12  OXT UNL     1      -6.212   6.138  70.677  1.00  0.00    -0.035 OA 
ENDROOT
BRANCH   4  13
HETATM   13  C   UNL     1      -7.857   5.428  68.574  1.00  0.00    -0.088 C  
BRANCH  13  14
HETATM   14  S   UNL     1      -8.343   4.163  67.361  1.00  0.00    -0.099 SA 
BRANCH  14  15
HETATM   15  C   UNL     1      -8.059   4.983  65.846  1.00  0.00    -0.108 A  
HETATM   16  N   UNL     1      -8.568   4.575  64.702  1.00  0.00    -0.133 NA 
HETATM   17  S   UNL     1      -7.024   6.341  65.708  1.00  0.00    -0.058 SA 
HETATM   18  N   UNL     1      -8.114   5.318  63.632  1.00  0.00    -0.108 NA 
HETATM   19  C   UNL     1      -6.625   7.236  63.101  1.00  0.00    -0.053 C  
HETATM   20  C   UNL     1      -7.292   6.274  64.013  1.00  0.00    -0.072 A  
ENDBRANCH  14  15
ENDBRANCH  13  14
ENDBRANCH   4  13
BRANCH   8  21
HETATM   21  N   UNL     1     -12.072   8.786  72.019  1.00  0.00    -0.355 N  
HETATM   22  C   UNL     1     -11.492   9.779  71.258  1.00  0.00    -0.385 C  
HETATM   23  H   UNL     1     -13.075   8.810  72.199  1.00  0.00     0.000 HD 
HETATM   24  O   UNL     1     -10.323   9.716  70.883  1.00  0.00    -0.300 OA 
BRANCH  22  25
HETATM   25  C   UNL     1     -12.396  10.938  70.912  1.00  0.00    -0.400 C  
BRANCH  25  26
HETATM   26  N   UNL     1     -12.044  11.518  69.644  1.00  0.00    -0.310 NA 
HETATM   27  C   UNL     1     -11.360  12.661  69.382  1.00  0.00    -0.208 A  
HETATM   28  N   UNL     1     -11.172  12.745  68.085  1.00  0.00    -0.253 NA 
HETATM   29  N   UNL     1     -11.755  11.622  67.547  1.00  0.00    -0.590 NA 
HETATM   30  N   UNL     1     -12.283  10.859  68.495  1.00  0.00    -0.461 NA 
ENDBRANCH  25  26
ENDBRANCH  22  25
ENDBRANCH   8  21
TORSDOF 6
ENDMDL
MODEL      195
REMARK 921   NORMALIZED FREE ENERGY PREDICTED BY IDOCK:   -3.08 KCAL/MOL
REMARK 922        TOTAL FREE ENERGY PREDICTED BY IDOCK:   -5.15 KCAL/MOL
REMARK 923 INTER-LIGAND FREE ENERGY PREDICTED BY IDOCK:   -4.26 KCAL/MOL
REMARK 924 INTRA-LIGAND FREE ENERGY PREDICTED BY IDOCK:   -0.89 KCAL/MOL
REMARK 927      BINDING AFFINITY PREDICTED BY RF-SCORE:    0.00 PKD
ROOT
HETATM    1  C   UNL     1     -11.158  15.113  69.147  1.00  0.00    -0.258 C  
HETATM    2  S   UNL     1      -9.645  14.615  69.986  1.00  0.00     0.831 SA 
HETATM    3  C   UNL     1      -8.668  15.939  69.238  1.00  0.00    -0.250 C  
HETATM    4  C   UNL     1      -8.773  16.001  67.721  1.00  0.00    -0.170 C  
HETATM    5  O   UNL     1     -10.732  14.923  64.842  1.00  0.00    -0.398 OA 
HETATM    6  CA  UNL     1      -9.884  15.583  67.040  1.00  0.00    -0.232 C  
HETATM    7  N   UNL     1     -10.946  15.042  67.712  1.00  0.00    -0.288 N  
HETATM    8  CA  UNL     1     -12.256  14.016  68.966  1.00  0.00    -0.245 C  
HETATM    9  C   UNL     1      -9.971  15.783  65.541  1.00  0.00    -0.306 C  
HETATM   10  O   UNL     1     -12.344  13.731  66.400  1.00  0.00    -0.439 OA 
HETATM   11  C   UNL     1     -11.984  14.227  67.442  1.00  0.00    -0.391 C  
HETATM   12  OXT UNL     1      -9.416  16.716  64.973  1.00  0.00     0.346 OA 
ENDROOT
BRANCH   4  13
HETATM   13  C   UNL     1      -7.544  16.568  67.000  1.00  0.00    -0.205 C  
BRANCH  13  14
HETATM   14  S   UNL     1      -5.991  16.668  67.942  1.00  0.00    -0.136 SA 
BRANCH  14  15
HETATM   15  C   UNL     1      -5.696  14.992  68.336  1.00  0.00    -0.107 A  
HETATM   16  N   UNL     1      -5.766  14.023  67.447  1.00  0.00    -0.321 NA 
HETATM   17  S   UNL     1      -5.376  14.460  69.932  1.00  0.00    -0.098 SA 
HETATM   18  N   UNL     1      -5.602  12.778  68.019  1.00  0.00    -0.085 NA 
HETATM   19  C   UNL     1      -5.195  11.696  70.219  1.00  0.00    -0.095 C  
HETATM   20  C   UNL     1      -5.396  12.856  69.317  1.00  0.00    -0.074 A  
ENDBRANCH  14  15
ENDBRANCH  13  14
ENDBRANCH   4  13
BRANCH   8  21
HETATM   21  N   UNL     1     -11.948  12.631  69.450  1.00  0.00    -0.289 N  
HETATM   22  C   UNL     1     -12.481  12.162  70.633  1.00  0.00    -0.242 C  
HETATM   23  H   UNL     1     -11.337  12.028  68.898  1.00  0.00     0.000 HD 
HETATM   24  O   UNL     1     -13.339  12.784  71.254  1.00  0.00    -0.150 OA 
BRANCH  22  25
HETATM   25  C   UNL     1     -11.942  10.831  71.101  1.00  0.00    -0.258 C  
BRANCH  25  26
HETATM   26  N   UNL     1     -11.207  10.167  70.058  1.00  0.00    -0.279 NA 
HETATM   27  C   UNL     1     -11.524   9.045  69.363  1.00  0.00     0.389 A  
HETATM   28  N   UNL     1     -10.618   8.864  68.431  1.00  0.00    -0.182 NA 
HETATM   29  N   UNL     1      -9.729   9.905  68.562  1.00  0.00    -0.151 NA 
HETATM   30  N   UNL     1     -10.087  10.714  69.550  1.00  0.00    -0.180 NA 
ENDBRANCH  25  26
ENDBRANCH  22  25
ENDBRANCH   8  21
TORSDOF 6
ENDMDL
MODEL      196
REMARK 921   NORMALIZED FREE ENERGY PREDICTED BY IDOCK:   -2.97 KCAL/MOL
REMARK 922        TOTAL FREE ENERGY PREDICTED BY IDOCK:   -5.00 KCAL/MOL
REMARK 923 INTER-LIGAND FREE ENERGY PREDICTED BY IDOCK:   -3.98 KCAL/MOL
REMARK 924 INTRA-LIGAND FREE ENERGY PREDICTED BY IDOCK:   -1.02 KCAL/MOL
REMARK 927      BINDING AFFINITY PREDICTED BY RF-SCORE:    0.00 PKD
ROOT
HETATM    1  C   UNL     1      -9.396  16.488  69.799  1.00  0.00     0.477 C  
HETATM    2  S   UNL     1      -9.121  14.755  70.201  1.00  0.00     1.139 SA 
HETATM    3  C   UNL     1      -7.378  14.811  69.727  1.00  0.00    -0.063 C  
HETATM    4  C   UNL     1      -7.135  15.371  68.333  1.00  0.00    -0.111 C  
HETATM    5  O   UNL     1      -8.614  17.300  65.618  1.00  0.00    -0.476 OA 
HETATM    6  CA  UNL     1      -7.971  16.282  67.746  1.00  0.00    -0.142 C  
HETATM    7  N   UNL     1      -9.104  16.697  68.392  1.00  0.00    -0.218 N  
HETATM    8  CA  UNL     1     -10.866  16.913  69.482  1.00  0.00    -0.144 C  
HETATM    9  C   UNL     1      -7.608  16.887  66.407  1.00  0.00    -0.304 C  
HETATM   10  O   UNL     1     -10.728  17.595  66.994  1.00  0.00    -0.291 OA 
HETATM   11  C   UNL     1     -10.294  17.235  68.065  1.00  0.00    -0.353 C  
HETATM   12  OXT UNL     1      -6.445  17.049  66.057  1.00  0.00    -0.129 OA 
ENDROOT
BRANCH   4  13
HETATM   13  C   UNL     1      -5.881  14.844  67.623  1.00  0.00    -0.028 C  
BRANCH  13  14
HETATM   14  S   UNL     1      -5.142  13.308  68.257  1.00  0.00    -0.096 SA 
BRANCH  14  15
HETATM   15  C   UNL     1      -6.090  12.086  67.447  1.00  0.00    -0.130 A  
HETATM   16  N   UNL     1      -5.564  11.186  66.642  1.00  0.00    -0.100 NA 
HETATM   17  S   UNL     1      -7.797  12.010  67.565  1.00  0.00    -0.166 SA 
HETATM   18  N   UNL     1      -6.524  10.401  66.037  1.00  0.00    -0.110 NA 
HETATM   19  C   UNL     1      -8.987  10.079  65.947  1.00  0.00    -0.182 C  
HETATM   20  C   UNL     1      -7.740  10.727  66.424  1.00  0.00    -0.145 A  
ENDBRANCH  14  15
ENDBRANCH  13  14
ENDBRANCH   4  13
BRANCH   8  21
HETATM   21  N   UNL     1     -11.918  15.845  69.482  1.00  0.00    -0.346 N  
HETATM   22  C   UNL     1     -12.466  15.393  70.665  1.00  0.00    -0.428 C  
HETATM   23  H   UNL     1     -12.233  15.447  68.597  1.00  0.00     0.000 HD 
HETATM   24  O   UNL     1     -12.238  15.942  71.741  1.00  0.00    -0.411 OA 
BRANCH  22  25
HETATM   25  C   UNL     1     -13.368  14.190  70.541  1.00  0.00     0.157 C  
BRANCH  25  26
HETATM   26  N   UNL     1     -12.608  12.976  70.399  1.00  0.00    -0.159 NA 
HETATM   27  C   UNL     1     -12.587  11.878  71.196  1.00  0.00    -0.288 A  
HETATM   28  N   UNL     1     -11.835  10.966  70.625  1.00  0.00    -0.347 NA 
HETATM   29  N   UNL     1     -11.390  11.525  69.450  1.00  0.00    -0.271 NA 
HETATM   30  N   UNL     1     -11.867  12.753  69.299  1.00  0.00    -0.310 NA 
ENDBRANCH  25  26
ENDBRANCH  22  25
ENDBRANCH   8  21
TORSDOF 6
ENDMDL
MODEL      197
REMARK 921   NORMALIZED FREE ENERGY PREDICTED BY IDOCK:   -2.96 KCAL/MOL
REMARK 922        TOTAL FREE ENERGY PREDICTED BY IDOCK:   -4.98 KCAL/MOL
REMARK 923 INTER-LIGAND FREE ENERGY PREDICTED BY IDOCK:   -4.27 KCAL/MOL
REMARK 924 INTRA-LIGAND FREE ENERGY PREDICTED BY IDOCK:   -0.71 KCAL/MOL
REMARK 927      BINDING AFFINITY PREDICTED BY RF-SCORE:    0.00 PKD
ROOT
HETATM    1  C   UNL     1      -9.284   6.906  67.230  1.00  0.00    -0.127 C  
HETATM    2  S   UNL     1      -9.935   8.316  68.142  1.00  0.00    -0.198 SA 
HETATM    3  C   UNL     1     -10.149   9.317  66.652  1.00  0.00    -0.271 C  
HETATM    4  C   UNL     1      -8.898   9.414  65.790  1.00  0.00    -0.204 C  
HETATM    5  O   UNL     1      -5.643   7.919  65.115  1.00  0.00    -0.036 OA 
HETATM    6  CA  UNL     1      -7.951   8.428  65.749  1.00  0.00    -0.108 C  
HETATM    7  N   UNL     1      -8.076   7.314  66.534  1.00  0.00    -0.110 N  
HETATM    8  CA  UNL     1      -8.397   5.899  68.031  1.00  0.00    -0.111 C  
HETATM    9  C   UNL     1      -6.791   8.533  64.781  1.00  0.00    -0.072 C  
HETATM   10  O   UNL     1      -6.087   6.173  66.905  1.00  0.00    -0.023 OA 
HETATM   11  C   UNL     1      -7.273   6.364  67.050  1.00  0.00    -0.074 C  
HETATM   12  OXT UNL     1      -6.889   9.112  63.705  1.00  0.00    -0.089 OA 
ENDROOT
BRANCH   4  13
HETATM   13  C   UNL     1      -8.769  10.699  64.962  1.00  0.00    -0.176 C  
BRANCH  13  14
HETATM   14  S   UNL     1     -10.248  11.745  64.802  1.00  0.00    -0.293 SA 
BRANCH  14  15
HETATM   15  C   UNL     1     -10.157  12.727  66.244  1.00  0.00    -0.259 A  
HETATM   16  N   UNL     1      -9.069  12.823  66.980  1.00  0.00    -0.214 NA 
HETATM   17  S   UNL     1     -11.504  13.580  66.869  1.00  0.00    -0.363 SA 
HETATM   18  N   UNL     1      -9.275  13.566  68.124  1.00  0.00    -0.204 NA 
HETATM   19  C   UNL     1     -11.048  14.841  69.310  1.00  0.00    -0.283 C  
HETATM   20  C   UNL     1     -10.509  14.020  68.198  1.00  0.00    -0.243 A  
ENDBRANCH  14  15
ENDBRANCH  13  14
ENDBRANCH   4  13
BRANCH   8  21
HETATM   21  N   UNL     1      -8.111   6.209  69.470  1.00  0.00    -0.110 N  
HETATM   22  C   UNL     1      -8.760   5.531  70.480  1.00  0.00    -0.135 C  
HETATM   23  H   UNL     1      -7.429   6.930  69.704  1.00  0.00     0.000 HD 
HETATM   24  O   UNL     1      -9.471   4.553  70.257  1.00  0.00    -0.136 OA 
BRANCH  22  25
HETATM   25  C   UNL     1      -8.527   6.067  71.871  1.00  0.00    -0.133 C  
BRANCH  25  26
HETATM   26  N   UNL     1      -7.648   5.212  72.623  1.00  0.00    -0.095 NA 
HETATM   27  C   UNL     1      -6.371   4.840  72.353  1.00  0.00    -0.033 A  
HETATM   28  N   UNL     1      -5.919   4.141  73.368  1.00  0.00    -0.011 NA 
HETATM   29  N   UNL     1      -6.948   4.089  74.279  1.00  0.00    -0.058 NA 
HETATM   30  N   UNL     1      -8.008   4.751  73.835  1.00  0.00    -0.101 NA 
ENDBRANCH  25  26
ENDBRANCH  22  25
ENDBRANCH   8  21
TORSDOF 6
ENDMDL
MODEL      198
REMARK 921   NORMALIZED FREE ENERGY PREDICTED BY IDOCK:   -2.96 KCAL/MOL
REMARK 922        TOTAL FREE ENERGY PREDICTED BY IDOCK:   -4.97 KCAL/MOL
REMARK 923 INTER-LIGAND FREE ENERGY PREDICTED BY IDOCK:   -6.62 KCAL/MOL
REMARK 924 INTRA-LIGAND FREE ENERGY PREDICTED BY IDOCK:    1.65 KCAL/MOL
REMARK 927      BINDING AFFINITY PREDICTED BY RF-SCORE:    0.00 PKD
ROOT
HETATM    1  C   UNL     1      -8.362   8.031  70.484  1.00  0.00    -0.123 C  
HETATM    2  S   UNL     1      -8.297   8.920  68.920  1.00  0.00    -0.123 SA 
HETATM    3  C   UNL     1      -9.472  10.181  69.465  1.00  0.00    -0.214 C  
HETATM    4  C   UNL     1     -10.769   9.613  70.025  1.00  0.00    -0.298 C  
HETATM    5  O   UNL     1     -12.362   6.615  71.350  1.00  0.00    -0.351 OA 
HETATM    6  CA  UNL     1     -10.839   8.390  70.633  1.00  0.00    -0.231 C  
HETATM    7  N   UNL     1      -9.727   7.597  70.722  1.00  0.00    -0.174 N  
HETATM    8  CA  UNL     1      -7.964   6.520  70.452  1.00  0.00    -0.115 C  
HETATM    9  C   UNL     1     -12.134   7.937  71.274  1.00  0.00    -0.296 C  
HETATM   10  O   UNL     1     -10.182   5.344  71.062  1.00  0.00    -0.206 OA 
HETATM   11  C   UNL     1      -9.448   6.289  70.879  1.00  0.00    -0.172 C  
HETATM   12  OXT UNL     1     -12.936   8.729  71.755  1.00  0.00    -0.325 OA 
ENDROOT
BRANCH   4  13
HETATM   13  C   UNL     1     -12.003  10.511  69.862  1.00  0.00    -0.264 C  
BRANCH  13  14
HETATM   14  S   UNL     1     -11.721  12.247  69.398  1.00  0.00    -0.320 SA 
BRANCH  14  15
HETATM   15  C   UNL     1     -12.464  13.105  70.725  1.00  0.00    -0.308 A  
HETATM   16  N   UNL     1     -13.093  12.498  71.710  1.00  0.00    -0.397 NA 
HETATM   17  S   UNL     1     -12.510  14.814  70.812  1.00  0.00    -0.365 SA 
HETATM   18  N   UNL     1     -13.689  13.389  72.578  1.00  0.00    -0.698 NA 
HETATM   19  C   UNL     1     -13.985  15.829  72.945  1.00  0.00    -0.467 C  
HETATM   20  C   UNL     1     -13.470  14.639  72.225  1.00  0.00    -0.408 A  
ENDBRANCH  14  15
ENDBRANCH  13  14
ENDBRANCH   4  13
BRANCH   8  21
HETATM   21  N   UNL     1      -7.615   5.917  69.124  1.00  0.00    -0.088 N  
HETATM   22  C   UNL     1      -8.519   5.935  68.082  1.00  0.00    -0.114 C  
HETATM   23  H   UNL     1      -6.700   5.488  68.990  1.00  0.00     0.000 HD 
HETATM   24  O   UNL     1      -9.569   6.571  68.140  1.00  0.00    -0.125 OA 
BRANCH  22  25
HETATM   25  C   UNL     1      -8.121   5.130  66.869  1.00  0.00    -0.108 C  
BRANCH  25  26
HETATM   26  N   UNL     1      -7.473   5.952  65.882  1.00  0.00    -0.083 NA 
HETATM   27  C   UNL     1      -8.008   6.587  64.808  1.00  0.00    -0.120 A  
HETATM   28  N   UNL     1      -7.070   7.315  64.247  1.00  0.00    -0.059 NA 
HETATM   29  N   UNL     1      -5.938   7.117  65.001  1.00  0.00    -0.036 NA 
HETATM   30  N   UNL     1      -6.178   6.292  66.011  1.00  0.00    -0.036 NA 
ENDBRANCH  25  26
ENDBRANCH  22  25
ENDBRANCH   8  21
TORSDOF 6
ENDMDL
MODEL      199
REMARK 921   NORMALIZED FREE ENERGY PREDICTED BY IDOCK:   -2.92 KCAL/MOL
REMARK 922        TOTAL FREE ENERGY PREDICTED BY IDOCK:   -4.93 KCAL/MOL
REMARK 923 INTER-LIGAND FREE ENERGY PREDICTED BY IDOCK:   -3.77 KCAL/MOL
REMARK 924 INTRA-LIGAND FREE ENERGY PREDICTED BY IDOCK:   -1.17 KCAL/MOL
REMARK 927      BINDING AFFINITY PREDICTED BY RF-SCORE:    0.00 PKD
ROOT
HETATM    1  C   UNL     1      -7.823   7.800  66.224  1.00  0.00    -0.091 C  
HETATM    2  S   UNL     1      -6.453   8.182  67.329  1.00  0.00    -0.058 SA 
HETATM    3  C   UNL     1      -6.226   6.456  67.817  1.00  0.00    -0.025 C  
HETATM    4  C   UNL     1      -7.500   5.781  68.305  1.00  0.00    -0.081 C  
HETATM    5  O   UNL     1     -11.137   6.003  68.355  1.00  0.00    -0.314 OA 
HETATM    6  CA  UNL     1      -8.744   6.148  67.870  1.00  0.00    -0.113 C  
HETATM    7  N   UNL     1      -8.892   7.189  66.994  1.00  0.00    -0.121 N  
HETATM    8  CA  UNL     1      -8.815   8.963  65.905  1.00  0.00    -0.179 C  
HETATM    9  C   UNL     1      -9.960   5.357  68.304  1.00  0.00    -0.159 C  
HETATM   10  O   UNL     1     -11.015   8.133  66.977  1.00  0.00    -0.159 OA 
HETATM   11  C   UNL     1      -9.858   8.055  66.632  1.00  0.00    -0.252 C  
HETATM   12  OXT UNL     1      -9.904   4.159  68.557  1.00  0.00    -0.121 OA 
ENDROOT
BRANCH   4  13
HETATM   13  C   UNL     1      -7.295   4.651  69.323  1.00  0.00    -0.052 C  
BRANCH  13  14
HETATM   14  S   UNL     1      -6.063   4.917  70.633  1.00  0.00    -0.019 SA 
BRANCH  14  15
HETATM   15  C   UNL     1      -7.072   5.215  72.028  1.00  0.00    -0.083 A  
HETATM   16  N   UNL     1      -6.586   5.415  73.236  1.00  0.00    -0.069 NA 
HETATM   17  S   UNL     1      -8.782   5.185  71.955  1.00  0.00    -0.131 SA 
HETATM   18  N   UNL     1      -7.579   5.516  74.188  1.00  0.00    -0.093 NA 
HETATM   19  C   UNL     1     -10.053   5.463  74.418  1.00  0.00    -0.278 C  
HETATM   20  C   UNL     1      -8.780   5.408  73.658  1.00  0.00    -0.116 A  
ENDBRANCH  14  15
ENDBRANCH  13  14
ENDBRANCH   4  13
BRANCH   8  21
HETATM   21  N   UNL     1      -8.587  10.283  66.580  1.00  0.00    -0.130 N  
HETATM   22  C   UNL     1      -9.317  11.396  66.218  1.00  0.00    -0.212 C  
HETATM   23  H   UNL     1      -7.884  10.358  67.315  1.00  0.00     0.000 HD 
HETATM   24  O   UNL     1     -10.276  11.327  65.453  1.00  0.00    -0.247 OA 
BRANCH  22  25
HETATM   25  C   UNL     1      -8.859  12.696  66.834  1.00  0.00    -0.201 C  
BRANCH  25  26
HETATM   26  N   UNL     1      -7.798  12.483  67.781  1.00  0.00    -0.137 NA 
HETATM   27  C   UNL     1      -6.551  13.018  67.809  1.00  0.00    -0.146 A  
HETATM   28  N   UNL     1      -5.957  12.632  68.914  1.00  0.00    -0.070 NA 
HETATM   29  N   UNL     1      -6.869  11.843  69.575  1.00  0.00    -0.057 NA 
HETATM   30  N   UNL     1      -8.003  11.755  68.894  1.00  0.00    -0.052 NA 
ENDBRANCH  25  26
ENDBRANCH  22  25
ENDBRANCH   8  21
TORSDOF 6
ENDMDL
MODEL      200
REMARK 921   NORMALIZED FREE ENERGY PREDICTED BY IDOCK:   -2.58 KCAL/MOL
REMARK 922        TOTAL FREE ENERGY PREDICTED BY IDOCK:   -4.47 KCAL/MOL
REMARK 923 INTER-LIGAND FREE ENERGY PREDICTED BY IDOCK:   -3.24 KCAL/MOL
REMARK 924 INTRA-LIGAND FREE ENERGY PREDICTED BY IDOCK:   -1.23 KCAL/MOL
REMARK 927      BINDING AFFINITY PREDICTED BY RF-SCORE:    0.00 PKD
ROOT
HETATM    1  C   UNL     1      -7.180   7.423  65.224  1.00  0.00    -0.069 C  
HETATM    2  S   UNL     1      -5.893   7.152  66.455  1.00  0.00    -0.036 SA 
HETATM    3  C   UNL     1      -6.306   5.404  66.657  1.00  0.00    -0.036 C  
HETATM    4  C   UNL     1      -7.778   5.148  66.949  1.00  0.00    -0.092 C  
HETATM    5  O   UNL     1     -11.118   6.601  66.825  1.00  0.00    -0.354 OA 
HETATM    6  CA  UNL     1      -8.774   5.978  66.511  1.00  0.00    -0.128 C  
HETATM    7  N   UNL     1      -8.470   7.117  65.816  1.00  0.00    -0.146 N  
HETATM    8  CA  UNL     1      -7.689   8.890  65.049  1.00  0.00    -0.103 C  
HETATM    9  C   UNL     1     -10.223   5.602  66.734  1.00  0.00    -0.230 C  
HETATM   10  O   UNL     1     -10.144   8.728  65.836  1.00  0.00    -0.152 OA 
HETATM   11  C   UNL     1      -9.047   8.304  65.551  1.00  0.00    -0.006 C  
HETATM   12  OXT UNL     1     -10.596   4.436  66.784  1.00  0.00     0.035 OA 
ENDROOT
BRANCH   4  13
HETATM   13  C   UNL     1      -8.074   3.888  67.772  1.00  0.00    -0.089 C  
BRANCH  13  14
HETATM   14  S   UNL     1      -7.547   3.879  69.512  1.00  0.00    -0.052 SA 
BRANCH  14  15
HETATM   15  C   UNL     1      -8.752   4.896  70.263  1.00  0.00    -0.098 A  
HETATM   16  N   UNL     1     -10.014   4.911  69.888  1.00  0.00    -0.231 NA 
HETATM   17  S   UNL     1      -8.372   6.025  71.495  1.00  0.00    -0.128 SA 
HETATM   18  N   UNL     1     -10.746   5.873  70.553  1.00  0.00    -0.275 NA 
HETATM   19  C   UNL     1     -10.500   7.640  72.283  1.00  0.00    -0.289 C  
HETATM   20  C   UNL     1     -10.010   6.536  71.421  1.00  0.00    -0.183 A  
ENDBRANCH  14  15
ENDBRANCH  13  14
ENDBRANCH   4  13
BRANCH   8  21
HETATM   21  N   UNL     1      -7.113   9.942  65.949  1.00  0.00    -0.102 N  
HETATM   22  C   UNL     1      -5.973  10.631  65.590  1.00  0.00    -0.128 C  
HETATM   23  H   UNL     1      -7.571  10.151  66.836  1.00  0.00     0.000 HD 
HETATM   24  O   UNL     1      -5.474  10.529  64.472  1.00  0.00    -0.132 OA 
BRANCH  22  25
HETATM   25  C   UNL     1      -5.393  11.520  66.663  1.00  0.00    -0.127 C  
BRANCH  25  26
HETATM   26  N   UNL     1      -6.255  11.589  67.812  1.00  0.00    -0.049 NA 
HETATM   27  C   UNL     1      -6.092  11.039  69.042  1.00  0.00    -0.043 A  
HETATM   28  N   UNL     1      -7.071  11.452  69.814  1.00  0.00     0.015 NA 
HETATM   29  N   UNL     1      -7.846  12.276  69.032  1.00  0.00     0.103 NA 
HETATM   30  N   UNL     1      -7.348  12.373  67.807  1.00  0.00    -0.110 NA 
ENDBRANCH  25  26
ENDBRANCH  22  25
ENDBRANCH   8  21
TORSDOF 6
ENDMDL
MODEL      201
REMARK 921   NORMALIZED FREE ENERGY PREDICTED BY IDOCK:   -2.53 KCAL/MOL
REMARK 922        TOTAL FREE ENERGY PREDICTED BY IDOCK:   -4.41 KCAL/MOL
REMARK 923 INTER-LIGAND FREE ENERGY PREDICTED BY IDOCK:   -3.56 KCAL/MOL
REMARK 924 INTRA-LIGAND FREE ENERGY PREDICTED BY IDOCK:   -0.85 KCAL/MOL
REMARK 927      BINDING AFFINITY PREDICTED BY RF-SCORE:    0.00 PKD
ROOT
HETATM    1  C   UNL     1      -6.805  15.397  66.727  1.00  0.00     0.687 C  
HETATM    2  S   UNL     1      -5.967  16.108  68.153  1.00  0.00    -0.118 SA 
HETATM    3  C   UNL     1      -5.584  14.493  68.868  1.00  0.00    -0.086 C  
HETATM    4  C   UNL     1      -6.793  13.579  69.008  1.00  0.00    -0.107 C  
HETATM    5  O   UNL     1     -10.222  13.014  67.910  1.00  0.00    -0.222 OA 
HETATM    6  CA  UNL     1      -7.875  13.652  68.175  1.00  0.00    -0.143 C  
HETATM    7  N   UNL     1      -7.928  14.601  67.190  1.00  0.00    -0.192 N  
HETATM    8  CA  UNL     1      -7.844  16.306  65.995  1.00  0.00     0.336 C  
HETATM    9  C   UNL     1      -8.991  12.635  68.294  1.00  0.00    -0.176 C  
HETATM   10  O   UNL     1     -10.070  15.064  66.419  1.00  0.00    -0.256 OA 
HETATM   11  C   UNL     1      -8.871  15.224  66.458  1.00  0.00    -0.300 C  
HETATM   12  OXT UNL     1      -8.791  11.489  68.678  1.00  0.00    -0.163 OA 
ENDROOT
BRANCH   4  13
HETATM   13  C   UNL     1      -6.717  12.562  70.154  1.00  0.00     0.525 C  
BRANCH  13  14
HETATM   14  S   UNL     1      -5.259  11.477  70.217  1.00  0.00    -0.105 SA 
BRANCH  14  15
HETATM   15  C   UNL     1      -5.938   9.987  70.826  1.00  0.00    -0.095 A  
HETATM   16  N   UNL     1      -5.843   9.618  72.086  1.00  0.00    -0.284 NA 
HETATM   17  S   UNL     1      -6.711   8.841  69.815  1.00  0.00    -0.046 SA 
HETATM   18  N   UNL     1      -6.359   8.356  72.301  1.00  0.00    -0.065 NA 
HETATM   19  C   UNL     1      -7.455   6.481  71.093  1.00  0.00    -0.085 C  
HETATM   20  C   UNL     1      -6.843   7.829  71.196  1.00  0.00    -0.049 A  
ENDBRANCH  14  15
ENDBRANCH  13  14
ENDBRANCH   4  13
BRANCH   8  21
HETATM   21  N   UNL     1      -8.103  17.669  66.563  1.00  0.00    -0.254 N  
HETATM   22  C   UNL     1      -7.422  18.772  66.091  1.00  0.00    -0.258 C  
HETATM   23  H   UNL     1      -8.791  17.782  67.307  1.00  0.00     0.000 HD 
HETATM   24  O   UNL     1      -6.701  18.716  65.097  1.00  0.00    -0.507 OA 
BRANCH  22  25
HETATM   25  C   UNL     1      -7.634  20.045  66.873  1.00  0.00    -0.281 C  
BRANCH  25  26
HETATM   26  N   UNL     1      -8.892  20.030  67.570  1.00  0.00    -0.337 NA 
HETATM   27  C   UNL     1     -10.152  20.104  67.072  1.00  0.00    -0.459 A  
HETATM   28  N   UNL     1     -11.000  19.941  68.061  1.00  0.00     0.026 NA 
HETATM   29  N   UNL     1     -10.234  19.760  69.188  1.00  0.00    -0.337 NA 
HETATM   30  N   UNL     1      -8.941  19.803  68.896  1.00  0.00    -0.205 NA 
ENDBRANCH  25  26
ENDBRANCH  22  25
ENDBRANCH   8  21
TORSDOF 6
ENDMDL
MODEL      202
REMARK 921   NORMALIZED FREE ENERGY PREDICTED BY IDOCK:   -2.50 KCAL/MOL
REMARK 922        TOTAL FREE ENERGY PREDICTED BY IDOCK:   -4.36 KCAL/MOL
REMARK 923 INTER-LIGAND FREE ENERGY PREDICTED BY IDOCK:   -6.69 KCAL/MOL
REMARK 924 INTRA-LIGAND FREE ENERGY PREDICTED BY IDOCK:    2.32 KCAL/MOL
REMARK 927      BINDING AFFINITY PREDICTED BY RF-SCORE:    0.00 PKD
ROOT
HETATM    1  C   UNL     1     -12.772  13.751  65.410  1.00  0.00    -0.472 C  
HETATM    2  S   UNL     1     -12.212  12.251  66.232  1.00  0.00     0.435 SA 
HETATM    3  C   UNL     1     -12.252  13.007  67.874  1.00  0.00    -0.023 C  
HETATM    4  C   UNL     1     -11.487  14.319  67.966  1.00  0.00    -0.342 C  
HETATM    5  O   UNL     1     -10.017  17.034  66.029  1.00  0.00    -0.386 OA 
HETATM    6  CA  UNL     1     -11.323  15.157  66.897  1.00  0.00    -0.264 C  
HETATM    7  N   UNL     1     -11.816  14.814  65.667  1.00  0.00    -0.270 N  
HETATM    8  CA  UNL     1     -12.419  13.898  63.895  1.00  0.00    -0.167 C  
HETATM    9  C   UNL     1     -10.654  16.502  67.086  1.00  0.00    -0.270 C  
HETATM   10  O   UNL     1     -10.814  15.924  63.889  1.00  0.00     0.143 OA 
HETATM   11  C   UNL     1     -11.579  15.124  64.378  1.00  0.00    -0.271 C  
HETATM   12  OXT UNL     1     -10.721  17.122  68.141  1.00  0.00    -0.364 OA 
ENDROOT
BRANCH   4  13
HETATM   13  C   UNL     1     -10.907  14.645  69.349  1.00  0.00    -0.243 C  
BRANCH  13  14
HETATM   14  S   UNL     1     -12.064  14.700  70.751  1.00  0.00    -0.344 SA 
BRANCH  14  15
HETATM   15  C   UNL     1     -12.295  13.005  71.101  1.00  0.00    -0.175 A  
HETATM   16  N   UNL     1     -11.608  12.050  70.508  1.00  0.00     0.037 NA 
HETATM   17  S   UNL     1     -13.496  12.438  72.182  1.00  0.00    -0.174 SA 
HETATM   18  N   UNL     1     -12.045  10.792  70.868  1.00  0.00    -0.358 NA 
HETATM   19  C   UNL     1     -13.730   9.666  72.307  1.00  0.00    -0.384 C  
HETATM   20  C   UNL     1     -13.035  10.845  71.735  1.00  0.00    -0.451 A  
ENDBRANCH  14  15
ENDBRANCH  13  14
ENDBRANCH   4  13
BRANCH   8  21
HETATM   21  N   UNL     1     -11.599  12.815  63.260  1.00  0.00    -0.791 N  
HETATM   22  C   UNL     1     -10.321  12.546  63.703  1.00  0.00    -0.350 C  
HETATM   23  H   UNL     1     -11.991  12.272  62.491  1.00  0.00     0.000 HD 
HETATM   24  O   UNL     1      -9.861  13.061  64.720  1.00  0.00    -0.154 OA 
BRANCH  22  25
HETATM   25  C   UNL     1      -9.538  11.570  62.860  1.00  0.00    -0.283 C  
BRANCH  25  26
HETATM   26  N   UNL     1      -8.847  10.607  63.675  1.00  0.00    -0.186 NA 
HETATM   27  C   UNL     1      -9.352   9.718  64.568  1.00  0.00    -0.235 A  
HETATM   28  N   UNL     1      -8.370   8.960  64.999  1.00  0.00    -0.156 NA 
HETATM   29  N   UNL     1      -7.242   9.399  64.348  1.00  0.00    -0.101 NA 
HETATM   30  N   UNL     1      -7.526  10.400  63.527  1.00  0.00    -0.090 NA 
ENDBRANCH  25  26
ENDBRANCH  22  25
ENDBRANCH   8  21
TORSDOF 6
ENDMDL
MODEL      203
REMARK 921   NORMALIZED FREE ENERGY PREDICTED BY IDOCK:   -2.42 KCAL/MOL
REMARK 922        TOTAL FREE ENERGY PREDICTED BY IDOCK:   -4.26 KCAL/MOL
REMARK 923 INTER-LIGAND FREE ENERGY PREDICTED BY IDOCK:   -5.39 KCAL/MOL
REMARK 924 INTRA-LIGAND FREE ENERGY PREDICTED BY IDOCK:    1.13 KCAL/MOL
REMARK 927      BINDING AFFINITY PREDICTED BY RF-SCORE:    0.00 PKD
ROOT
HETATM    1  C   UNL     1      -8.316   8.020  70.539  1.00  0.00    -0.123 C  
HETATM    2  S   UNL     1      -8.132   9.063  69.083  1.00  0.00    -0.111 SA 
HETATM    3  C   UNL     1      -9.349  10.268  69.662  1.00  0.00    -0.139 C  
HETATM    4  C   UNL     1     -10.684   9.654  70.058  1.00  0.00    -0.298 C  
HETATM    5  O   UNL     1     -12.368   6.546  70.943  1.00  0.00    -0.290 OA 
HETATM    6  CA  UNL     1     -10.798   8.376  70.532  1.00  0.00    -0.232 C  
HETATM    7  N   UNL     1      -9.695   7.571  70.625  1.00  0.00    -0.175 N  
HETATM    8  CA  UNL     1      -7.913   6.518  70.384  1.00  0.00    -0.115 C  
HETATM    9  C   UNL     1     -12.138   7.868  71.020  1.00  0.00    -0.230 C  
HETATM   10  O   UNL     1     -10.170   5.298  70.698  1.00  0.00    -0.226 OA 
HETATM   11  C   UNL     1      -9.426   6.252  70.670  1.00  0.00    -0.168 C  
HETATM   12  OXT UNL     1     -12.977   8.611  71.516  1.00  0.00    -0.324 OA 
ENDROOT
BRANCH   4  13
HETATM   13  C   UNL     1     -11.903  10.571  69.893  1.00  0.00    -0.282 C  
BRANCH  13  14
HETATM   14  S   UNL     1     -11.590  12.323  69.516  1.00  0.00    -0.277 SA 
BRANCH  14  15
HETATM   15  C   UNL     1     -11.721  12.350  67.775  1.00  0.00    -0.350 A  
HETATM   16  N   UNL     1     -11.904  11.265  67.051  1.00  0.00    -0.393 NA 
HETATM   17  S   UNL     1     -11.536  13.783  66.855  1.00  0.00    -0.366 SA 
HETATM   18  N   UNL     1     -11.864  11.526  65.698  1.00  0.00    -0.107 NA 
HETATM   19  C   UNL     1     -11.569  13.404  64.097  1.00  0.00    -0.440 C  
HETATM   20  C   UNL     1     -11.672  12.805  65.450  1.00  0.00    -0.387 A  
ENDBRANCH  14  15
ENDBRANCH  13  14
ENDBRANCH   4  13
BRANCH   8  21
HETATM   21  N   UNL     1      -7.461   6.051  69.033  1.00  0.00    -0.084 N  
HETATM   22  C   UNL     1      -8.248   5.204  68.279  1.00  0.00    -0.093 C  
HETATM   23  H   UNL     1      -6.562   6.362  68.667  1.00  0.00     0.000 HD 
HETATM   24  O   UNL     1      -9.400   4.925  68.602  1.00  0.00    -0.120 OA 
BRANCH  22  25
HETATM   25  C   UNL     1      -7.597   4.659  67.032  1.00  0.00    -0.086 C  
BRANCH  25  26
HETATM   26  N   UNL     1      -7.863   5.495  65.892  1.00  0.00    -0.102 NA 
HETATM   27  C   UNL     1      -8.827   5.376  64.945  1.00  0.00    -0.050 A  
HETATM   28  N   UNL     1      -8.767   6.425  64.157  1.00  0.00     0.359 NA 
HETATM   29  N   UNL     1      -7.740   7.201  64.641  1.00  0.00    -0.107 NA 
HETATM   30  N   UNL     1      -7.187   6.644  65.710  1.00  0.00    -0.068 NA 
ENDBRANCH  25  26
ENDBRANCH  22  25
ENDBRANCH   8  21
TORSDOF 6
ENDMDL
MODEL      204
REMARK 921   NORMALIZED FREE ENERGY PREDICTED BY IDOCK:   -2.20 KCAL/MOL
REMARK 922        TOTAL FREE ENERGY PREDICTED BY IDOCK:   -3.95 KCAL/MOL
REMARK 923 INTER-LIGAND FREE ENERGY PREDICTED BY IDOCK:   -4.50 KCAL/MOL
REMARK 924 INTRA-LIGAND FREE ENERGY PREDICTED BY IDOCK:    0.55 KCAL/MOL
REMARK 927      BINDING AFFINITY PREDICTED BY RF-SCORE:    0.00 PKD
ROOT
HETATM    1  C   UNL     1      -8.713   8.046  72.794  1.00  0.00    -0.202 C  
HETATM    2  S   UNL     1      -7.647   6.864  71.950  1.00  0.00    -0.094 SA 
HETATM    3  C   UNL     1      -7.203   8.035  70.646  1.00  0.00    -0.052 C  
HETATM    4  C   UNL     1      -8.400   8.681  69.964  1.00  0.00    -0.124 C  
HETATM    5  O   UNL     1     -11.971   9.351  70.257  1.00  0.00    -0.115 OA 
HETATM    6  CA  UNL     1      -9.595   8.880  70.600  1.00  0.00    -0.215 C  
HETATM    7  N   UNL     1      -9.773   8.454  71.888  1.00  0.00    -0.233 N  
HETATM    8  CA  UNL     1      -9.827   7.455  73.716  1.00  0.00    -0.280 C  
HETATM    9  C   UNL     1     -10.706   9.636  69.903  1.00  0.00    -0.252 C  
HETATM   10  O   UNL     1     -11.995   8.178  72.509  1.00  0.00    -0.376 OA 
HETATM   11  C   UNL     1     -10.800   8.128  72.696  1.00  0.00    -0.359 C  
HETATM   12  OXT UNL     1     -10.481  10.514  69.078  1.00  0.00    -0.191 OA 
ENDROOT
BRANCH   4  13
HETATM   13  C   UNL     1      -8.178   9.101  68.505  1.00  0.00    -0.115 C  
BRANCH  13  14
HETATM   14  S   UNL     1      -7.222   7.973  67.445  1.00  0.00    -0.089 SA 
BRANCH  14  15
HETATM   15  C   UNL     1      -8.262   6.572  67.373  1.00  0.00    -0.121 A  
HETATM   16  N   UNL     1      -9.564   6.652  67.186  1.00  0.00    -0.133 NA 
HETATM   17  S   UNL     1      -7.687   4.979  67.627  1.00  0.00    -0.087 SA 
HETATM   18  N   UNL     1     -10.182   5.423  67.278  1.00  0.00    -0.199 NA 
HETATM   19  C   UNL     1      -9.670   3.024  67.676  1.00  0.00     0.088 C  
HETATM   20  C   UNL     1      -9.319   4.456  67.513  1.00  0.00    -0.154 A  
ENDBRANCH  14  15
ENDBRANCH  13  14
ENDBRANCH   4  13
BRANCH   8  21
HETATM   21  N   UNL     1      -9.960   5.963  73.785  1.00  0.00    -0.185 N  
HETATM   22  C   UNL     1     -10.674   5.273  72.827  1.00  0.00    -0.243 C  
HETATM   23  H   UNL     1      -9.517   5.452  74.549  1.00  0.00     0.000 HD 
HETATM   24  O   UNL     1     -11.093   5.817  71.808  1.00  0.00    -0.265 OA 
BRANCH  22  25
HETATM   25  C   UNL     1     -10.892   3.808  73.116  1.00  0.00    -0.161 C  
BRANCH  25  26
HETATM   26  N   UNL     1      -9.653   3.078  73.096  1.00  0.00    -0.094 NA 
HETATM   27  C   UNL     1      -9.297   1.969  73.792  1.00  0.00    -0.071 A  
HETATM   28  N   UNL     1      -8.113   1.580  73.378  1.00  0.00    -0.041 NA 
HETATM   29  N   UNL     1      -7.743   2.476  72.403  1.00  0.00    -0.052 NA 
HETATM   30  N   UNL     1      -8.684   3.391  72.216  1.00  0.00    -0.086 NA 
ENDBRANCH  25  26
ENDBRANCH  22  25
ENDBRANCH   8  21
TORSDOF 6
ENDMDL
MODEL      205
REMARK 921   NORMALIZED FREE ENERGY PREDICTED BY IDOCK:   -2.14 KCAL/MOL
REMARK 922        TOTAL FREE ENERGY PREDICTED BY IDOCK:   -3.87 KCAL/MOL
REMARK 923 INTER-LIGAND FREE ENERGY PREDICTED BY IDOCK:   -3.96 KCAL/MOL
REMARK 924 INTRA-LIGAND FREE ENERGY PREDICTED BY IDOCK:    0.09 KCAL/MOL
REMARK 927      BINDING AFFINITY PREDICTED BY RF-SCORE:    0.00 PKD
ROOT
HETATM    1  C   UNL     1      -7.012  10.919  68.099  1.00  0.00    -0.069 C  
HETATM    2  S   UNL     1      -7.654  10.581  69.747  1.00  0.00    -0.018 SA 
HETATM    3  C   UNL     1      -7.579   8.789  69.525  1.00  0.00    -0.080 C  
HETATM    4  C   UNL     1      -8.274   8.294  68.265  1.00  0.00    -0.128 C  
HETATM    5  O   UNL     1      -9.592   9.303  65.020  1.00  0.00    -0.169 OA 
HETATM    6  CA  UNL     1      -8.390   9.059  67.136  1.00  0.00    -0.110 C  
HETATM    7  N   UNL     1      -7.911  10.341  67.116  1.00  0.00    -0.113 N  
HETATM    8  CA  UNL     1      -7.352  12.314  67.483  1.00  0.00    -0.137 C  
HETATM    9  C   UNL     1      -8.987   8.464  65.878  1.00  0.00    -0.178 C  
HETATM   10  O   UNL     1      -8.847  11.688  65.471  1.00  0.00    -0.055 OA 
HETATM   11  C   UNL     1      -8.127  11.473  66.420  1.00  0.00    -0.069 C  
HETATM   12  OXT UNL     1      -8.891   7.272  65.610  1.00  0.00    -0.119 OA 
ENDROOT
BRANCH   4  13
HETATM   13  C   UNL     1      -8.840   6.871  68.343  1.00  0.00    -0.123 C  
BRANCH  13  14
HETATM   14  S   UNL     1     -10.649   6.690  68.411  1.00  0.00    -0.261 SA 
BRANCH  14  15
HETATM   15  C   UNL     1     -10.950   6.687  70.131  1.00  0.00    -0.305 A  
HETATM   16  N   UNL     1     -12.056   7.161  70.668  1.00  0.00    -0.280 NA 
HETATM   17  S   UNL     1      -9.793   6.145  71.272  1.00  0.00    -0.178 SA 
HETATM   18  N   UNL     1     -12.014   7.150  72.046  1.00  0.00    -0.296 NA 
HETATM   19  C   UNL     1     -10.528   6.512  73.933  1.00  0.00    -0.329 C  
HETATM   20  C   UNL     1     -10.884   6.650  72.500  1.00  0.00    -0.238 A  
ENDBRANCH  14  15
ENDBRANCH  13  14
ENDBRANCH   4  13
BRANCH   8  21
HETATM   21  N   UNL     1      -8.225  13.236  68.280  1.00  0.00    -0.154 N  
HETATM   22  C   UNL     1      -9.032  14.162  67.652  1.00  0.00    -0.192 C  
HETATM   23  H   UNL     1      -8.223  13.179  69.298  1.00  0.00     0.000 HD 
HETATM   24  O   UNL     1      -9.190  14.169  66.433  1.00  0.00    -0.258 OA 
BRANCH  22  25
HETATM   25  C   UNL     1      -9.712  15.152  68.566  1.00  0.00    -0.214 C  
BRANCH  25  26
HETATM   26  N   UNL     1      -8.895  16.317  68.779  1.00  0.00    -0.232 NA 
HETATM   27  C   UNL     1      -9.184  17.458  69.455  1.00  0.00     0.308 A  
HETATM   28  N   UNL     1      -8.105  18.205  69.489  1.00  0.00     0.435 NA 
HETATM   29  N   UNL     1      -7.135  17.497  68.819  1.00  0.00    -0.239 NA 
HETATM   30  N   UNL     1      -7.607  16.334  68.389  1.00  0.00    -0.159 NA 
ENDBRANCH  25  26
ENDBRANCH  22  25
ENDBRANCH   8  21
TORSDOF 6
ENDMDL
MODEL      206
REMARK 921   NORMALIZED FREE ENERGY PREDICTED BY IDOCK:   -2.13 KCAL/MOL
REMARK 922        TOTAL FREE ENERGY PREDICTED BY IDOCK:   -3.86 KCAL/MOL
REMARK 923 INTER-LIGAND FREE ENERGY PREDICTED BY IDOCK:   -4.93 KCAL/MOL
REMARK 924 INTRA-LIGAND FREE ENERGY PREDICTED BY IDOCK:    1.07 KCAL/MOL
REMARK 927      BINDING AFFINITY PREDICTED BY RF-SCORE:    0.00 PKD
ROOT
HETATM    1  C   UNL     1      -9.185   7.021  72.749  1.00  0.00    -0.135 C  
HETATM    2  S   UNL     1      -8.083   7.202  71.336  1.00  0.00    -0.107 SA 
HETATM    3  C   UNL     1      -8.528   8.934  71.075  1.00  0.00    -0.198 C  
HETATM    4  C   UNL     1     -10.027   9.177  70.973  1.00  0.00    -0.367 C  
HETATM    5  O   UNL     1     -13.311   7.752  71.658  1.00  0.00    -0.338 OA 
HETATM    6  CA  UNL     1     -10.949   8.383  71.600  1.00  0.00    -0.278 C  
HETATM    7  N   UNL     1     -10.546   7.292  72.322  1.00  0.00    -0.216 N  
HETATM    8  CA  UNL     1      -9.657   5.572  73.092  1.00  0.00    -0.149 C  
HETATM    9  C   UNL     1     -12.417   8.750  71.556  1.00  0.00    -0.326 C  
HETATM   10  O   UNL     1     -12.199   5.692  72.644  1.00  0.00    -0.163 OA 
HETATM   11  C   UNL     1     -11.075   6.129  72.745  1.00  0.00    -0.259 C  
HETATM   12  OXT UNL     1     -12.798   9.913  71.479  1.00  0.00    -0.355 OA 
ENDROOT
BRANCH   4  13
HETATM   13  C   UNL     1     -10.441  10.380  70.116  1.00  0.00    -0.128 C  
BRANCH  13  14
HETATM   14  S   UNL     1     -11.240  10.036  68.519  1.00  0.00    -0.052 SA 
BRANCH  14  15
HETATM   15  C   UNL     1     -10.162   8.854  67.819  1.00  0.00    -0.228 A  
HETATM   16  N   UNL     1     -10.074   7.615  68.255  1.00  0.00    -0.180 NA 
HETATM   17  S   UNL     1      -9.065   9.233  66.560  1.00  0.00    -0.164 SA 
HETATM   18  N   UNL     1      -9.078   6.905  67.618  1.00  0.00    -0.119 NA 
HETATM   19  C   UNL     1      -7.338   7.162  65.862  1.00  0.00    -0.075 C  
HETATM   20  C   UNL     1      -8.462   7.632  66.709  1.00  0.00    -0.127 A  
ENDBRANCH  14  15
ENDBRANCH  13  14
ENDBRANCH   4  13
BRANCH   8  21
HETATM   21  N   UNL     1      -9.208   4.458  72.194  1.00  0.00    -0.124 N  
HETATM   22  C   UNL     1      -9.811   4.252  70.970  1.00  0.00    -0.181 C  
HETATM   23  H   UNL     1      -8.448   3.847  72.492  1.00  0.00     0.000 HD 
HETATM   24  O   UNL     1     -10.619   5.048  70.499  1.00  0.00    -0.209 OA 
BRANCH  22  25
HETATM   25  C   UNL     1      -9.399   2.989  70.253  1.00  0.00    -0.158 C  
BRANCH  25  26
HETATM   26  N   UNL     1      -8.333   3.239  69.320  1.00  0.00    -0.059 NA 
HETATM   27  C   UNL     1      -6.995   3.078  69.481  1.00  0.00    -0.041 A  
HETATM   28  N   UNL     1      -6.406   3.321  68.333  1.00  0.00    -0.032 NA 
HETATM   29  N   UNL     1      -7.415   3.634  67.452  1.00  0.00    -0.066 NA 
HETATM   30  N   UNL     1      -8.599   3.576  68.045  1.00  0.00    -0.094 NA 
ENDBRANCH  25  26
ENDBRANCH  22  25
ENDBRANCH   8  21
TORSDOF 6
ENDMDL
MODEL      207
REMARK 921   NORMALIZED FREE ENERGY PREDICTED BY IDOCK:   -1.99 KCAL/MOL
REMARK 922        TOTAL FREE ENERGY PREDICTED BY IDOCK:   -3.67 KCAL/MOL
REMARK 923 INTER-LIGAND FREE ENERGY PREDICTED BY IDOCK:   -4.84 KCAL/MOL
REMARK 924 INTRA-LIGAND FREE ENERGY PREDICTED BY IDOCK:    1.18 KCAL/MOL
REMARK 927      BINDING AFFINITY PREDICTED BY RF-SCORE:    0.00 PKD
ROOT
HETATM    1  C   UNL     1     -11.342  15.152  66.145  1.00  0.00    -0.220 C  
HETATM    2  S   UNL     1     -12.475  13.806  66.530  1.00  0.00    -0.201 SA 
HETATM    3  C   UNL     1     -12.766  14.392  68.215  1.00  0.00     0.882 C  
HETATM    4  C   UNL     1     -11.492  14.636  69.012  1.00  0.00    -0.317 C  
HETATM    5  O   UNL     1      -7.890  15.130  68.760  1.00  0.00    -0.128 OA 
HETATM    6  CA  UNL     1     -10.309  14.991  68.424  1.00  0.00    -0.231 C  
HETATM    7  N   UNL     1     -10.218  15.098  67.062  1.00  0.00    -0.258 N  
HETATM    8  CA  UNL     1     -10.319  14.901  64.990  1.00  0.00    -0.370 C  
HETATM    9  C   UNL     1      -9.111  15.335  69.283  1.00  0.00    -0.240 C  
HETATM   10  O   UNL     1      -8.053  14.944  66.232  1.00  0.00     0.341 OA 
HETATM   11  C   UNL     1      -9.254  15.051  66.123  1.00  0.00    -0.259 C  
HETATM   12  OXT UNL     1      -9.228  15.828  70.399  1.00  0.00     0.521 OA 
ENDROOT
BRANCH   4  13
HETATM   13  C   UNL     1     -11.624  14.459  70.530  1.00  0.00    -0.209 C  
BRANCH  13  14
HETATM   14  S   UNL     1     -13.182  13.767  71.162  1.00  0.00    -0.147 SA 
BRANCH  14  15
HETATM   15  C   UNL     1     -12.837  12.055  71.189  1.00  0.00    -0.235 A  
HETATM   16  N   UNL     1     -13.330  11.238  72.096  1.00  0.00    -0.353 NA 
HETATM   17  S   UNL     1     -11.757  11.312  70.088  1.00  0.00    -0.330 SA 
HETATM   18  N   UNL     1     -12.827   9.959  71.976  1.00  0.00    -0.407 NA 
HETATM   19  C   UNL     1     -11.267   8.616  70.584  1.00  0.00    -0.284 C  
HETATM   20  C   UNL     1     -11.985   9.855  70.968  1.00  0.00    -0.365 A  
ENDBRANCH  14  15
ENDBRANCH  13  14
ENDBRANCH   4  13
BRANCH   8  21
HETATM   21  N   UNL     1     -10.320  13.553  64.335  1.00  0.00    -0.635 N  
HETATM   22  C   UNL     1      -9.825  12.447  64.994  1.00  0.00    -0.114 C  
HETATM   23  H   UNL     1     -10.691  13.452  63.390  1.00  0.00     0.000 HD 
HETATM   24  O   UNL     1      -9.511  12.483  66.182  1.00  0.00    -0.237 OA 
BRANCH  22  25
HETATM   25  C   UNL     1      -9.707  11.196  64.158  1.00  0.00    -0.276 C  
BRANCH  25  26
HETATM   26  N   UNL     1      -9.258  10.079  64.945  1.00  0.00    -0.219 NA 
HETATM   27  C   UNL     1      -9.956   9.306  65.816  1.00  0.00    -0.145 A  
HETATM   28  N   UNL     1      -9.176   8.332  66.224  1.00  0.00    -0.193 NA 
HETATM   29  N   UNL     1      -7.974   8.518  65.581  1.00  0.00    -0.101 NA 
HETATM   30  N   UNL     1      -8.019   9.580  64.788  1.00  0.00    -0.116 NA 
ENDBRANCH  25  26
ENDBRANCH  22  25
ENDBRANCH   8  21
TORSDOF 6
ENDMDL
MODEL      208
REMARK 921   NORMALIZED FREE ENERGY PREDICTED BY IDOCK:   -1.84 KCAL/MOL
REMARK 922        TOTAL FREE ENERGY PREDICTED BY IDOCK:   -3.48 KCAL/MOL
REMARK 923 INTER-LIGAND FREE ENERGY PREDICTED BY IDOCK:   -4.56 KCAL/MOL
REMARK 924 INTRA-LIGAND FREE ENERGY PREDICTED BY IDOCK:    1.09 KCAL/MOL
REMARK 927      BINDING AFFINITY PREDICTED BY RF-SCORE:    0.00 PKD
ROOT
HETATM    1  C   UNL     1     -10.144  14.636  65.885  1.00  0.00    -0.320 C  
HETATM    2  S   UNL     1      -8.828  13.585  66.523  1.00  0.00     0.132 SA 
HETATM    3  C   UNL     1      -8.608  12.723  64.950  1.00  0.00     2.489 C  
HETATM    4  C   UNL     1      -9.897  12.154  64.373  1.00  0.00    -0.154 C  
HETATM    5  O   UNL     1     -13.535  12.307  64.534  1.00  0.00    -0.686 OA 
HETATM    6  CA  UNL     1     -11.123  12.710  64.614  1.00  0.00    -0.313 C  
HETATM    7  N   UNL     1     -11.241  13.797  65.436  1.00  0.00    -0.298 N  
HETATM    8  CA  UNL     1     -11.131  15.243  66.933  1.00  0.00    -0.288 C  
HETATM    9  C   UNL     1     -12.351  12.166  63.914  1.00  0.00    -0.487 C  
HETATM   10  O   UNL     1     -13.369  14.109  66.315  1.00  0.00     0.263 OA 
HETATM   11  C   UNL     1     -12.197  14.380  66.185  1.00  0.00    -0.340 C  
HETATM   12  OXT UNL     1     -12.295  11.655  62.801  1.00  0.00     0.076 OA 
ENDROOT
BRANCH   4  13
HETATM   13  C   UNL     1      -9.729  10.906  63.496  1.00  0.00    -0.342 C  
BRANCH  13  14
HETATM   14  S   UNL     1      -8.899   9.467  64.236  1.00  0.00    -0.143 SA 
BRANCH  14  15
HETATM   15  C   UNL     1      -9.345   9.614  65.918  1.00  0.00    -0.218 A  
HETATM   16  N   UNL     1     -10.578   9.855  66.316  1.00  0.00    -0.087 NA 
HETATM   17  S   UNL     1      -8.199   9.543  67.189  1.00  0.00    -0.113 SA 
HETATM   18  N   UNL     1     -10.660  10.038  67.681  1.00  0.00    -0.251 NA 
HETATM   19  C   UNL     1      -9.240  10.058  69.720  1.00  0.00    -0.227 C  
HETATM   20  C   UNL     1      -9.487   9.909  68.265  1.00  0.00    -0.139 A  
ENDBRANCH  14  15
ENDBRANCH  13  14
ENDBRANCH   4  13
BRANCH   8  21
HETATM   21  N   UNL     1     -10.945  14.863  68.371  1.00  0.00    -0.252 N  
HETATM   22  C   UNL     1     -11.579  13.756  68.897  1.00  0.00    -0.319 C  
HETATM   23  H   UNL     1     -10.342  15.429  68.969  1.00  0.00     0.000 HD 
HETATM   24  O   UNL     1     -12.188  12.956  68.189  1.00  0.00    -0.211 OA 
BRANCH  22  25
HETATM   25  C   UNL     1     -11.463  13.595  70.393  1.00  0.00     0.092 C  
BRANCH  25  26
HETATM   26  N   UNL     1     -12.689  13.952  71.056  1.00  0.00    -0.350 NA 
HETATM   27  C   UNL     1     -13.310  13.343  72.098  1.00  0.00    -0.520 A  
HETATM   28  N   UNL     1     -14.343  14.074  72.449  1.00  0.00    -0.636 NA 
HETATM   29  N   UNL     1     -14.346  15.155  71.600  1.00  0.00    -0.544 NA 
HETATM   30  N   UNL     1     -13.330  15.094  70.749  1.00  0.00    -0.378 NA 
ENDBRANCH  25  26
ENDBRANCH  22  25
ENDBRANCH   8  21
TORSDOF 6
ENDMDL
MODEL      209
REMARK 921   NORMALIZED FREE ENERGY PREDICTED BY IDOCK:   -1.65 KCAL/MOL
REMARK 922        TOTAL FREE ENERGY PREDICTED BY IDOCK:   -3.21 KCAL/MOL
REMARK 923 INTER-LIGAND FREE ENERGY PREDICTED BY IDOCK:   -5.79 KCAL/MOL
REMARK 924 INTRA-LIGAND FREE ENERGY PREDICTED BY IDOCK:    2.57 KCAL/MOL
REMARK 927      BINDING AFFINITY PREDICTED BY RF-SCORE:    0.00 PKD
ROOT
HETATM    1  C   UNL     1     -12.547  12.952  65.237  1.00  0.00    -0.439 C  
HETATM    2  S   UNL     1     -11.942  11.377  65.868  1.00  0.00     1.326 SA 
HETATM    3  C   UNL     1     -12.161  11.864  67.595  1.00  0.00     0.159 C  
HETATM    4  C   UNL     1     -11.502  13.189  67.950  1.00  0.00    -0.346 C  
HETATM    5  O   UNL     1     -10.091  16.257  66.578  1.00  0.00    -0.266 OA 
HETATM    6  CA  UNL     1     -11.320  14.192  67.037  1.00  0.00    -0.332 C  
HETATM    7  N   UNL     1     -11.693  14.017  65.733  1.00  0.00    -0.350 N  
HETATM    8  CA  UNL     1     -12.092  13.355  63.797  1.00  0.00    -0.456 C  
HETATM    9  C   UNL     1     -10.766  15.529  67.484  1.00  0.00    -0.300 C  
HETATM   10  O   UNL     1     -10.643  15.449  64.234  1.00  0.00     0.032 OA 
HETATM   11  C   UNL     1     -11.382  14.538  64.530  1.00  0.00    -0.316 C  
HETATM   12  OXT UNL     1     -10.957  15.971  68.611  1.00  0.00    -0.285 OA 
ENDROOT
BRANCH   4  13
HETATM   13  C   UNL     1     -11.053  13.329  69.411  1.00  0.00    -0.090 C  
BRANCH  13  14
HETATM   14  S   UNL     1     -12.277  12.957  70.703  1.00  0.00    -0.185 SA 
BRANCH  14  15
HETATM   15  C   UNL     1     -12.252  14.418  71.660  1.00  0.00    -0.310 A  
HETATM   16  N   UNL     1     -11.668  15.528  71.260  1.00  0.00    -0.359 NA 
HETATM   17  S   UNL     1     -12.911  14.501  73.239  1.00  0.00    -0.235 SA 
HETATM   18  N   UNL     1     -11.684  16.507  72.232  1.00  0.00    -0.425 NA 
HETATM   19  C   UNL     1     -12.474  16.917  74.553  1.00  0.00    -0.038 C  
HETATM   20  C   UNL     1     -12.299  16.103  73.325  1.00  0.00    -0.544 A  
ENDBRANCH  14  15
ENDBRANCH  13  14
ENDBRANCH   4  13
BRANCH   8  21
HETATM   21  N   UNL     1     -11.150  12.436  63.078  1.00  0.00    -0.655 N  
HETATM   22  C   UNL     1      -9.932  12.099  63.632  1.00  0.00    -0.323 C  
HETATM   23  H   UNL     1     -11.413  12.055  62.169  1.00  0.00     0.000 HD 
HETATM   24  O   UNL     1      -9.634  12.403  64.785  1.00  0.00    -0.035 OA 
BRANCH  22  25
HETATM   25  C   UNL     1      -9.003  11.327  62.727  1.00  0.00    -0.249 C  
BRANCH  25  26
HETATM   26  N   UNL     1      -8.564  10.105  63.345  1.00  0.00    -0.182 NA 
HETATM   27  C   UNL     1      -8.192   9.878  64.631  1.00  0.00    -0.153 A  
HETATM   28  N   UNL     1      -7.974   8.591  64.778  1.00  0.00    -0.135 NA 
HETATM   29  N   UNL     1      -8.222   8.024  63.550  1.00  0.00    -0.093 NA 
HETATM   30  N   UNL     1      -8.594   8.942  62.669  1.00  0.00    -0.207 NA 
ENDBRANCH  25  26
ENDBRANCH  22  25
ENDBRANCH   8  21
TORSDOF 6
ENDMDL
MODEL      210
REMARK 921   NORMALIZED FREE ENERGY PREDICTED BY IDOCK:   -0.94 KCAL/MOL
REMARK 922        TOTAL FREE ENERGY PREDICTED BY IDOCK:   -2.26 KCAL/MOL
REMARK 923 INTER-LIGAND FREE ENERGY PREDICTED BY IDOCK:   -3.84 KCAL/MOL
REMARK 924 INTRA-LIGAND FREE ENERGY PREDICTED BY IDOCK:    1.58 KCAL/MOL
REMARK 927      BINDING AFFINITY PREDICTED BY RF-SCORE:    0.00 PKD
ROOT
HETATM    1  C   UNL     1      -8.972  16.954  69.093  1.00  0.00    -0.080 C  
HETATM    2  S   UNL     1      -9.109  15.199  69.471  1.00  0.00    -0.051 SA 
HETATM    3  C   UNL     1      -7.320  14.943  69.443  1.00  0.00    -0.181 C  
HETATM    4  C   UNL     1      -6.644  15.452  68.177  1.00  0.00    -0.141 C  
HETATM    5  O   UNL     1      -7.044  17.617  65.272  1.00  0.00    -0.127 OA 
HETATM    6  CA  UNL     1      -7.137  16.498  67.445  1.00  0.00    -0.154 C  
HETATM    7  N   UNL     1      -8.306  17.108  67.811  1.00  0.00    -0.199 N  
HETATM    8  CA  UNL     1     -10.220  17.634  68.445  1.00  0.00    -0.381 C  
HETATM    9  C   UNL     1      -6.353  17.030  66.265  1.00  0.00    -0.001 C  
HETATM   10  O   UNL     1      -9.351  18.283  66.100  1.00  0.00    -0.469 OA 
HETATM   11  C   UNL     1      -9.266  17.850  67.227  1.00  0.00    -0.254 C  
HETATM   12  OXT UNL     1      -5.130  16.982  66.218  1.00  0.00    -0.348 OA 
ENDROOT
BRANCH   4  13
HETATM   13  C   UNL     1      -5.364  14.710  67.773  1.00  0.00    -0.003 C  
BRANCH  13  14
HETATM   14  S   UNL     1      -5.145  13.015  68.394  1.00  0.00    -0.078 SA 
BRANCH  14  15
HETATM   15  C   UNL     1      -6.120  12.090  67.279  1.00  0.00    -0.147 A  
HETATM   16  N   UNL     1      -7.427  12.223  67.186  1.00  0.00    -0.141 NA 
HETATM   17  S   UNL     1      -5.466  10.868  66.273  1.00  0.00    -0.134 SA 
HETATM   18  N   UNL     1      -7.985  11.308  66.317  1.00  0.00    -0.129 NA 
HETATM   19  C   UNL     1      -7.353   9.440  64.804  1.00  0.00    -0.107 C  
HETATM   20  C   UNL     1      -7.073  10.530  65.771  1.00  0.00    -0.124 A  
ENDBRANCH  14  15
ENDBRANCH  13  14
ENDBRANCH   4  13
BRANCH   8  21
HETATM   21  N   UNL     1     -11.407  16.771  68.139  1.00  0.00    -0.156 N  
HETATM   22  C   UNL     1     -11.834  15.813  69.036  1.00  0.00    -0.355 C  
HETATM   23  H   UNL     1     -11.905  16.893  67.257  1.00  0.00     0.000 HD 
HETATM   24  O   UNL     1     -11.370  15.730  70.171  1.00  0.00    -0.294 OA 
BRANCH  22  25
HETATM   25  C   UNL     1     -12.913  14.888  68.528  1.00  0.00     1.657 C  
BRANCH  25  26
HETATM   26  N   UNL     1     -12.374  13.888  67.645  1.00  0.00    -0.170 NA 
HETATM   27  C   UNL     1     -12.594  13.705  66.318  1.00  0.00    -0.291 A  
HETATM   28  N   UNL     1     -11.809  12.740  65.897  1.00  0.00    -0.416 NA 
HETATM   29  N   UNL     1     -11.092  12.330  66.996  1.00  0.00    -0.271 NA 
HETATM   30  N   UNL     1     -11.424  13.035  68.069  1.00  0.00    -0.288 NA 
ENDBRANCH  25  26
ENDBRANCH  22  25
ENDBRANCH   8  21
TORSDOF 6
ENDMDL
MODEL      211
REMARK 921   NORMALIZED FREE ENERGY PREDICTED BY IDOCK:   -0.90 KCAL/MOL
REMARK 922        TOTAL FREE ENERGY PREDICTED BY IDOCK:   -2.20 KCAL/MOL
REMARK 923 INTER-LIGAND FREE ENERGY PREDICTED BY IDOCK:   -3.66 KCAL/MOL
REMARK 924 INTRA-LIGAND FREE ENERGY PREDICTED BY IDOCK:    1.46 KCAL/MOL
REMARK 927      BINDING AFFINITY PREDICTED BY RF-SCORE:    0.00 PKD
ROOT
HETATM    1  C   UNL     1     -12.526  12.917  65.118  1.00  0.00    -0.501 C  
HETATM    2  S   UNL     1     -11.883  11.333  65.683  1.00  0.00     1.188 SA 
HETATM    3  C   UNL     1     -12.151  11.725  67.427  1.00  0.00     0.270 C  
HETATM    4  C   UNL     1     -11.543  13.052  67.862  1.00  0.00    -0.385 C  
HETATM    5  O   UNL     1     -10.207  16.227  66.673  1.00  0.00    -0.268 OA 
HETATM    6  CA  UNL     1     -11.376  14.104  67.003  1.00  0.00    -0.332 C  
HETATM    7  N   UNL     1     -11.717  13.982  65.684  1.00  0.00    -0.342 N  
HETATM    8  CA  UNL     1     -12.057  13.406  63.710  1.00  0.00    -0.456 C  
HETATM    9  C   UNL     1     -10.876  15.434  67.527  1.00  0.00    -0.305 C  
HETATM   10  O   UNL     1     -10.686  15.520  64.281  1.00  0.00    -0.106 OA 
HETATM   11  C   UNL     1     -11.400  14.573  64.516  1.00  0.00    -0.316 C  
HETATM   12  OXT UNL     1     -11.103  15.813  68.670  1.00  0.00    -0.287 OA 
ENDROOT
BRANCH   4  13
HETATM   13  C   UNL     1     -11.128  13.132  69.336  1.00  0.00    -0.079 C  
BRANCH  13  14
HETATM   14  S   UNL     1     -11.913  11.968  70.493  1.00  0.00    -0.111 SA 
BRANCH  14  15
HETATM   15  C   UNL     1     -10.751  10.666  70.544  1.00  0.00     0.272 A  
HETATM   16  N   UNL     1      -9.621  10.685  69.868  1.00  0.00     0.177 NA 
HETATM   17  S   UNL     1     -11.025   9.215  71.412  1.00  0.00    -0.367 SA 
HETATM   18  N   UNL     1      -8.924   9.500  69.982  1.00  0.00    -0.207 NA 
HETATM   19  C   UNL     1      -9.061   7.270  71.069  1.00  0.00    -0.153 C  
HETATM   20  C   UNL     1      -9.546   8.637  70.757  1.00  0.00    -0.188 A  
ENDBRANCH  14  15
ENDBRANCH  13  14
ENDBRANCH   4  13
BRANCH   8  21
HETATM   21  N   UNL     1     -11.071  12.554  62.967  1.00  0.00    -0.642 N  
HETATM   22  C   UNL     1      -9.828  12.285  63.500  1.00  0.00    -0.106 C  
HETATM   23  H   UNL     1     -11.324  12.170  62.057  1.00  0.00     0.000 HD 
HETATM   24  O   UNL     1      -9.532  12.592  64.653  1.00  0.00     0.128 OA 
BRANCH  22  25
HETATM   25  C   UNL     1      -8.867  11.582  62.573  1.00  0.00     0.111 C  
BRANCH  25  26
HETATM   26  N   UNL     1      -8.203  10.490  63.234  1.00  0.00    -0.144 NA 
HETATM   27  C   UNL     1      -8.737   9.390  63.822  1.00  0.00    -0.201 A  
HETATM   28  N   UNL     1      -7.755   8.604  64.200  1.00  0.00    -0.122 NA 
HETATM   29  N   UNL     1      -6.596   9.244  63.829  1.00  0.00    -0.090 NA 
HETATM   30  N   UNL     1      -6.861  10.395  63.228  1.00  0.00    -0.096 NA 
ENDBRANCH  25  26
ENDBRANCH  22  25
ENDBRANCH   8  21
TORSDOF 6
ENDMDL
MODEL      212
REMARK 921   NORMALIZED FREE ENERGY PREDICTED BY IDOCK:   -0.79 KCAL/MOL
REMARK 922        TOTAL FREE ENERGY PREDICTED BY IDOCK:   -2.05 KCAL/MOL
REMARK 923 INTER-LIGAND FREE ENERGY PREDICTED BY IDOCK:   -3.29 KCAL/MOL
REMARK 924 INTRA-LIGAND FREE ENERGY PREDICTED BY IDOCK:    1.24 KCAL/MOL
REMARK 927      BINDING AFFINITY PREDICTED BY RF-SCORE:    0.00 PKD
ROOT
HETATM    1  C   UNL     1     -10.038  17.831  67.570  1.00  0.00    -0.340 C  
HETATM    2  S   UNL     1     -11.756  17.475  67.974  1.00  0.00     1.674 SA 
HETATM    3  C   UNL     1     -11.380  17.080  69.697  1.00  0.00     0.643 C  
HETATM    4  C   UNL     1     -10.274  16.048  69.866  1.00  0.00    -0.188 C  
HETATM    5  O   UNL     1      -7.503  14.375  68.191  1.00  0.00    -0.107 OA 
HETATM    6  CA  UNL     1      -9.266  15.889  68.955  1.00  0.00    -0.242 C  
HETATM    7  N   UNL     1      -9.241  16.641  67.812  1.00  0.00    -0.213 N  
HETATM    8  CA  UNL     1      -9.628  17.711  66.067  1.00  0.00    -0.103 C  
HETATM    9  C   UNL     1      -8.132  14.927  69.243  1.00  0.00    -0.135 C  
HETATM   10  O   UNL     1      -7.963  15.735  66.096  1.00  0.00    -0.010 OA 
HETATM   11  C   UNL     1      -8.704  16.561  66.580  1.00  0.00    -0.282 C  
HETATM   12  OXT UNL     1      -7.755  14.684  70.383  1.00  0.00     0.464 OA 
ENDROOT
BRANCH   4  13
HETATM   13  C   UNL     1     -10.364  15.191  71.136  1.00  0.00     0.695 C  
BRANCH  13  14
HETATM   14  S   UNL     1     -11.964  14.409  71.508  1.00  0.00    -0.114 SA 
BRANCH  14  15
HETATM   15  C   UNL     1     -11.912  12.980  70.505  1.00  0.00    -0.212 A  
HETATM   16  N   UNL     1     -12.132  11.768  70.971  1.00  0.00    -0.194 NA 
HETATM   17  S   UNL     1     -11.486  13.027  68.847  1.00  0.00    -0.318 SA 
HETATM   18  N   UNL     1     -11.926  10.795  70.015  1.00  0.00    -0.319 NA 
HETATM   19  C   UNL     1     -11.275  10.531  67.631  1.00  0.00    -0.338 C  
HETATM   20  C   UNL     1     -11.578  11.312  68.855  1.00  0.00    -0.319 A  
ENDBRANCH  14  15
ENDBRANCH  13  14
ENDBRANCH   4  13
BRANCH   8  21
HETATM   21  N   UNL     1     -10.673  17.258  65.091  1.00  0.00    -0.115 N  
HETATM   22  C   UNL     1     -11.112  15.950  65.084  1.00  0.00    -0.311 C  
HETATM   23  H   UNL     1     -11.064  17.925  64.425  1.00  0.00     0.000 HD 
HETATM   24  O   UNL     1     -10.791  15.150  65.959  1.00  0.00    -0.322 OA 
BRANCH  22  25
HETATM   25  C   UNL     1     -12.018  15.580  63.935  1.00  0.00     0.222 C  
BRANCH  25  26
HETATM   26  N   UNL     1     -12.345  14.179  63.954  1.00  0.00    -0.739 NA 
HETATM   27  C   UNL     1     -11.890  13.180  63.157  1.00  0.00    -0.097 A  
HETATM   28  N   UNL     1     -12.369  12.042  63.603  1.00  0.00    -0.539 NA 
HETATM   29  N   UNL     1     -13.133  12.360  64.701  1.00  0.00    -0.786 NA 
HETATM   30  N   UNL     1     -13.115  13.666  64.930  1.00  0.00    -0.650 NA 
ENDBRANCH  25  26
ENDBRANCH  22  25
ENDBRANCH   8  21
TORSDOF 6
ENDMDL
MODEL      213
REMARK 921   NORMALIZED FREE ENERGY PREDICTED BY IDOCK:    0.12 KCAL/MOL
REMARK 922        TOTAL FREE ENERGY PREDICTED BY IDOCK:   -0.82 KCAL/MOL
REMARK 923 INTER-LIGAND FREE ENERGY PREDICTED BY IDOCK:   -3.71 KCAL/MOL
REMARK 924 INTRA-LIGAND FREE ENERGY PREDICTED BY IDOCK:    2.89 KCAL/MOL
REMARK 927      BINDING AFFINITY PREDICTED BY RF-SCORE:    0.00 PKD
ROOT
HETATM    1  C   UNL     1      -5.657  15.845  67.162  1.00  0.00     0.182 C  
HETATM    2  S   UNL     1      -7.155  16.481  66.391  1.00  0.00     0.191 SA 
HETATM    3  C   UNL     1      -6.798  18.190  66.857  1.00  0.00    -0.188 C  
HETATM    4  C   UNL     1      -6.504  18.376  68.339  1.00  0.00    -0.215 C  
HETATM    5  O   UNL     1      -5.587  16.651  71.416  1.00  0.00     0.176 OA 
HETATM    6  CA  UNL     1      -5.956  17.390  69.114  1.00  0.00    -0.208 C  
HETATM    7  N   UNL     1      -5.688  16.159  68.580  1.00  0.00    -0.106 N  
HETATM    8  CA  UNL     1      -5.661  14.337  67.570  1.00  0.00     0.164 C  
HETATM    9  C   UNL     1      -5.580  17.680  70.551  1.00  0.00    -0.173 C  
HETATM   10  O   UNL     1      -5.506  14.453  70.146  1.00  0.00    -0.096 OA 
HETATM   11  C   UNL     1      -5.522  14.898  69.021  1.00  0.00    -0.093 C  
HETATM   12  OXT UNL     1      -5.230  18.795  70.923  1.00  0.00    -0.236 OA 
ENDROOT
BRANCH   4  13
HETATM   13  C   UNL     1      -6.864  19.753  68.912  1.00  0.00    -0.338 C  
BRANCH  13  14
HETATM   14  S   UNL     1      -8.571  20.336  68.685  1.00  0.00     0.459 SA 
BRANCH  14  15
HETATM   15  C   UNL     1      -9.365  18.907  68.069  1.00  0.00    -0.308 A  
HETATM   16  N   UNL     1      -9.556  17.823  68.793  1.00  0.00    -0.309 NA 
HETATM   17  S   UNL     1      -9.884  18.765  66.443  1.00  0.00    -0.374 SA 
HETATM   18  N   UNL     1     -10.101  16.792  68.057  1.00  0.00    -0.273 NA 
HETATM   19  C   UNL     1     -10.888  16.258  65.761  1.00  0.00    -0.173 C  
HETATM   20  C   UNL     1     -10.320  17.144  66.807  1.00  0.00    -0.302 A  
ENDBRANCH  14  15
ENDBRANCH  13  14
ENDBRANCH   4  13
BRANCH   8  21
HETATM   21  N   UNL     1      -6.920  13.554  67.342  1.00  0.00    -0.301 N  
HETATM   22  C   UNL     1      -7.968  13.627  68.235  1.00  0.00    -0.150 C  
HETATM   23  H   UNL     1      -7.001  12.960  66.517  1.00  0.00     0.000 HD 
HETATM   24  O   UNL     1      -7.984  14.441  69.157  1.00  0.00    -0.103 OA 
BRANCH  22  25
HETATM   25  C   UNL     1      -9.092  12.650  67.994  1.00  0.00    -0.207 C  
BRANCH  25  26
HETATM   26  N   UNL     1     -10.360  13.197  68.394  1.00  0.00    -0.251 NA 
HETATM   27  C   UNL     1     -10.745  13.679  69.604  1.00  0.00     0.266 A  
HETATM   28  N   UNL     1     -11.952  14.181  69.486  1.00  0.00    -0.321 NA 
HETATM   29  N   UNL     1     -12.309  14.000  68.170  1.00  0.00    -0.138 NA 
HETATM   30  N   UNL     1     -11.335  13.408  67.492  1.00  0.00    -0.284 NA 
ENDBRANCH  25  26
ENDBRANCH  22  25
ENDBRANCH   8  21
TORSDOF 6
ENDMDL
MODEL      214
REMARK 921   NORMALIZED FREE ENERGY PREDICTED BY IDOCK:    0.76 KCAL/MOL
REMARK 922        TOTAL FREE ENERGY PREDICTED BY IDOCK:    0.05 KCAL/MOL
REMARK 923 INTER-LIGAND FREE ENERGY PREDICTED BY IDOCK:   -1.47 KCAL/MOL
REMARK 924 INTRA-LIGAND FREE ENERGY PREDICTED BY IDOCK:    1.51 KCAL/MOL
REMARK 927      BINDING AFFINITY PREDICTED BY RF-SCORE:    0.00 PKD
ROOT
HETATM    1  C   UNL     1      -9.439   9.457  71.420  1.00  0.00     0.049 C  
HETATM    2  S   UNL     1      -7.789   9.167  70.761  1.00  0.00    -0.138 SA 
HETATM    3  C   UNL     1      -7.767  10.723  69.841  1.00  0.00     0.219 C  
HETATM    4  C   UNL     1      -8.978  10.925  68.942  1.00  0.00    -0.146 C  
HETATM    5  O   UNL     1     -12.381   9.810  68.262  1.00  0.00     1.536 OA 
HETATM    6  CA  UNL     1     -10.202  10.381  69.218  1.00  0.00    -0.230 C  
HETATM    7  N   UNL     1     -10.373   9.581  70.315  1.00  0.00    -0.248 N  
HETATM    8  CA  UNL     1     -10.249   8.199  71.870  1.00  0.00    -0.224 C  
HETATM    9  C   UNL     1     -11.393  10.718  68.346  1.00  0.00    -0.302 C  
HETATM   10  O   UNL     1     -12.221   8.177  70.199  1.00  0.00     0.377 OA 
HETATM   11  C   UNL     1     -11.223   8.618  70.722  1.00  0.00    -0.261 C  
HETATM   12  OXT UNL     1     -11.496  11.795  67.769  1.00  0.00    -0.281 OA 
ENDROOT
BRANCH   4  13
HETATM   13  C   UNL     1      -8.734  11.787  67.697  1.00  0.00    -0.159 C  
BRANCH  13  14
HETATM   14  S   UNL     1      -7.084  11.716  66.937  1.00  0.00    -0.088 SA 
BRANCH  14  15
HETATM   15  C   UNL     1      -7.186  10.259  65.979  1.00  0.00    -0.128 A  
HETATM   16  N   UNL     1      -6.146   9.493  65.723  1.00  0.00    -0.059 NA 
HETATM   17  S   UNL     1      -8.635   9.751  65.219  1.00  0.00    -0.165 SA 
HETATM   18  N   UNL     1      -6.455   8.464  64.857  1.00  0.00    -0.063 NA 
HETATM   19  C   UNL     1      -8.364   7.517  63.579  1.00  0.00     0.166 C  
HETATM   20  C   UNL     1      -7.724   8.482  64.507  1.00  0.00    -0.126 A  
ENDBRANCH  14  15
ENDBRANCH  13  14
ENDBRANCH   4  13
BRANCH   8  21
HETATM   21  N   UNL     1      -9.620   6.853  71.668  1.00  0.00    -0.161 N  
HETATM   22  C   UNL     1      -9.530   6.298  70.408  1.00  0.00    -0.161 C  
HETATM   23  H   UNL     1      -9.253   6.342  72.471  1.00  0.00     0.000 HD 
HETATM   24  O   UNL     1      -9.813   6.932  69.394  1.00  0.00    -0.157 OA 
BRANCH  22  25
HETATM   25  C   UNL     1      -9.054   4.866  70.367  1.00  0.00    -0.126 C  
BRANCH  25  26
HETATM   26  N   UNL     1      -9.556   4.113  71.485  1.00  0.00    -0.157 NA 
HETATM   27  C   UNL     1      -9.918   2.806  71.547  1.00  0.00    -0.042 A  
HETATM   28  N   UNL     1     -10.211   2.516  72.793  1.00  0.00    -0.147 NA 
HETATM   29  N   UNL     1     -10.018   3.676  73.506  1.00  0.00    -0.112 NA 
HETATM   30  N   UNL     1      -9.607   4.657  72.714  1.00  0.00    -0.132 NA 
ENDBRANCH  25  26
ENDBRANCH  22  25
ENDBRANCH   8  21
TORSDOF 6
ENDMDL
MODEL      215
REMARK 921   NORMALIZED FREE ENERGY PREDICTED BY IDOCK:    2.34 KCAL/MOL
REMARK 922        TOTAL FREE ENERGY PREDICTED BY IDOCK:    2.18 KCAL/MOL
REMARK 923 INTER-LIGAND FREE ENERGY PREDICTED BY IDOCK:   -2.83 KCAL/MOL
REMARK 924 INTRA-LIGAND FREE ENERGY PREDICTED BY IDOCK:    5.01 KCAL/MOL
REMARK 927      BINDING AFFINITY PREDICTED BY RF-SCORE:    0.00 PKD
ROOT
HETATM    1  C   UNL     1      -9.706   7.785  73.553  1.00  0.00    -0.256 C  
HETATM    2  S   UNL     1      -8.096   6.992  73.698  1.00  0.00    -0.111 SA 
HETATM    3  C   UNL     1      -7.199   8.477  73.190  1.00  0.00     0.007 C  
HETATM    4  C   UNL     1      -7.694   9.079  71.883  1.00  0.00     0.144 C  
HETATM    5  O   UNL     1     -10.458   9.139  69.509  1.00  0.00    -0.209 OA 
HETATM    6  CA  UNL     1      -8.987   8.954  71.454  1.00  0.00    -0.229 C  
HETATM    7  N   UNL     1      -9.890   8.228  72.182  1.00  0.00    -0.243 N  
HETATM    8  CA  UNL     1     -10.936   6.847  73.340  1.00  0.00    -0.190 C  
HETATM    9  C   UNL     1      -9.442   9.677  70.204  1.00  0.00    -0.253 C  
HETATM   10  O   UNL     1     -11.734   7.499  70.970  1.00  0.00    -0.285 OA 
HETATM   11  C   UNL     1     -11.053   7.583  71.967  1.00  0.00    -0.247 C  
HETATM   12  OXT UNL     1      -8.948  10.741  69.849  1.00  0.00     0.271 OA 
ENDROOT
BRANCH   4  13
HETATM   13  C   UNL     1      -6.639   9.843  71.072  1.00  0.00     0.058 C  
BRANCH  13  14
HETATM   14  S   UNL     1      -6.808   9.836  69.261  1.00  0.00    -0.058 SA 
BRANCH  14  15
HETATM   15  C   UNL     1      -6.715   8.131  68.893  1.00  0.00    -0.049 A  
HETATM   16  N   UNL     1      -7.712   7.297  69.100  1.00  0.00    -0.106 NA 
HETATM   17  S   UNL     1      -5.286   7.387  68.311  1.00  0.00    -0.026 SA 
HETATM   18  N   UNL     1      -7.363   5.989  68.836  1.00  0.00    -0.083 NA 
HETATM   19  C   UNL     1      -5.439   4.617  68.066  1.00  0.00    -0.016 C  
HETATM   20  C   UNL     1      -6.117   5.888  68.420  1.00  0.00    -0.021 A  
ENDBRANCH  14  15
ENDBRANCH  13  14
ENDBRANCH   4  13
BRANCH   8  21
HETATM   21  N   UNL     1     -10.681   5.374  73.217  1.00  0.00    -0.252 N  
HETATM   22  C   UNL     1      -9.790   4.888  72.282  1.00  0.00    -0.169 C  
HETATM   23  H   UNL     1     -11.171   4.725  73.832  1.00  0.00     0.000 HD 
HETATM   24  O   UNL     1      -9.062   5.631  71.627  1.00  0.00    -0.139 OA 
BRANCH  22  25
HETATM   25  C   UNL     1      -9.768   3.387  72.131  1.00  0.00    -0.158 C  
BRANCH  25  26
HETATM   26  N   UNL     1      -8.585   2.945  71.442  1.00  0.00    -0.063 NA 
HETATM   27  C   UNL     1      -8.476   2.180  70.327  1.00  0.00    -0.043 A  
HETATM   28  N   UNL     1      -7.209   2.120  69.987  1.00  0.00    -0.033 NA 
HETATM   29  N   UNL     1      -6.533   2.871  70.920  1.00  0.00    -0.023 NA 
HETATM   30  N   UNL     1      -7.369   3.389  71.809  1.00  0.00    -0.046 NA 
ENDBRANCH  25  26
ENDBRANCH  22  25
ENDBRANCH   8  21
TORSDOF 6
ENDMDL
MODEL      216
REMARK 921   NORMALIZED FREE ENERGY PREDICTED BY IDOCK:    8.17 KCAL/MOL
REMARK 922        TOTAL FREE ENERGY PREDICTED BY IDOCK:   10.05 KCAL/MOL
REMARK 923 INTER-LIGAND FREE ENERGY PREDICTED BY IDOCK:    8.66 KCAL/MOL
REMARK 924 INTRA-LIGAND FREE ENERGY PREDICTED BY IDOCK:    1.39 KCAL/MOL
REMARK 927      BINDING AFFINITY PREDICTED BY RF-SCORE:    0.00 PKD
ROOT
HETATM    1  C   UNL     1     -11.912  14.977  68.419  1.00  0.00    -0.200 C  
HETATM    2  S   UNL     1     -10.973  13.445  68.541  1.00  0.00    -0.278 SA 
HETATM    3  C   UNL     1     -10.254  13.887  70.139  1.00  0.00     1.410 C  
HETATM    4  C   UNL     1      -9.585  15.254  70.157  1.00  0.00     0.190 C  
HETATM    5  O   UNL     1      -9.314  18.442  68.411  1.00  0.00    -0.308 OA 
HETATM    6  CA  UNL     1      -9.981  16.282  69.345  1.00  0.00    -0.232 C  
HETATM    7  N   UNL     1     -10.987  16.097  68.436  1.00  0.00    -0.326 N  
HETATM    8  CA  UNL     1     -12.328  15.436  66.985  1.00  0.00     1.006 C  
HETATM    9  C   UNL     1      -9.352  17.650  69.497  1.00  0.00     0.511 C  
HETATM   10  O   UNL     1     -10.994  17.629  66.689  1.00  0.00    -0.051 OA 
HETATM   11  C   UNL     1     -11.404  16.659  67.285  1.00  0.00     0.324 C  
HETATM   12  OXT UNL     1      -8.930  18.060  70.572  1.00  0.00     3.108 OA 
ENDROOT
BRANCH   4  13
HETATM   13  C   UNL     1      -8.429  15.406  71.154  1.00  0.00     3.362 C  
BRANCH  13  14
HETATM   14  S   UNL     1      -6.741  15.462  70.479  1.00  0.00     0.477 SA 
BRANCH  14  15
HETATM   15  C   UNL     1      -6.864  14.396  69.101  1.00  0.00    -0.120 A  
HETATM   16  N   UNL     1      -7.309  14.790  67.925  1.00  0.00    -0.134 NA 
HETATM   17  S   UNL     1      -6.498  12.725  69.188  1.00  0.00    -0.105 SA 
HETATM   18  N   UNL     1      -7.418  13.745  67.031  1.00  0.00     0.145 NA 
HETATM   19  C   UNL     1      -7.041  11.295  66.861  1.00  0.00    -0.139 C  
HETATM   20  C   UNL     1      -7.032  12.603  67.561  1.00  0.00    -0.150 A  
ENDBRANCH  14  15
ENDBRANCH  13  14
ENDBRANCH   4  13
BRANCH   8  21
HETATM   21  N   UNL     1     -11.872  14.603  65.824  1.00  0.00    -0.317 N  
HETATM   22  C   UNL     1     -10.617  14.780  65.279  1.00  0.00    -0.395 C  
HETATM   23  H   UNL     1     -12.496  13.898  65.433  1.00  0.00     0.000 HD 
HETATM   24  O   UNL     1      -9.773  15.502  65.806  1.00  0.00    -0.329 OA 
BRANCH  22  25
HETATM   25  C   UNL     1     -10.354  14.019  64.002  1.00  0.00     1.011 C  
BRANCH  25  26
HETATM   26  N   UNL     1     -11.455  13.154  63.671  1.00  0.00    -0.381 NA 
HETATM   27  C   UNL     1     -12.654  13.462  63.116  1.00  0.00     0.277 A  
HETATM   28  N   UNL     1     -13.306  12.346  62.889  1.00  0.00     0.422 NA 
HETATM   29  N   UNL     1     -12.479  11.333  63.316  1.00  0.00     0.304 NA 
HETATM   30  N   UNL     1     -11.338  11.818  63.787  1.00  0.00    -0.420 NA 
ENDBRANCH  25  26
ENDBRANCH  22  25
ENDBRANCH   8  21
TORSDOF 6
ENDMDL
MODEL      217
REMARK 921   NORMALIZED FREE ENERGY PREDICTED BY IDOCK:   65.71 KCAL/MOL
REMARK 922        TOTAL FREE ENERGY PREDICTED BY IDOCK:   87.77 KCAL/MOL
REMARK 923 INTER-LIGAND FREE ENERGY PREDICTED BY IDOCK:   44.91 KCAL/MOL
REMARK 924 INTRA-LIGAND FREE ENERGY PREDICTED BY IDOCK:   42.86 KCAL/MOL
REMARK 927      BINDING AFFINITY PREDICTED BY RF-SCORE:    0.00 PKD
ROOT
HETATM    1  C   UNL     1     -10.169  16.177  65.602  1.00  0.00    -0.364 C  
HETATM    2  S   UNL     1      -8.384  16.220  65.833  1.00  0.00     0.492 SA 
HETATM    3  C   UNL     1      -8.051  15.444  64.234  1.00  0.00    12.663 C  
HETATM    4  C   UNL     1      -8.811  14.145  64.010  1.00  0.00     7.504 C  
HETATM    5  O   UNL     1     -11.622  12.123  65.146  1.00  0.00    -0.339 OA 
HETATM    6  CA  UNL     1     -10.025  13.889  64.587  1.00  0.00     0.061 C  
HETATM    7  N   UNL     1     -10.590  14.796  65.441  1.00  0.00    -0.349 N  
HETATM    8  CA  UNL     1     -11.047  16.219  66.893  1.00  0.00     0.055 C  
HETATM    9  C   UNL     1     -10.782  12.628  64.227  1.00  0.00    -0.382 C  
HETATM   10  O   UNL     1     -12.190  13.902  66.868  1.00  0.00    -0.424 OA 
HETATM   11  C   UNL     1     -11.498  14.795  66.435  1.00  0.00    -0.319 C  
HETATM   12  OXT UNL     1     -10.683  12.098  63.127  1.00  0.00    -0.375 OA 
ENDROOT
BRANCH   4  13
HETATM   13  C   UNL     1      -8.122  13.133  63.085  1.00  0.00     9.402 C  
BRANCH  13  14
HETATM   14  S   UNL     1      -8.184  11.380  63.565  1.00  0.00     0.955 SA 
BRANCH  14  15
HETATM   15  C   UNL     1      -9.667  11.307  64.486  1.00  0.00    -0.253 A  
HETATM   16  N   UNL     1      -9.897  12.066  65.538  1.00  0.00    -0.238 NA 
HETATM   17  S   UNL     1     -10.911  10.179  64.149  1.00  0.00     2.526 SA 
HETATM   18  N   UNL     1     -11.086  11.749  66.161  1.00  0.00    -0.310 NA 
HETATM   19  C   UNL     1     -13.016  10.195  65.972  1.00  0.00    12.322 C  
HETATM   20  C   UNL     1     -11.719  10.773  65.543  1.00  0.00     1.535 A  
ENDBRANCH  14  15
ENDBRANCH  13  14
ENDBRANCH   4  13
BRANCH   8  21
HETATM   21  N   UNL     1     -10.344  16.235  68.217  1.00  0.00    -0.261 N  
HETATM   22  C   UNL     1     -10.442  15.164  69.081  1.00  0.00    -0.252 C  
HETATM   23  H   UNL     1      -9.787  17.047  68.482  1.00  0.00     0.000 HD 
HETATM   24  O   UNL     1     -10.968  14.104  68.749  1.00  0.00    -0.241 OA 
BRANCH  22  25
HETATM   25  C   UNL     1      -9.850  15.384  70.452  1.00  0.00     0.337 C  
BRANCH  25  26
HETATM   26  N   UNL     1     -10.873  15.622  71.434  1.00  0.00    -0.078 NA 
HETATM   27  C   UNL     1     -12.037  14.954  71.642  1.00  0.00    -0.351 A  
HETATM   28  N   UNL     1     -12.610  15.444  72.717  1.00  0.00    -0.363 NA 
HETATM   29  N   UNL     1     -11.771  16.432  73.174  1.00  0.00    -0.303 NA 
HETATM   30  N   UNL     1     -10.699  16.542  72.400  1.00  0.00     2.258 NA 
ENDBRANCH  25  26
ENDBRANCH  22  25
ENDBRANCH   8  21
TORSDOF 6
ENDMDL
