MODEL        1
REMARK 921   NORMALIZED FREE ENERGY PREDICTED BY IDOCK:   -6.94 KCAL/MOL
REMARK 922        TOTAL FREE ENERGY PREDICTED BY IDOCK:  -11.28 KCAL/MOL
REMARK 923 INTER-LIGAND FREE ENERGY PREDICTED BY IDOCK:   -9.79 KCAL/MOL
REMARK 924 INTRA-LIGAND FREE ENERGY PREDICTED BY IDOCK:   -1.49 KCAL/MOL
REMARK 927      BINDING AFFINITY PREDICTED BY RF-SCORE:    0.00 PKD
ROOT
HETATM    1  C   UNL     1     -10.855  10.287  69.179  1.00  0.00    -0.233 C  
HETATM    2  S   UNL     1      -9.252  11.128  69.067  1.00  0.00     0.050 SA 
HETATM    3  C   UNL     1      -8.317   9.631  69.439  1.00  0.00    -0.145 C  
HETATM    4  C   UNL     1      -8.816   8.852  70.651  1.00  0.00    -0.234 C  
HETATM    5  OXT UNL     1      -9.598   7.842  73.256  1.00  0.00    -0.267 OA 
HETATM    6  CA  UNL     1     -10.076   8.969  71.164  1.00  0.00    -0.295 C  
HETATM    7  C   UNL     1     -10.428   8.301  72.484  1.00  0.00    -0.336 C  
HETATM    8  CA  UNL     1     -12.068  11.228  69.502  1.00  0.00    -0.317 C  
HETATM    9  N   UNL     1     -11.002   9.747  70.519  1.00  0.00    -0.297 N  
HETATM   10  O   UNL     1     -11.739   8.161  72.759  1.00  0.00    -0.403 OA 
HETATM   11  C   UNL     1     -12.192  10.331  70.786  1.00  0.00    -0.350 C  
HETATM   12  O   UNL     1     -12.924  10.181  71.740  1.00  0.00    -0.400 OA 
ENDROOT
BRANCH   4  13
HETATM   13  C   UNL     1      -7.668   8.046  71.261  1.00  0.00    -0.090 C  
BRANCH  13  14
HETATM   14  S   UNL     1      -7.369   6.413  70.543  1.00  0.00    -0.087 SA 
BRANCH  14  15
HETATM   15  C   UNL     1      -8.345   5.346  71.465  1.00  0.00    -0.122 A  
HETATM   16  N   UNL     1      -8.037   4.710  72.570  1.00  0.00    -0.101 NA 
HETATM   17  N   UNL     1      -9.141   3.955  72.888  1.00  0.00    -0.106 NA 
HETATM   18  C   UNL     1     -10.416   5.457  70.000  1.00  0.00    -0.303 C  
HETATM   19  N   UNL     1      -9.620   5.009  71.110  1.00  0.00    -0.158 NA 
HETATM   20  N   UNL     1     -10.112   4.131  72.002  1.00  0.00    -0.178 NA 
ENDBRANCH  14  15
ENDBRANCH  13  14
ENDBRANCH   4  13
BRANCH   8  21
HETATM   21  N   UNL     1     -11.698  12.647  69.749  1.00  0.00    -0.441 N  
HETATM   22  O   UNL     1     -12.280  13.476  67.704  1.00  0.00    -0.312 OA 
HETATM   23  H   UNL     1     -11.272  12.876  70.647  1.00  0.00     0.000 HD 
HETATM   24  C   UNL     1     -11.888  13.674  68.851  1.00  0.00    -0.364 C  
BRANCH  24  25
HETATM   25  C   UNL     1     -11.552  15.078  69.407  1.00  0.00    -0.315 C  
BRANCH  25  26
HETATM   26  O   UNL     1     -10.119  15.156  69.542  1.00  0.00    -0.231 OA 
HETATM   27  O   UNL     1     -10.099  16.979  68.131  1.00  0.00    -0.279 OA 
HETATM   28  C   UNL     1      -9.541  16.174  68.857  1.00  0.00    -0.245 C  
ENDBRANCH  25  26
BRANCH  25  29
HETATM   29  C   UNL     1     -12.230  15.322  70.749  1.00  0.00    -0.411 A  
HETATM   30  C   UNL     1     -13.625  15.223  70.845  1.00  0.00    -0.402 A  
HETATM   31  C   UNL     1     -14.272  15.460  72.058  1.00  0.00    -0.650 A  
HETATM   32  C   UNL     1     -13.534  15.784  73.194  1.00  0.00    -0.652 A  
HETATM   33  C   UNL     1     -12.147  15.871  73.121  1.00  0.00    -0.611 A  
HETATM   34  C   UNL     1     -11.499  15.641  71.908  1.00  0.00    -0.501 A  
ENDBRANCH  25  29
ENDBRANCH  24  25
ENDBRANCH   8  21
TORSDOF 7
ENDMDL
MODEL        2
REMARK 921   NORMALIZED FREE ENERGY PREDICTED BY IDOCK:   -6.92 KCAL/MOL
REMARK 922        TOTAL FREE ENERGY PREDICTED BY IDOCK:  -11.24 KCAL/MOL
REMARK 923 INTER-LIGAND FREE ENERGY PREDICTED BY IDOCK:  -10.19 KCAL/MOL
REMARK 924 INTRA-LIGAND FREE ENERGY PREDICTED BY IDOCK:   -1.05 KCAL/MOL
REMARK 927      BINDING AFFINITY PREDICTED BY RF-SCORE:    0.00 PKD
ROOT
HETATM    1  C   UNL     1     -11.973  14.508  67.929  1.00  0.00    -0.287 C  
HETATM    2  S   UNL     1     -10.720  14.378  69.233  1.00  0.00    -0.160 SA 
HETATM    3  C   UNL     1     -10.580  16.166  69.430  1.00  0.00    -0.300 C  
HETATM    4  C   UNL     1     -10.412  16.938  68.126  1.00  0.00    -0.350 C  
HETATM    5  OXT UNL     1      -9.585  18.128  65.613  1.00  0.00    -0.419 OA 
HETATM    6  CA  UNL     1     -10.767  16.451  66.901  1.00  0.00    -0.202 C  
HETATM    7  C   UNL     1     -10.391  17.209  65.638  1.00  0.00    -0.183 C  
HETATM    8  CA  UNL     1     -12.061  13.264  66.977  1.00  0.00    -0.320 C  
HETATM    9  N   UNL     1     -11.405  15.240  66.812  1.00  0.00    -0.245 N  
HETATM   10  O   UNL     1     -11.050  16.874  64.513  1.00  0.00    -1.054 OA 
HETATM   11  C   UNL     1     -11.675  14.309  65.870  1.00  0.00    -0.372 C  
HETATM   12  O   UNL     1     -11.540  14.371  64.667  1.00  0.00    -0.384 OA 
ENDROOT
BRANCH   4  13
HETATM   13  C   UNL     1      -9.680  18.254  68.392  1.00  0.00    -0.357 C  
BRANCH  13  14
HETATM   14  S   UNL     1      -7.915  18.125  68.771  1.00  0.00    -0.191 SA 
BRANCH  14  15
HETATM   15  C   UNL     1      -7.241  19.600  68.213  1.00  0.00    -0.306 A  
HETATM   16  N   UNL     1      -7.587  20.309  67.166  1.00  0.00    -0.301 NA 
HETATM   17  N   UNL     1      -6.720  21.375  67.131  1.00  0.00    -0.579 NA 
HETATM   18  C   UNL     1      -5.476  19.852  70.021  1.00  0.00    -0.239 C  
HETATM   19  N   UNL     1      -6.191  20.218  68.829  1.00  0.00    -0.302 NA 
HETATM   20  N   UNL     1      -5.863  21.328  68.142  1.00  0.00    -0.324 NA 
ENDBRANCH  14  15
ENDBRANCH  13  14
ENDBRANCH   4  13
BRANCH   8  21
HETATM   21  N   UNL     1     -11.044  12.212  67.244  1.00  0.00    -0.269 N  
HETATM   22  O   UNL     1     -12.372  10.801  68.451  1.00  0.00    -0.396 OA 
HETATM   23  H   UNL     1     -10.095  12.376  66.911  1.00  0.00     0.000 HD 
HETATM   24  C   UNL     1     -11.294  11.032  67.909  1.00  0.00    -0.311 C  
BRANCH  24  25
HETATM   25  C   UNL     1     -10.102  10.046  67.926  1.00  0.00    -0.169 C  
BRANCH  25  26
HETATM   26  O   UNL     1     -10.156   9.282  66.705  1.00  0.00    -0.225 OA 
HETATM   27  O   UNL     1      -8.674  10.756  65.734  1.00  0.00    -0.176 OA 
HETATM   28  C   UNL     1      -9.370   9.756  65.707  1.00  0.00    -0.221 C  
ENDBRANCH  25  26
BRANCH  25  29
HETATM   29  C   UNL     1     -10.161   9.124  69.138  1.00  0.00    -0.199 A  
HETATM   30  C   UNL     1      -9.960   9.654  70.418  1.00  0.00    -0.330 A  
HETATM   31  C   UNL     1      -9.990   8.828  71.543  1.00  0.00    -0.370 A  
HETATM   32  C   UNL     1     -10.238   7.465  71.403  1.00  0.00    -0.198 A  
HETATM   33  C   UNL     1     -10.456   6.923  70.141  1.00  0.00    -0.233 A  
HETATM   34  C   UNL     1     -10.418   7.746  69.015  1.00  0.00    -0.215 A  
ENDBRANCH  25  29
ENDBRANCH  24  25
ENDBRANCH   8  21
TORSDOF 7
ENDMDL
MODEL        3
REMARK 921   NORMALIZED FREE ENERGY PREDICTED BY IDOCK:   -6.90 KCAL/MOL
REMARK 922        TOTAL FREE ENERGY PREDICTED BY IDOCK:  -11.22 KCAL/MOL
REMARK 923 INTER-LIGAND FREE ENERGY PREDICTED BY IDOCK:   -9.67 KCAL/MOL
REMARK 924 INTRA-LIGAND FREE ENERGY PREDICTED BY IDOCK:   -1.56 KCAL/MOL
REMARK 927      BINDING AFFINITY PREDICTED BY RF-SCORE:    0.00 PKD
ROOT
HETATM    1  C   UNL     1     -10.750  10.546  68.991  1.00  0.00    -0.225 C  
HETATM    2  S   UNL     1      -9.188  11.449  68.806  1.00  0.00    -0.036 SA 
HETATM    3  C   UNL     1      -8.178   9.986  69.115  1.00  0.00    -0.137 C  
HETATM    4  C   UNL     1      -8.585   9.180  70.343  1.00  0.00    -0.236 C  
HETATM    5  OXT UNL     1      -9.194   8.119  72.974  1.00  0.00    -0.247 OA 
HETATM    6  CA  UNL     1      -9.821   9.243  70.921  1.00  0.00    -0.293 C  
HETATM    7  C   UNL     1     -10.080   8.552  72.250  1.00  0.00    -0.316 C  
HETATM    8  CA  UNL     1     -11.981  11.436  69.384  1.00  0.00    -0.339 C  
HETATM    9  N   UNL     1     -10.808   9.990  70.331  1.00  0.00    -0.303 N  
HETATM   10  O   UNL     1     -11.368   8.358  72.590  1.00  0.00    -0.372 OA 
HETATM   11  C   UNL     1     -12.004  10.524  70.663  1.00  0.00    -0.357 C  
HETATM   12  O   UNL     1     -12.680  10.339  71.651  1.00  0.00    -0.392 OA 
ENDROOT
BRANCH   4  13
HETATM   13  C   UNL     1      -7.378   8.414  70.886  1.00  0.00    -0.064 C  
BRANCH  13  14
HETATM   14  S   UNL     1      -6.949   6.882  70.025  1.00  0.00    -0.063 SA 
BRANCH  14  15
HETATM   15  C   UNL     1      -8.447   6.077  69.795  1.00  0.00    -0.126 A  
HETATM   16  N   UNL     1      -9.112   5.337  70.649  1.00  0.00    -0.139 NA 
HETATM   17  N   UNL     1     -10.223   4.891  69.973  1.00  0.00    -0.268 NA 
HETATM   18  C   UNL     1      -8.835   6.797  67.392  1.00  0.00    -0.117 C  
HETATM   19  N   UNL     1      -9.135   6.108  68.617  1.00  0.00    -0.125 NA 
HETATM   20  N   UNL     1     -10.246   5.356  68.731  1.00  0.00    -0.187 NA 
ENDBRANCH  14  15
ENDBRANCH  13  14
ENDBRANCH   4  13
BRANCH   8  21
HETATM   21  N   UNL     1     -11.653  12.866  69.625  1.00  0.00    -0.431 N  
HETATM   22  O   UNL     1     -12.397  13.692  67.633  1.00  0.00    -0.257 OA 
HETATM   23  H   UNL     1     -11.180  13.103  70.498  1.00  0.00     0.000 HD 
HETATM   24  C   UNL     1     -11.942  13.894  68.756  1.00  0.00    -0.358 C  
BRANCH  24  25
HETATM   25  C   UNL     1     -11.627  15.304  69.308  1.00  0.00    -0.332 C  
BRANCH  25  26
HETATM   26  O   UNL     1     -10.193  15.438  69.359  1.00  0.00    -0.230 OA 
HETATM   27  O   UNL     1     -10.294  17.016  67.682  1.00  0.00    -0.310 OA 
HETATM   28  C   UNL     1      -9.679  16.350  68.496  1.00  0.00    -0.228 C  
ENDBRANCH  25  26
BRANCH  25  29
HETATM   29  C   UNL     1     -12.234  15.509  70.691  1.00  0.00    -0.445 A  
HETATM   30  C   UNL     1     -13.616  15.368  70.865  1.00  0.00    -0.373 A  
HETATM   31  C   UNL     1     -14.199  15.567  72.117  1.00  0.00    -0.617 A  
HETATM   32  C   UNL     1     -13.406  15.894  73.214  1.00  0.00    -0.660 A  
HETATM   33  C   UNL     1     -12.029  16.022  73.063  1.00  0.00    -0.597 A  
HETATM   34  C   UNL     1     -11.445  15.830  71.811  1.00  0.00    -0.484 A  
ENDBRANCH  25  29
ENDBRANCH  24  25
ENDBRANCH   8  21
TORSDOF 7
ENDMDL
MODEL        4
REMARK 921   NORMALIZED FREE ENERGY PREDICTED BY IDOCK:   -6.85 KCAL/MOL
REMARK 922        TOTAL FREE ENERGY PREDICTED BY IDOCK:  -11.15 KCAL/MOL
REMARK 923 INTER-LIGAND FREE ENERGY PREDICTED BY IDOCK:   -9.86 KCAL/MOL
REMARK 924 INTRA-LIGAND FREE ENERGY PREDICTED BY IDOCK:   -1.29 KCAL/MOL
REMARK 927      BINDING AFFINITY PREDICTED BY RF-SCORE:    0.00 PKD
ROOT
HETATM    1  C   UNL     1     -10.921  10.144  69.264  1.00  0.00    -0.240 C  
HETATM    2  S   UNL     1      -9.301  10.937  69.078  1.00  0.00    -0.075 SA 
HETATM    3  C   UNL     1      -8.394   9.417  69.428  1.00  0.00    -0.125 C  
HETATM    4  C   UNL     1      -8.866   8.665  70.668  1.00  0.00    -0.192 C  
HETATM    5  OXT UNL     1      -9.570   7.703  73.313  1.00  0.00    -0.219 OA 
HETATM    6  CA  UNL     1     -10.100   8.823  71.230  1.00  0.00    -0.266 C  
HETATM    7  C   UNL     1     -10.417   8.178  72.570  1.00  0.00    -0.339 C  
HETATM    8  CA  UNL     1     -12.093  11.123  69.626  1.00  0.00    -0.336 C  
HETATM    9  N   UNL     1     -11.029   9.622  70.615  1.00  0.00    -0.293 N  
HETATM   10  O   UNL     1     -11.719   8.079  72.900  1.00  0.00    -0.369 OA 
HETATM   11  C   UNL     1     -12.190  10.242  70.924  1.00  0.00    -0.365 C  
HETATM   12  O   UNL     1     -12.886  10.123  71.907  1.00  0.00    -0.413 OA 
ENDROOT
BRANCH   4  13
HETATM   13  C   UNL     1      -7.718   7.831  71.238  1.00  0.00    -0.085 C  
BRANCH  13  14
HETATM   14  S   UNL     1      -6.047   8.349  70.777  1.00  0.00    -0.034 SA 
BRANCH  14  15
HETATM   15  C   UNL     1      -5.620   9.534  71.941  1.00  0.00    -0.044 A  
HETATM   16  N   UNL     1      -5.466   9.385  73.235  1.00  0.00    -0.252 NA 
HETATM   17  N   UNL     1      -5.166  10.635  73.723  1.00  0.00    -0.310 NA 
HETATM   18  C   UNL     1      -5.430  11.500  70.347  1.00  0.00    -0.131 C  
HETATM   19  N   UNL     1      -5.404  10.844  71.626  1.00  0.00    -0.316 NA 
HETATM   20  N   UNL     1      -5.127  11.532  72.748  1.00  0.00    -0.283 NA 
ENDBRANCH  14  15
ENDBRANCH  13  14
ENDBRANCH   4  13
BRANCH   8  21
HETATM   21  N   UNL     1     -11.672  12.533  69.843  1.00  0.00    -0.477 N  
HETATM   22  O   UNL     1     -12.306  13.358  67.812  1.00  0.00    -0.219 OA 
HETATM   23  H   UNL     1     -11.206  12.759  70.721  1.00  0.00     0.000 HD 
HETATM   24  C   UNL     1     -11.866  13.556  68.941  1.00  0.00    -0.345 C  
BRANCH  24  25
HETATM   25  C   UNL     1     -11.468  14.955  69.468  1.00  0.00    -0.297 C  
BRANCH  25  26
HETATM   26  O   UNL     1     -10.042  14.946  69.679  1.00  0.00    -0.159 OA 
HETATM   27  O   UNL     1      -9.803  16.542  68.033  1.00  0.00    -0.233 OA 
HETATM   28  C   UNL     1      -9.350  15.811  68.896  1.00  0.00    -0.228 C  
ENDBRANCH  25  26
BRANCH  25  29
HETATM   29  C   UNL     1     -12.199  15.291  70.762  1.00  0.00    -0.411 A  
HETATM   30  C   UNL     1     -13.560  14.980  70.885  1.00  0.00    -0.363 A  
HETATM   31  C   UNL     1     -14.256  15.294  72.053  1.00  0.00    -0.679 A  
HETATM   32  C   UNL     1     -13.600  15.908  73.117  1.00  0.00    -0.580 A  
HETATM   33  C   UNL     1     -12.245  16.209  73.017  1.00  0.00    -0.641 A  
HETATM   34  C   UNL     1     -11.549  15.903  71.849  1.00  0.00    -0.542 A  
ENDBRANCH  25  29
ENDBRANCH  24  25
ENDBRANCH   8  21
TORSDOF 7
ENDMDL
MODEL        5
REMARK 921   NORMALIZED FREE ENERGY PREDICTED BY IDOCK:   -6.80 KCAL/MOL
REMARK 922        TOTAL FREE ENERGY PREDICTED BY IDOCK:  -11.08 KCAL/MOL
REMARK 923 INTER-LIGAND FREE ENERGY PREDICTED BY IDOCK:   -9.96 KCAL/MOL
REMARK 924 INTRA-LIGAND FREE ENERGY PREDICTED BY IDOCK:   -1.12 KCAL/MOL
REMARK 927      BINDING AFFINITY PREDICTED BY RF-SCORE:    0.00 PKD
ROOT
HETATM    1  C   UNL     1     -10.725  10.452  66.939  1.00  0.00    -0.207 C  
HETATM    2  S   UNL     1     -11.544  11.743  67.915  1.00  0.00    -0.285 SA 
HETATM    3  C   UNL     1     -10.719  13.086  67.036  1.00  0.00    -0.258 C  
HETATM    4  C   UNL     1      -9.211  12.920  66.891  1.00  0.00    -0.234 C  
HETATM    5  OXT UNL     1      -6.337  12.657  67.195  1.00  0.00    -0.195 OA 
HETATM    6  CA  UNL     1      -8.564  11.722  66.990  1.00  0.00    -0.173 C  
HETATM    7  C   UNL     1      -7.044  11.674  67.022  1.00  0.00    -0.145 C  
HETATM    8  CA  UNL     1     -10.635   9.054  67.644  1.00  0.00    -0.231 C  
HETATM    9  N   UNL     1      -9.290  10.567  67.130  1.00  0.00    -0.154 N  
HETATM   10  O   UNL     1      -6.471  10.480  66.776  1.00  0.00    -0.070 OA 
HETATM   11  C   UNL     1      -9.087   9.287  67.511  1.00  0.00    -0.120 C  
HETATM   12  O   UNL     1      -8.045   8.703  67.716  1.00  0.00    -0.106 OA 
ENDROOT
BRANCH   4  13
HETATM   13  C   UNL     1      -8.548  14.291  66.755  1.00  0.00    -0.084 C  
BRANCH  13  14
HETATM   14  S   UNL     1      -9.451  15.690  67.462  1.00  0.00    -0.215 SA 
BRANCH  14  15
HETATM   15  C   UNL     1     -10.213  16.440  66.121  1.00  0.00    -0.348 A  
HETATM   16  N   UNL     1     -10.720  15.874  65.052  1.00  0.00    -0.543 NA 
HETATM   17  N   UNL     1     -11.172  16.904  64.262  1.00  0.00    -1.099 NA 
HETATM   18  C   UNL     1      -9.991  18.838  66.923  1.00  0.00    -0.346 C  
HETATM   19  N   UNL     1     -10.360  17.792  66.009  1.00  0.00    -0.511 NA 
HETATM   20  N   UNL     1     -10.956  18.079  64.837  1.00  0.00    -0.524 NA 
ENDBRANCH  14  15
ENDBRANCH  13  14
ENDBRANCH   4  13
BRANCH   8  21
HETATM   21  N   UNL     1     -11.160   9.031  69.035  1.00  0.00    -0.436 N  
HETATM   22  O   UNL     1     -10.459   6.933  69.594  1.00  0.00    -0.202 OA 
HETATM   23  H   UNL     1     -11.693   9.841  69.353  1.00  0.00     0.000 HD 
HETATM   24  C   UNL     1     -10.979   7.996  69.924  1.00  0.00    -0.172 C  
BRANCH  24  25
HETATM   25  C   UNL     1     -11.500   8.283  71.352  1.00  0.00    -0.269 C  
BRANCH  25  26
HETATM   26  O   UNL     1     -11.778   9.694  71.434  1.00  0.00    -0.352 OA 
HETATM   27  O   UNL     1     -13.929   9.218  72.114  1.00  0.00    -0.409 OA 
HETATM   28  C   UNL     1     -13.033  10.001  71.849  1.00  0.00    -0.447 C  
ENDBRANCH  25  26
BRANCH  25  29
HETATM   29  C   UNL     1     -10.481   7.875  72.409  1.00  0.00    -0.339 A  
HETATM   30  C   UNL     1      -9.241   8.525  72.458  1.00  0.00    -0.303 A  
HETATM   31  C   UNL     1      -8.284   8.158  73.405  1.00  0.00    -0.267 A  
HETATM   32  C   UNL     1      -8.559   7.148  74.324  1.00  0.00    -0.225 A  
HETATM   33  C   UNL     1      -9.791   6.502  74.299  1.00  0.00    -0.337 A  
HETATM   34  C   UNL     1     -10.747   6.863  73.350  1.00  0.00    -0.352 A  
ENDBRANCH  25  29
ENDBRANCH  24  25
ENDBRANCH   8  21
TORSDOF 7
ENDMDL
MODEL        6
REMARK 921   NORMALIZED FREE ENERGY PREDICTED BY IDOCK:   -6.78 KCAL/MOL
REMARK 922        TOTAL FREE ENERGY PREDICTED BY IDOCK:  -11.04 KCAL/MOL
REMARK 923 INTER-LIGAND FREE ENERGY PREDICTED BY IDOCK:  -10.02 KCAL/MOL
REMARK 924 INTRA-LIGAND FREE ENERGY PREDICTED BY IDOCK:   -1.02 KCAL/MOL
REMARK 927      BINDING AFFINITY PREDICTED BY RF-SCORE:    0.00 PKD
ROOT
HETATM    1  C   UNL     1     -12.154  14.214  68.620  1.00  0.00    -0.285 C  
HETATM    2  S   UNL     1     -11.065  14.568  70.026  1.00  0.00    -0.058 SA 
HETATM    3  C   UNL     1     -10.955  16.327  69.640  1.00  0.00    -0.346 C  
HETATM    4  C   UNL     1     -10.635  16.639  68.182  1.00  0.00    -0.336 C  
HETATM    5  OXT UNL     1      -9.516  16.980  65.527  1.00  0.00    -0.496 OA 
HETATM    6  CA  UNL     1     -10.839  15.765  67.154  1.00  0.00    -0.289 C  
HETATM    7  C   UNL     1     -10.317  16.087  65.762  1.00  0.00    -0.378 C  
HETATM    8  CA  UNL     1     -12.124  12.725  68.125  1.00  0.00    -0.108 C  
HETATM    9  N   UNL     1     -11.458  14.566  67.395  1.00  0.00    -0.352 N  
HETATM   10  O   UNL     1     -10.836  15.376  64.743  1.00  0.00    -0.422 OA 
HETATM   11  C   UNL     1     -11.611  13.369  66.786  1.00  0.00    -0.365 C  
HETATM   12  O   UNL     1     -11.333  13.042  65.654  1.00  0.00    -0.291 OA 
ENDROOT
BRANCH   4  13
HETATM   13  C   UNL     1      -9.943  18.000  68.082  1.00  0.00    -0.353 C  
BRANCH  13  14
HETATM   14  S   UNL     1      -8.213  18.058  68.609  1.00  0.00    -0.237 SA 
BRANCH  14  15
HETATM   15  C   UNL     1      -7.608  19.523  67.955  1.00  0.00    -0.289 A  
HETATM   16  N   UNL     1      -7.923  20.100  66.820  1.00  0.00    -0.303 NA 
HETATM   17  N   UNL     1      -7.136  21.224  66.739  1.00  0.00    -0.315 NA 
HETATM   18  C   UNL     1      -6.011  20.086  69.847  1.00  0.00    -0.332 C  
HETATM   19  N   UNL     1      -6.657  20.280  68.577  1.00  0.00    -0.298 NA 
HETATM   20  N   UNL     1      -6.359  21.342  67.807  1.00  0.00    -0.453 NA 
ENDBRANCH  14  15
ENDBRANCH  13  14
ENDBRANCH   4  13
BRANCH   8  21
HETATM   21  N   UNL     1     -11.144  11.861  68.835  1.00  0.00    -0.233 N  
HETATM   22  O   UNL     1     -12.628  10.721  70.140  1.00  0.00    -0.327 OA 
HETATM   23  H   UNL     1     -10.154  12.004  68.633  1.00  0.00     0.000 HD 
HETATM   24  C   UNL     1     -11.476  10.882  69.744  1.00  0.00    -0.313 C  
BRANCH  24  25
HETATM   25  C   UNL     1     -10.281  10.029  70.228  1.00  0.00    -0.206 C  
BRANCH  25  26
HETATM   26  O   UNL     1      -9.402   9.839  69.102  1.00  0.00    -0.163 OA 
HETATM   27  O   UNL     1      -7.583  10.076  70.500  1.00  0.00    -0.276 OA 
HETATM   28  C   UNL     1      -8.079   9.871  69.406  1.00  0.00    -0.139 C  
ENDBRANCH  25  26
BRANCH  25  29
HETATM   29  C   UNL     1     -10.743   8.686  70.779  1.00  0.00    -0.260 A  
HETATM   30  C   UNL     1     -10.919   8.531  72.160  1.00  0.00    -0.427 A  
HETATM   31  C   UNL     1     -11.325   7.305  72.692  1.00  0.00    -0.333 A  
HETATM   32  C   UNL     1     -11.573   6.225  71.849  1.00  0.00    -0.369 A  
HETATM   33  C   UNL     1     -11.419   6.365  70.474  1.00  0.00    -0.444 A  
HETATM   34  C   UNL     1     -11.007   7.587  69.941  1.00  0.00    -0.223 A  
ENDBRANCH  25  29
ENDBRANCH  24  25
ENDBRANCH   8  21
TORSDOF 7
ENDMDL
MODEL        7
REMARK 921   NORMALIZED FREE ENERGY PREDICTED BY IDOCK:   -6.72 KCAL/MOL
REMARK 922        TOTAL FREE ENERGY PREDICTED BY IDOCK:  -10.97 KCAL/MOL
REMARK 923 INTER-LIGAND FREE ENERGY PREDICTED BY IDOCK:   -9.75 KCAL/MOL
REMARK 924 INTRA-LIGAND FREE ENERGY PREDICTED BY IDOCK:   -1.22 KCAL/MOL
REMARK 927      BINDING AFFINITY PREDICTED BY RF-SCORE:    0.00 PKD
ROOT
HETATM    1  C   UNL     1     -10.668  11.131  66.795  1.00  0.00    -0.276 C  
HETATM    2  S   UNL     1     -11.707  12.279  67.740  1.00  0.00    -0.289 SA 
HETATM    3  C   UNL     1     -10.977  13.741  66.977  1.00  0.00    -0.290 C  
HETATM    4  C   UNL     1      -9.452  13.754  66.955  1.00  0.00    -0.265 C  
HETATM    5  OXT UNL     1      -6.602  13.807  67.491  1.00  0.00    -0.189 OA 
HETATM    6  CA  UNL     1      -8.680  12.634  67.069  1.00  0.00    -0.198 C  
HETATM    7  C   UNL     1      -7.173  12.758  67.228  1.00  0.00    -0.082 C  
HETATM    8  CA  UNL     1     -10.472   9.723  67.460  1.00  0.00    -0.251 C  
HETATM    9  N   UNL     1      -9.276  11.400  67.110  1.00  0.00    -0.164 N  
HETATM   10  O   UNL     1      -6.447  11.648  66.992  1.00  0.00    -0.124 OA 
HETATM   11  C   UNL     1      -8.956  10.136  67.466  1.00  0.00    -0.131 C  
HETATM   12  O   UNL     1      -7.874   9.666  67.739  1.00  0.00    -0.094 OA 
ENDROOT
BRANCH   4  13
HETATM   13  C   UNL     1      -8.945  15.196  66.920  1.00  0.00    -0.252 C  
BRANCH  13  14
HETATM   14  S   UNL     1      -9.856  16.390  67.928  1.00  0.00    -0.242 SA 
BRANCH  14  15
HETATM   15  C   UNL     1     -10.287  17.643  66.839  1.00  0.00    -0.329 A  
HETATM   16  N   UNL     1     -10.578  17.548  65.564  1.00  0.00    -0.610 NA 
HETATM   17  N   UNL     1     -10.812  18.834  65.136  1.00  0.00    -0.399 NA 
HETATM   18  C   UNL     1     -10.147  19.567  68.488  1.00  0.00    -0.445 C  
HETATM   19  N   UNL     1     -10.354  18.956  67.204  1.00  0.00    -0.388 NA 
HETATM   20  N   UNL     1     -10.677  19.700  66.131  1.00  0.00    -0.457 NA 
ENDBRANCH  14  15
ENDBRANCH  13  14
ENDBRANCH   4  13
BRANCH   8  21
HETATM   21  N   UNL     1     -11.101   9.584  68.800  1.00  0.00    -0.456 N  
HETATM   22  O   UNL     1     -10.415   7.452  69.239  1.00  0.00    -0.213 OA 
HETATM   23  H   UNL     1     -11.667  10.361  69.141  1.00  0.00     0.000 HD 
HETATM   24  C   UNL     1     -10.974   8.480  69.614  1.00  0.00    -0.086 C  
BRANCH  24  25
HETATM   25  C   UNL     1     -11.605   8.646  71.016  1.00  0.00    -0.281 C  
BRANCH  25  26
HETATM   26  O   UNL     1     -11.917  10.042  71.187  1.00  0.00    -0.332 OA 
HETATM   27  O   UNL     1     -13.849   9.461  72.302  1.00  0.00    -0.443 OA 
HETATM   28  C   UNL     1     -13.064  10.286  71.869  1.00  0.00    -0.463 C  
ENDBRANCH  25  26
BRANCH  25  29
HETATM   29  C   UNL     1     -10.659   8.170  72.112  1.00  0.00    -0.358 A  
HETATM   30  C   UNL     1     -11.102   7.217  73.039  1.00  0.00    -0.361 A  
HETATM   31  C   UNL     1     -10.262   6.778  74.063  1.00  0.00    -0.399 A  
HETATM   32  C   UNL     1      -8.964   7.273  74.164  1.00  0.00    -0.267 A  
HETATM   33  C   UNL     1      -8.502   8.207  73.243  1.00  0.00    -0.294 A  
HETATM   34  C   UNL     1      -9.343   8.653  72.223  1.00  0.00    -0.322 A  
ENDBRANCH  25  29
ENDBRANCH  24  25
ENDBRANCH   8  21
TORSDOF 7
ENDMDL
MODEL        8
REMARK 921   NORMALIZED FREE ENERGY PREDICTED BY IDOCK:   -6.66 KCAL/MOL
REMARK 922        TOTAL FREE ENERGY PREDICTED BY IDOCK:  -10.88 KCAL/MOL
REMARK 923 INTER-LIGAND FREE ENERGY PREDICTED BY IDOCK:   -9.50 KCAL/MOL
REMARK 924 INTRA-LIGAND FREE ENERGY PREDICTED BY IDOCK:   -1.38 KCAL/MOL
REMARK 927      BINDING AFFINITY PREDICTED BY RF-SCORE:    0.00 PKD
ROOT
HETATM    1  C   UNL     1      -7.260  15.226  67.110  1.00  0.00    -0.104 C  
HETATM    2  S   UNL     1      -8.434  16.292  66.230  1.00  0.00    -0.286 SA 
HETATM    3  C   UNL     1      -7.258  17.651  66.081  1.00  0.00    -0.317 C  
HETATM    4  C   UNL     1      -6.541  18.018  67.376  1.00  0.00    -0.183 C  
HETATM    5  OXT UNL     1      -5.708  18.873  70.021  1.00  0.00    -0.235 OA 
HETATM    6  CA  UNL     1      -6.421  17.176  68.444  1.00  0.00    -0.158 C  
HETATM    7  C   UNL     1      -5.858  17.687  69.761  1.00  0.00    -0.250 C  
HETATM    8  CA  UNL     1      -7.921  14.112  67.996  1.00  0.00    -0.149 C  
HETATM    9  N   UNL     1      -6.872  15.884  68.345  1.00  0.00    -0.113 N  
HETATM   10  O   UNL     1      -5.448  16.757  70.645  1.00  0.00    -0.204 OA 
HETATM   11  C   UNL     1      -7.186  14.860  69.167  1.00  0.00    -0.153 C  
HETATM   12  O   UNL     1      -6.988  14.740  70.356  1.00  0.00    -0.055 OA 
ENDROOT
BRANCH   4  13
HETATM   13  C   UNL     1      -6.111  19.485  67.335  1.00  0.00    -0.189 C  
BRANCH  13  14
HETATM   14  S   UNL     1      -7.427  20.697  67.071  1.00  0.00    -0.262 SA 
BRANCH  14  15
HETATM   15  C   UNL     1      -8.826  19.979  67.755  1.00  0.00    -0.302 A  
HETATM   16  N   UNL     1      -9.019  19.588  68.992  1.00  0.00    -0.286 NA 
HETATM   17  N   UNL     1     -10.280  19.044  69.022  1.00  0.00    -0.278 NA 
HETATM   18  C   UNL     1     -10.242  19.957  65.648  1.00  0.00    -0.286 C  
HETATM   19  N   UNL     1      -9.950  19.700  67.032  1.00  0.00    -0.363 NA 
HETATM   20  N   UNL     1     -10.857  19.107  67.829  1.00  0.00    -0.367 NA 
ENDBRANCH  14  15
ENDBRANCH  13  14
ENDBRANCH   4  13
BRANCH   8  21
HETATM   21  N   UNL     1      -9.406  14.162  68.040  1.00  0.00    -0.196 N  
HETATM   22  O   UNL     1      -9.773  11.958  68.505  1.00  0.00    -0.205 OA 
HETATM   23  H   UNL     1      -9.857  15.051  67.824  1.00  0.00     0.000 HD 
HETATM   24  C   UNL     1     -10.217  13.093  68.351  1.00  0.00    -0.247 C  
BRANCH  24  25
HETATM   25  C   UNL     1     -11.719  13.445  68.468  1.00  0.00    -0.357 C  
BRANCH  25  26
HETATM   26  O   UNL     1     -12.040  14.335  67.382  1.00  0.00    -0.400 OA 
HETATM   27  O   UNL     1     -12.354  12.516  66.002  1.00  0.00    -0.615 OA 
HETATM   28  C   UNL     1     -12.354  13.715  66.217  1.00  0.00    -0.412 C  
ENDBRANCH  25  26
BRANCH  25  29
HETATM   29  C   UNL     1     -12.034  14.099  69.808  1.00  0.00    -0.396 A  
HETATM   30  C   UNL     1     -11.700  15.444  70.014  1.00  0.00    -0.349 A  
HETATM   31  C   UNL     1     -11.962  16.062  71.237  1.00  0.00    -0.475 A  
HETATM   32  C   UNL     1     -12.574  15.349  72.265  1.00  0.00    -0.455 A  
HETATM   33  C   UNL     1     -12.926  14.017  72.073  1.00  0.00    -0.450 A  
HETATM   34  C   UNL     1     -12.660  13.396  70.853  1.00  0.00    -0.406 A  
ENDBRANCH  25  29
ENDBRANCH  24  25
ENDBRANCH   8  21
TORSDOF 7
ENDMDL
MODEL        9
REMARK 921   NORMALIZED FREE ENERGY PREDICTED BY IDOCK:   -6.63 KCAL/MOL
REMARK 922        TOTAL FREE ENERGY PREDICTED BY IDOCK:  -10.83 KCAL/MOL
REMARK 923 INTER-LIGAND FREE ENERGY PREDICTED BY IDOCK:  -10.14 KCAL/MOL
REMARK 924 INTRA-LIGAND FREE ENERGY PREDICTED BY IDOCK:   -0.69 KCAL/MOL
REMARK 927      BINDING AFFINITY PREDICTED BY RF-SCORE:    0.00 PKD
ROOT
HETATM    1  C   UNL     1     -10.408  11.497  66.752  1.00  0.00    -0.226 C  
HETATM    2  S   UNL     1     -11.871  12.568  66.817  1.00  0.00    -0.270 SA 
HETATM    3  C   UNL     1     -11.125  13.836  65.772  1.00  0.00    -0.289 C  
HETATM    4  C   UNL     1      -9.716  14.250  66.182  1.00  0.00    -0.325 C  
HETATM    5  OXT UNL     1      -7.296  15.242  67.438  1.00  0.00    -0.183 OA 
HETATM    6  CA  UNL     1      -8.890  13.482  66.952  1.00  0.00    -0.182 C  
HETATM    7  C   UNL     1      -7.579  14.052  67.469  1.00  0.00    -0.180 C  
HETATM    8  CA  UNL     1     -10.274  10.496  67.952  1.00  0.00    -0.183 C  
HETATM    9  N   UNL     1      -9.281  12.219  67.314  1.00  0.00    -0.179 N  
HETATM   10  O   UNL     1      -6.669  13.166  67.916  1.00  0.00    -0.103 OA 
HETATM   11  C   UNL     1      -8.939  11.279  68.223  1.00  0.00    -0.172 C  
HETATM   12  O   UNL     1      -7.977  11.235  68.958  1.00  0.00    -0.132 OA 
ENDROOT
BRANCH   4  13
HETATM   13  C   UNL     1      -9.438  15.680  65.715  1.00  0.00    -0.303 C  
BRANCH  13  14
HETATM   14  S   UNL     1     -10.882  16.753  65.524  1.00  0.00    -0.008 SA 
BRANCH  14  15
HETATM   15  C   UNL     1     -10.434  18.225  66.281  1.00  0.00    -0.376 A  
HETATM   16  N   UNL     1     -10.185  19.385  65.723  1.00  0.00    -0.482 NA 
HETATM   17  N   UNL     1      -9.832  20.228  66.750  1.00  0.00    -0.450 NA 
HETATM   18  C   UNL     1     -10.431  17.371  68.671  1.00  0.00    -0.355 C  
HETATM   19  N   UNL     1     -10.257  18.345  67.629  1.00  0.00    -0.360 NA 
HETATM   20  N   UNL     1      -9.873  19.602  67.918  1.00  0.00    -0.375 NA 
ENDBRANCH  14  15
ENDBRANCH  13  14
ENDBRANCH   4  13
BRANCH   8  21
HETATM   21  N   UNL     1     -11.323  10.643  68.996  1.00  0.00    -0.263 N  
HETATM   22  O   UNL     1     -10.145   9.762  70.741  1.00  0.00    -0.261 OA 
HETATM   23  H   UNL     1     -12.230  11.008  68.707  1.00  0.00     0.000 HD 
HETATM   24  C   UNL     1     -11.157  10.321  70.325  1.00  0.00    -0.319 C  
BRANCH  24  25
HETATM   25  C   UNL     1     -12.352  10.704  71.228  1.00  0.00    -0.383 C  
BRANCH  25  26
HETATM   26  O   UNL     1     -13.510  10.004  70.732  1.00  0.00    -0.316 OA 
HETATM   27  O   UNL     1     -13.583   8.772  72.680  1.00  0.00    -0.387 OA 
HETATM   28  C   UNL     1     -14.021   9.080  71.585  1.00  0.00    -0.332 C  
ENDBRANCH  25  26
BRANCH  25  29
HETATM   29  C   UNL     1     -12.594  12.208  71.223  1.00  0.00    -0.341 A  
HETATM   30  C   UNL     1     -13.463  12.770  72.167  1.00  0.00    -0.591 A  
HETATM   31  C   UNL     1     -13.715  14.143  72.172  1.00  0.00    -0.587 A  
HETATM   32  C   UNL     1     -13.090  14.973  71.245  1.00  0.00    -0.472 A  
HETATM   33  C   UNL     1     -12.210  14.434  70.311  1.00  0.00    -0.397 A  
HETATM   34  C   UNL     1     -11.963  13.062  70.300  1.00  0.00    -0.360 A  
ENDBRANCH  25  29
ENDBRANCH  24  25
ENDBRANCH   8  21
TORSDOF 7
ENDMDL
MODEL       10
REMARK 921   NORMALIZED FREE ENERGY PREDICTED BY IDOCK:   -6.58 KCAL/MOL
REMARK 922        TOTAL FREE ENERGY PREDICTED BY IDOCK:  -10.77 KCAL/MOL
REMARK 923 INTER-LIGAND FREE ENERGY PREDICTED BY IDOCK:   -9.81 KCAL/MOL
REMARK 924 INTRA-LIGAND FREE ENERGY PREDICTED BY IDOCK:   -0.96 KCAL/MOL
REMARK 927      BINDING AFFINITY PREDICTED BY RF-SCORE:    0.00 PKD
ROOT
HETATM    1  C   UNL     1     -11.702  13.345  67.533  1.00  0.00    -0.366 C  
HETATM    2  S   UNL     1     -10.037  13.630  68.195  1.00  0.00    -0.250 SA 
HETATM    3  C   UNL     1     -10.190  15.426  68.106  1.00  0.00    -0.230 C  
HETATM    4  C   UNL     1     -10.706  15.955  66.773  1.00  0.00    -0.281 C  
HETATM    5  OXT UNL     1     -11.190  16.752  64.025  1.00  0.00    -1.089 OA 
HETATM    6  CA  UNL     1     -11.410  15.203  65.876  1.00  0.00    -0.225 C  
HETATM    7  C   UNL     1     -11.721  15.755  64.493  1.00  0.00    -0.191 C  
HETATM    8  CA  UNL     1     -11.908  11.944  66.858  1.00  0.00    -0.096 C  
HETATM    9  N   UNL     1     -11.777  13.923  66.204  1.00  0.00    -0.359 N  
HETATM   10  O   UNL     1     -12.689  15.129  63.797  1.00  0.00    -0.722 OA 
HETATM   11  C   UNL     1     -12.205  12.805  65.577  1.00  0.00    -0.463 C  
HETATM   12  O   UNL     1     -12.569  12.658  64.431  1.00  0.00    -0.582 OA 
ENDROOT
BRANCH   4  13
HETATM   13  C   UNL     1     -10.206  17.383  66.551  1.00  0.00    -0.329 C  
BRANCH  13  14
HETATM   14  S   UNL     1     -10.283  18.488  67.981  1.00  0.00    -0.385 SA 
BRANCH  14  15
HETATM   15  C   UNL     1      -8.939  19.538  67.793  1.00  0.00    -0.318 A  
HETATM   16  N   UNL     1      -8.906  20.726  67.239  1.00  0.00    -0.235 NA 
HETATM   17  N   UNL     1      -7.594  21.133  67.301  1.00  0.00    -0.361 NA 
HETATM   18  C   UNL     1      -7.205  18.043  68.889  1.00  0.00    -0.259 C  
HETATM   19  N   UNL     1      -7.679  19.216  68.208  1.00  0.00    -0.302 NA 
HETATM   20  N   UNL     1      -6.837  20.217  67.891  1.00  0.00    -0.268 NA 
ENDBRANCH  14  15
ENDBRANCH  13  14
ENDBRANCH   4  13
BRANCH   8  21
HETATM   21  N   UNL     1     -10.681  11.106  66.792  1.00  0.00    -0.267 N  
HETATM   22  O   UNL     1     -10.981   9.970  68.748  1.00  0.00    -0.224 OA 
HETATM   23  H   UNL     1     -10.045  11.258  66.010  1.00  0.00     0.000 HD 
HETATM   24  C   UNL     1     -10.342  10.139  67.713  1.00  0.00    -0.210 C  
BRANCH  24  25
HETATM   25  C   UNL     1      -9.092   9.311  67.337  1.00  0.00    -0.126 C  
BRANCH  25  26
HETATM   26  O   UNL     1      -8.723   9.672  65.991  1.00  0.00    -0.132 OA 
HETATM   27  O   UNL     1      -6.532   9.907  66.669  1.00  0.00    -0.068 OA 
HETATM   28  C   UNL     1      -7.401   9.922  65.815  1.00  0.00    -0.111 C  
ENDBRANCH  25  26
BRANCH  25  29
HETATM   29  C   UNL     1      -9.365   7.815  67.435  1.00  0.00    -0.168 A  
HETATM   30  C   UNL     1      -8.410   6.977  68.025  1.00  0.00    -0.119 A  
HETATM   31  C   UNL     1      -8.628   5.601  68.110  1.00  0.00    -0.104 A  
HETATM   32  C   UNL     1      -9.809   5.048  67.622  1.00  0.00    -0.202 A  
HETATM   33  C   UNL     1     -10.775   5.867  67.047  1.00  0.00    -0.396 A  
HETATM   34  C   UNL     1     -10.556   7.241  66.954  1.00  0.00    -0.375 A  
ENDBRANCH  25  29
ENDBRANCH  24  25
ENDBRANCH   8  21
TORSDOF 7
ENDMDL
MODEL       11
REMARK 921   NORMALIZED FREE ENERGY PREDICTED BY IDOCK:   -6.58 KCAL/MOL
REMARK 922        TOTAL FREE ENERGY PREDICTED BY IDOCK:  -10.77 KCAL/MOL
REMARK 923 INTER-LIGAND FREE ENERGY PREDICTED BY IDOCK:   -9.85 KCAL/MOL
REMARK 924 INTRA-LIGAND FREE ENERGY PREDICTED BY IDOCK:   -0.92 KCAL/MOL
REMARK 927      BINDING AFFINITY PREDICTED BY RF-SCORE:    0.00 PKD
ROOT
HETATM    1  C   UNL     1      -9.927   9.718  66.836  1.00  0.00    -0.211 C  
HETATM    2  S   UNL     1     -11.049  10.616  67.942  1.00  0.00    -0.309 SA 
HETATM    3  C   UNL     1     -10.731  12.207  67.153  1.00  0.00    -0.232 C  
HETATM    4  C   UNL     1      -9.255  12.532  66.947  1.00  0.00    -0.211 C  
HETATM    5  OXT UNL     1      -6.429  13.160  67.137  1.00  0.00    -0.227 OA 
HETATM    6  CA  UNL     1      -8.265  11.592  66.925  1.00  0.00    -0.169 C  
HETATM    7  C   UNL     1      -6.806  12.020  66.905  1.00  0.00    -0.035 C  
HETATM    8  CA  UNL     1      -9.370   8.372  67.418  1.00  0.00    -0.148 C  
HETATM    9  N   UNL     1      -8.590  10.262  66.991  1.00  0.00    -0.129 N  
HETATM   10  O   UNL     1      -5.907  11.086  66.542  1.00  0.00    -0.093 OA 
HETATM   11  C   UNL     1      -7.979   9.086  67.257  1.00  0.00    -0.099 C  
HETATM   12  O   UNL     1      -6.799   8.844  67.379  1.00  0.00    -0.069 OA 
ENDROOT
BRANCH   4  13
HETATM   13  C   UNL     1      -9.057  14.048  66.906  1.00  0.00    -0.248 C  
BRANCH  13  14
HETATM   14  S   UNL     1     -10.504  15.055  67.312  1.00  0.00    -0.270 SA 
BRANCH  14  15
HETATM   15  C   UNL     1     -11.010  15.716  65.812  1.00  0.00    -0.248 A  
HETATM   16  N   UNL     1     -10.667  16.859  65.269  1.00  0.00    -0.609 NA 
HETATM   17  N   UNL     1     -11.372  16.942  64.091  1.00  0.00    -1.012 NA 
HETATM   18  C   UNL     1     -12.540  13.812  65.119  1.00  0.00    -0.433 C  
HETATM   19  N   UNL     1     -11.897  15.090  64.984  1.00  0.00    -0.293 NA 
HETATM   20  N   UNL     1     -12.126  15.866  63.909  1.00  0.00    -0.750 NA 
ENDBRANCH  14  15
ENDBRANCH  13  14
ENDBRANCH   4  13
BRANCH   8  21
HETATM   21  N   UNL     1      -9.784   8.089  68.818  1.00  0.00    -0.153 N  
HETATM   22  O   UNL     1     -11.205   6.360  68.375  1.00  0.00    -0.320 OA 
HETATM   23  H   UNL     1      -9.420   8.698  69.551  1.00  0.00     0.000 HD 
HETATM   24  C   UNL     1     -10.623   7.065  69.196  1.00  0.00    -0.219 C  
BRANCH  24  25
HETATM   25  C   UNL     1     -10.779   6.899  70.726  1.00  0.00    -0.233 C  
BRANCH  25  26
HETATM   26  O   UNL     1     -10.889   5.488  70.997  1.00  0.00    -0.241 OA 
HETATM   27  O   UNL     1      -8.683   5.459  71.667  1.00  0.00    -0.132 OA 
HETATM   28  C   UNL     1      -9.758   4.915  71.482  1.00  0.00    -0.172 C  
ENDBRANCH  25  26
BRANCH  25  29
HETATM   29  C   UNL     1     -12.004   7.641  71.244  1.00  0.00    -0.330 A  
HETATM   30  C   UNL     1     -11.913   9.011  71.522  1.00  0.00    -0.414 A  
HETATM   31  C   UNL     1     -13.016   9.711  72.015  1.00  0.00    -0.518 A  
HETATM   32  C   UNL     1     -14.226   9.054  72.222  1.00  0.00    -0.432 A  
HETATM   33  C   UNL     1     -14.338   7.697  71.937  1.00  0.00    -0.536 A  
HETATM   34  C   UNL     1     -13.236   6.995  71.451  1.00  0.00    -0.352 A  
ENDBRANCH  25  29
ENDBRANCH  24  25
ENDBRANCH   8  21
TORSDOF 7
ENDMDL
MODEL       12
REMARK 921   NORMALIZED FREE ENERGY PREDICTED BY IDOCK:   -6.54 KCAL/MOL
REMARK 922        TOTAL FREE ENERGY PREDICTED BY IDOCK:  -10.72 KCAL/MOL
REMARK 923 INTER-LIGAND FREE ENERGY PREDICTED BY IDOCK:   -9.63 KCAL/MOL
REMARK 924 INTRA-LIGAND FREE ENERGY PREDICTED BY IDOCK:   -1.08 KCAL/MOL
REMARK 927      BINDING AFFINITY PREDICTED BY RF-SCORE:    0.00 PKD
ROOT
HETATM    1  C   UNL     1     -11.433  12.034  67.236  1.00  0.00    -0.335 C  
HETATM    2  S   UNL     1      -9.720  11.680  66.757  1.00  0.00    -0.206 SA 
HETATM    3  C   UNL     1      -9.801   9.966  67.314  1.00  0.00    -0.182 C  
HETATM    4  C   UNL     1     -10.377   9.778  68.713  1.00  0.00    -0.227 C  
HETATM    5  OXT UNL     1     -10.997   9.708  71.547  1.00  0.00    -0.348 OA 
HETATM    6  CA  UNL     1     -11.167  10.698  69.341  1.00  0.00    -0.270 C  
HETATM    7  C   UNL     1     -11.540  10.514  70.804  1.00  0.00    -0.338 C  
HETATM    8  CA  UNL     1     -11.741  13.549  67.503  1.00  0.00    -0.367 C  
HETATM    9  N   UNL     1     -11.567  11.823  68.666  1.00  0.00    -0.283 N  
HETATM   10  O   UNL     1     -12.576  11.245  71.260  1.00  0.00    -0.387 OA 
HETATM   11  C   UNL     1     -12.081  13.040  68.950  1.00  0.00    -0.168 C  
HETATM   12  O   UNL     1     -12.522  13.463  69.996  1.00  0.00    -0.248 OA 
ENDROOT
BRANCH   4  13
HETATM   13  C   UNL     1      -9.831   8.491  69.332  1.00  0.00    -0.185 C  
BRANCH  13  14
HETATM   14  S   UNL     1     -10.846   7.008  69.120  1.00  0.00    -0.160 SA 
BRANCH  14  15
HETATM   15  C   UNL     1     -10.824   6.241  70.654  1.00  0.00    -0.280 A  
HETATM   16  N   UNL     1      -9.910   5.444  71.152  1.00  0.00    -0.177 NA 
HETATM   17  N   UNL     1     -10.376   5.065  72.388  1.00  0.00    -0.200 NA 
HETATM   18  C   UNL     1     -13.036   7.153  71.503  1.00  0.00    -0.383 C  
HETATM   19  N   UNL     1     -11.830   6.372  71.566  1.00  0.00    -0.318 NA 
HETATM   20  N   UNL     1     -11.548   5.627  72.650  1.00  0.00    -0.297 NA 
ENDBRANCH  14  15
ENDBRANCH  13  14
ENDBRANCH   4  13
BRANCH   8  21
HETATM   21  N   UNL     1     -10.557  14.444  67.402  1.00  0.00    -0.268 N  
HETATM   22  O   UNL     1     -11.088  15.433  65.416  1.00  0.00    -0.343 OA 
HETATM   23  H   UNL     1      -9.847  14.373  68.131  1.00  0.00     0.000 HD 
HETATM   24  C   UNL     1     -10.351  15.361  66.396  1.00  0.00    -0.296 C  
BRANCH  24  25
HETATM   25  C   UNL     1      -9.116  16.268  66.603  1.00  0.00    -0.248 C  
BRANCH  25  26
HETATM   26  O   UNL     1      -8.245  15.604  67.539  1.00  0.00    -0.149 OA 
HETATM   27  O   UNL     1      -6.417  16.432  66.405  1.00  0.00    -0.177 OA 
HETATM   28  C   UNL     1      -6.921  15.799  67.316  1.00  0.00    -0.197 C  
ENDBRANCH  25  26
BRANCH  25  29
HETATM   29  C   UNL     1      -9.515  17.643  67.125  1.00  0.00    -0.267 A  
HETATM   30  C   UNL     1      -9.952  18.623  66.224  1.00  0.00    -0.398 A  
HETATM   31  C   UNL     1     -10.306  19.895  66.675  1.00  0.00    -0.608 A  
HETATM   32  C   UNL     1     -10.244  20.199  68.033  1.00  0.00    -0.493 A  
HETATM   33  C   UNL     1      -9.828  19.233  68.943  1.00  0.00    -0.512 A  
HETATM   34  C   UNL     1      -9.467  17.964  68.494  1.00  0.00    -0.316 A  
ENDBRANCH  25  29
ENDBRANCH  24  25
ENDBRANCH   8  21
TORSDOF 7
ENDMDL
MODEL       13
REMARK 921   NORMALIZED FREE ENERGY PREDICTED BY IDOCK:   -6.53 KCAL/MOL
REMARK 922        TOTAL FREE ENERGY PREDICTED BY IDOCK:  -10.69 KCAL/MOL
REMARK 923 INTER-LIGAND FREE ENERGY PREDICTED BY IDOCK:   -9.33 KCAL/MOL
REMARK 924 INTRA-LIGAND FREE ENERGY PREDICTED BY IDOCK:   -1.36 KCAL/MOL
REMARK 927      BINDING AFFINITY PREDICTED BY RF-SCORE:    0.00 PKD
ROOT
HETATM    1  C   UNL     1     -11.658  11.748  67.251  1.00  0.00    -0.269 C  
HETATM    2  S   UNL     1     -10.045  11.443  66.479  1.00  0.00    -0.222 SA 
HETATM    3  C   UNL     1     -10.003   9.714  66.992  1.00  0.00    -0.206 C  
HETATM    4  C   UNL     1     -10.329   9.478  68.463  1.00  0.00    -0.234 C  
HETATM    5  OXT UNL     1     -10.458   9.323  71.357  1.00  0.00    -0.319 OA 
HETATM    6  CA  UNL     1     -11.016  10.365  69.241  1.00  0.00    -0.242 C  
HETATM    7  C   UNL     1     -11.132  10.136  70.740  1.00  0.00    -0.298 C  
HETATM    8  CA  UNL     1     -11.940  13.249  67.609  1.00  0.00    -0.322 C  
HETATM    9  N   UNL     1     -11.543  11.498  68.677  1.00  0.00    -0.285 N  
HETATM   10  O   UNL     1     -12.087  10.832  71.386  1.00  0.00    -0.307 OA 
HETATM   11  C   UNL     1     -12.021  12.697  69.078  1.00  0.00    -0.236 C  
HETATM   12  O   UNL     1     -12.285  13.083  70.195  1.00  0.00    -0.321 OA 
ENDROOT
BRANCH   4  13
HETATM   13  C   UNL     1      -9.665   8.187  68.943  1.00  0.00    -0.156 C  
BRANCH  13  14
HETATM   14  S   UNL     1     -10.648   6.676  68.787  1.00  0.00    -0.257 SA 
BRANCH  14  15
HETATM   15  C   UNL     1     -10.685   6.015  70.369  1.00  0.00    -0.292 A  
HETATM   16  N   UNL     1      -9.801   5.238  70.948  1.00  0.00    -0.183 NA 
HETATM   17  N   UNL     1     -10.310   4.953  72.192  1.00  0.00    -0.199 NA 
HETATM   18  C   UNL     1     -12.903   7.020  71.087  1.00  0.00    -0.270 C  
HETATM   19  N   UNL     1     -11.715   6.225  71.240  1.00  0.00    -0.289 NA 
HETATM   20  N   UNL     1     -11.479   5.551  72.380  1.00  0.00    -0.244 NA 
ENDBRANCH  14  15
ENDBRANCH  13  14
ENDBRANCH   4  13
BRANCH   8  21
HETATM   21  N   UNL     1     -10.806  14.171  67.336  1.00  0.00    -0.284 N  
HETATM   22  O   UNL     1     -11.641  16.009  68.399  1.00  0.00    -0.364 OA 
HETATM   23  H   UNL     1     -10.040  13.821  66.760  1.00  0.00     0.000 HD 
HETATM   24  C   UNL     1     -10.716  15.463  67.804  1.00  0.00    -0.289 C  
BRANCH  24  25
HETATM   25  C   UNL     1      -9.369  16.159  67.499  1.00  0.00    -0.217 C  
BRANCH  25  26
HETATM   26  O   UNL     1      -8.492  15.910  68.615  1.00  0.00    -0.178 OA 
HETATM   27  O   UNL     1      -7.536  14.161  67.455  1.00  0.00    -0.175 OA 
HETATM   28  C   UNL     1      -7.618  14.888  68.430  1.00  0.00    -0.113 C  
ENDBRANCH  25  26
BRANCH  25  29
HETATM   29  C   UNL     1      -9.552  17.656  67.286  1.00  0.00    -0.271 A  
HETATM   30  C   UNL     1      -9.015  18.556  68.216  1.00  0.00    -0.332 A  
HETATM   31  C   UNL     1      -9.184  19.932  68.053  1.00  0.00    -0.405 A  
HETATM   32  C   UNL     1      -9.878  20.426  66.952  1.00  0.00    -0.572 A  
HETATM   33  C   UNL     1     -10.405  19.548  66.010  1.00  0.00    -0.604 A  
HETATM   34  C   UNL     1     -10.243  18.173  66.174  1.00  0.00    -0.372 A  
ENDBRANCH  25  29
ENDBRANCH  24  25
ENDBRANCH   8  21
TORSDOF 7
ENDMDL
MODEL       14
REMARK 921   NORMALIZED FREE ENERGY PREDICTED BY IDOCK:   -6.49 KCAL/MOL
REMARK 922        TOTAL FREE ENERGY PREDICTED BY IDOCK:  -10.65 KCAL/MOL
REMARK 923 INTER-LIGAND FREE ENERGY PREDICTED BY IDOCK:   -9.50 KCAL/MOL
REMARK 924 INTRA-LIGAND FREE ENERGY PREDICTED BY IDOCK:   -1.15 KCAL/MOL
REMARK 927      BINDING AFFINITY PREDICTED BY RF-SCORE:    0.00 PKD
ROOT
HETATM    1  C   UNL     1     -10.554  11.103  66.852  1.00  0.00    -0.258 C  
HETATM    2  S   UNL     1     -11.422  12.341  67.854  1.00  0.00    -0.350 SA 
HETATM    3  C   UNL     1     -10.587  13.730  67.062  1.00  0.00    -0.278 C  
HETATM    4  C   UNL     1      -9.072  13.588  66.962  1.00  0.00    -0.248 C  
HETATM    5  OXT UNL     1      -6.207  13.346  67.353  1.00  0.00    -0.297 OA 
HETATM    6  CA  UNL     1      -8.412  12.394  67.032  1.00  0.00    -0.170 C  
HETATM    7  C   UNL     1      -6.894  12.363  67.115  1.00  0.00    -0.075 C  
HETATM    8  CA  UNL     1     -10.469   9.677  67.500  1.00  0.00    -0.262 C  
HETATM    9  N   UNL     1      -9.128  11.227  67.097  1.00  0.00    -0.156 N  
HETATM   10  O   UNL     1      -6.298  11.188  66.837  1.00  0.00    -0.090 OA 
HETATM   11  C   UNL     1      -8.920   9.933  67.430  1.00  0.00    -0.135 C  
HETATM   12  O   UNL     1      -7.879   9.353  67.646  1.00  0.00    -0.095 OA 
ENDROOT
BRANCH   4  13
HETATM   13  C   UNL     1      -8.422  14.972  66.908  1.00  0.00    -0.236 C  
BRANCH  13  14
HETATM   14  S   UNL     1      -9.549  16.378  66.747  1.00  0.00    -0.262 SA 
BRANCH  14  15
HETATM   15  C   UNL     1      -8.560  17.668  66.200  1.00  0.00    -0.119 A  
HETATM   16  N   UNL     1      -7.304  17.628  65.825  1.00  0.00    -0.493 NA 
HETATM   17  N   UNL     1      -6.963  18.924  65.518  1.00  0.00    -0.467 NA 
HETATM   18  C   UNL     1     -10.298  19.509  66.386  1.00  0.00    -0.496 C  
HETATM   19  N   UNL     1      -8.999  18.957  66.112  1.00  0.00    -0.470 NA 
HETATM   20  N   UNL     1      -7.992  19.743  65.691  1.00  0.00    -0.380 NA 
ENDBRANCH  14  15
ENDBRANCH  13  14
ENDBRANCH   4  13
BRANCH   8  21
HETATM   21  N   UNL     1     -11.041   9.588  68.870  1.00  0.00    -0.446 N  
HETATM   22  O   UNL     1     -10.532   7.400  69.273  1.00  0.00    -0.213 OA 
HETATM   23  H   UNL     1     -11.516  10.412  69.238  1.00  0.00     0.000 HD 
HETATM   24  C   UNL     1     -10.975   8.473  69.676  1.00  0.00    -0.086 C  
BRANCH  24  25
HETATM   25  C   UNL     1     -11.518   8.689  71.108  1.00  0.00    -0.280 C  
BRANCH  25  26
HETATM   26  O   UNL     1     -11.696  10.107  71.293  1.00  0.00    -0.366 OA 
HETATM   27  O   UNL     1     -13.715   9.704  72.331  1.00  0.00    -0.414 OA 
HETATM   28  C   UNL     1     -12.837  10.454  71.940  1.00  0.00    -0.415 C  
ENDBRANCH  25  26
BRANCH  25  29
HETATM   29  C   UNL     1     -10.565   8.127  72.155  1.00  0.00    -0.358 A  
HETATM   30  C   UNL     1     -11.025   7.160  73.058  1.00  0.00    -0.357 A  
HETATM   31  C   UNL     1     -10.176   6.643  74.038  1.00  0.00    -0.395 A  
HETATM   32  C   UNL     1      -8.854   7.073  74.119  1.00  0.00    -0.223 A  
HETATM   33  C   UNL     1      -8.376   8.021  73.219  1.00  0.00    -0.269 A  
HETATM   34  C   UNL     1      -9.224   8.545  72.244  1.00  0.00    -0.343 A  
ENDBRANCH  25  29
ENDBRANCH  24  25
ENDBRANCH   8  21
TORSDOF 7
ENDMDL
MODEL       15
REMARK 921   NORMALIZED FREE ENERGY PREDICTED BY IDOCK:   -6.46 KCAL/MOL
REMARK 922        TOTAL FREE ENERGY PREDICTED BY IDOCK:  -10.59 KCAL/MOL
REMARK 923 INTER-LIGAND FREE ENERGY PREDICTED BY IDOCK:   -8.99 KCAL/MOL
REMARK 924 INTRA-LIGAND FREE ENERGY PREDICTED BY IDOCK:   -1.60 KCAL/MOL
REMARK 927      BINDING AFFINITY PREDICTED BY RF-SCORE:    0.00 PKD
ROOT
HETATM    1  C   UNL     1     -12.020  14.983  68.785  1.00  0.00    -0.249 C  
HETATM    2  S   UNL     1     -10.846  15.185  70.153  1.00  0.00    -0.209 SA 
HETATM    3  C   UNL     1     -10.531  16.920  69.773  1.00  0.00    -0.078 C  
HETATM    4  C   UNL     1     -10.226  17.205  68.306  1.00  0.00    -0.334 C  
HETATM    5  OXT UNL     1      -9.168  17.431  65.614  1.00  0.00    -0.477 OA 
HETATM    6  CA  UNL     1     -10.575  16.374  67.281  1.00  0.00    -0.293 C  
HETATM    7  C   UNL     1     -10.066  16.642  65.873  1.00  0.00    -0.320 C  
HETATM    8  CA  UNL     1     -12.193  13.508  68.281  1.00  0.00    -0.113 C  
HETATM    9  N   UNL     1     -11.329  15.258  67.538  1.00  0.00    -0.324 N  
HETATM   10  O   UNL     1     -10.705  16.011  64.869  1.00  0.00    -0.576 OA 
HETATM   11  C   UNL     1     -11.652  14.096  66.929  1.00  0.00    -0.391 C  
HETATM   12  O   UNL     1     -11.457  13.748  65.785  1.00  0.00    -0.310 OA 
ENDROOT
BRANCH   4  13
HETATM   13  C   UNL     1      -9.374  18.470  68.188  1.00  0.00    -0.314 C  
BRANCH  13  14
HETATM   14  S   UNL     1      -7.795  18.455  69.070  1.00  0.00    -0.032 SA 
BRANCH  14  15
HETATM   15  C   UNL     1      -6.750  17.525  68.079  1.00  0.00    -0.181 A  
HETATM   16  N   UNL     1      -6.018  17.925  67.067  1.00  0.00    -0.136 NA 
HETATM   17  N   UNL     1      -5.397  16.797  66.584  1.00  0.00    -0.354 NA 
HETATM   18  C   UNL     1      -7.138  15.287  69.212  1.00  0.00    -0.177 C  
HETATM   19  N   UNL     1      -6.577  16.180  68.235  1.00  0.00    -0.120 NA 
HETATM   20  N   UNL     1      -5.733  15.727  67.291  1.00  0.00    -0.336 NA 
ENDBRANCH  14  15
ENDBRANCH  13  14
ENDBRANCH   4  13
BRANCH   8  21
HETATM   21  N   UNL     1     -11.303  12.521  68.950  1.00  0.00    -0.277 N  
HETATM   22  O   UNL     1     -11.812  10.717  67.648  1.00  0.00    -0.505 OA 
HETATM   23  H   UNL     1     -10.780  12.834  69.768  1.00  0.00     0.000 HD 
HETATM   24  C   UNL     1     -11.135  11.216  68.544  1.00  0.00    -0.244 C  
BRANCH  24  25
HETATM   25  C   UNL     1     -10.044  10.442  69.320  1.00  0.00    -0.230 C  
BRANCH  25  26
HETATM   26  O   UNL     1      -9.353   9.604  68.373  1.00  0.00    -0.133 OA 
HETATM   27  O   UNL     1      -7.609  11.111  68.333  1.00  0.00    -0.097 OA 
HETATM   28  C   UNL     1      -8.137  10.067  67.991  1.00  0.00    -0.112 C  
ENDBRANCH  25  26
BRANCH  25  29
HETATM   29  C   UNL     1     -10.648   9.601  70.438  1.00  0.00    -0.354 A  
HETATM   30  C   UNL     1     -11.738  10.099  71.164  1.00  0.00    -0.453 A  
HETATM   31  C   UNL     1     -12.298   9.357  72.205  1.00  0.00    -0.368 A  
HETATM   32  C   UNL     1     -11.786   8.102  72.523  1.00  0.00    -0.438 A  
HETATM   33  C   UNL     1     -10.714   7.584  71.803  1.00  0.00    -0.243 A  
HETATM   34  C   UNL     1     -10.149   8.327  70.767  1.00  0.00    -0.218 A  
ENDBRANCH  25  29
ENDBRANCH  24  25
ENDBRANCH   8  21
TORSDOF 7
ENDMDL
MODEL       16
REMARK 921   NORMALIZED FREE ENERGY PREDICTED BY IDOCK:   -6.45 KCAL/MOL
REMARK 922        TOTAL FREE ENERGY PREDICTED BY IDOCK:  -10.58 KCAL/MOL
REMARK 923 INTER-LIGAND FREE ENERGY PREDICTED BY IDOCK:   -9.61 KCAL/MOL
REMARK 924 INTRA-LIGAND FREE ENERGY PREDICTED BY IDOCK:   -0.97 KCAL/MOL
REMARK 927      BINDING AFFINITY PREDICTED BY RF-SCORE:    0.00 PKD
ROOT
HETATM    1  C   UNL     1     -11.722  14.007  68.358  1.00  0.00    -0.354 C  
HETATM    2  S   UNL     1     -10.100  14.520  68.988  1.00  0.00    -0.134 SA 
HETATM    3  C   UNL     1     -10.315  16.233  68.463  1.00  0.00    -0.261 C  
HETATM    4  C   UNL     1     -10.791  16.403  67.024  1.00  0.00    -0.145 C  
HETATM    5  OXT UNL     1     -11.181  16.494  64.151  1.00  0.00    -1.004 OA 
HETATM    6  CA  UNL     1     -11.426  15.426  66.312  1.00  0.00     0.009 C  
HETATM    7  C   UNL     1     -11.695  15.615  64.828  1.00  0.00    -0.134 C  
HETATM    8  CA  UNL     1     -11.846  12.477  68.034  1.00  0.00    -0.325 C  
HETATM    9  N   UNL     1     -11.759  14.246  66.926  1.00  0.00    -0.391 N  
HETATM   10  O   UNL     1     -12.607  14.796  64.270  1.00  0.00    -0.706 OA 
HETATM   11  C   UNL     1     -12.118  12.992  66.574  1.00  0.00    -0.341 C  
HETATM   12  O   UNL     1     -12.425  12.557  65.486  1.00  0.00    -0.646 OA 
ENDROOT
BRANCH   4  13
HETATM   13  C   UNL     1     -10.334  17.758  66.482  1.00  0.00    -0.345 C  
BRANCH  13  14
HETATM   14  S   UNL     1      -9.106  18.643  67.473  1.00  0.00    -0.281 SA 
BRANCH  14  15
HETATM   15  C   UNL     1      -7.750  18.813  66.436  1.00  0.00    -0.269 A  
HETATM   16  N   UNL     1      -7.371  18.028  65.457  1.00  0.00    -0.502 NA 
HETATM   17  N   UNL     1      -6.209  18.574  64.966  1.00  0.00    -0.393 NA 
HETATM   18  C   UNL     1      -6.844  20.961  67.440  1.00  0.00    -0.375 C  
HETATM   19  N   UNL     1      -6.855  19.837  66.544  1.00  0.00    -0.201 NA 
HETATM   20  N   UNL     1      -5.886  19.679  65.624  1.00  0.00    -0.170 NA 
ENDBRANCH  14  15
ENDBRANCH  13  14
ENDBRANCH   4  13
BRANCH   8  21
HETATM   21  N   UNL     1     -10.587  11.706  68.214  1.00  0.00    -0.197 N  
HETATM   22  O   UNL     1     -11.187  10.578  70.105  1.00  0.00    -0.281 OA 
HETATM   23  H   UNL     1      -9.825  11.883  67.560  1.00  0.00     0.000 HD 
HETATM   24  C   UNL     1     -10.377  10.770  69.202  1.00  0.00    -0.217 C  
BRANCH  24  25
HETATM   25  C   UNL     1      -9.037  10.006  69.082  1.00  0.00    -0.184 C  
BRANCH  25  26
HETATM   26  O   UNL     1      -8.053  10.936  68.588  1.00  0.00    -0.127 OA 
HETATM   27  O   UNL     1      -6.799  10.599  70.493  1.00  0.00    -0.309 OA 
HETATM   28  C   UNL     1      -6.982  11.110  69.402  1.00  0.00    -0.124 C  
ENDBRANCH  25  26
BRANCH  25  29
HETATM   29  C   UNL     1      -9.161   8.810  68.146  1.00  0.00    -0.142 A  
HETATM   30  C   UNL     1     -10.431   8.370  67.752  1.00  0.00    -0.284 A  
HETATM   31  C   UNL     1     -10.572   7.266  66.911  1.00  0.00    -0.375 A  
HETATM   32  C   UNL     1      -9.445   6.597  66.440  1.00  0.00    -0.166 A  
HETATM   33  C   UNL     1      -8.175   7.029  66.808  1.00  0.00    -0.111 A  
HETATM   34  C   UNL     1      -8.032   8.128  67.655  1.00  0.00    -0.122 A  
ENDBRANCH  25  29
ENDBRANCH  24  25
ENDBRANCH   8  21
TORSDOF 7
ENDMDL
MODEL       17
REMARK 921   NORMALIZED FREE ENERGY PREDICTED BY IDOCK:   -6.43 KCAL/MOL
REMARK 922        TOTAL FREE ENERGY PREDICTED BY IDOCK:  -10.56 KCAL/MOL
REMARK 923 INTER-LIGAND FREE ENERGY PREDICTED BY IDOCK:   -9.09 KCAL/MOL
REMARK 924 INTRA-LIGAND FREE ENERGY PREDICTED BY IDOCK:   -1.47 KCAL/MOL
REMARK 927      BINDING AFFINITY PREDICTED BY RF-SCORE:    0.00 PKD
ROOT
HETATM    1  C   UNL     1     -11.749  12.152  68.011  1.00  0.00    -0.344 C  
HETATM    2  S   UNL     1     -10.098  11.758  67.371  1.00  0.00    -0.197 SA 
HETATM    3  C   UNL     1     -10.293   9.986  67.645  1.00  0.00    -0.224 C  
HETATM    4  C   UNL     1     -10.810   9.609  69.029  1.00  0.00    -0.206 C  
HETATM    5  OXT UNL     1     -11.287   9.111  71.848  1.00  0.00    -0.365 OA 
HETATM    6  CA  UNL     1     -11.488  10.466  69.848  1.00  0.00    -0.297 C  
HETATM    7  C   UNL     1     -11.799  10.068  71.282  1.00  0.00    -0.385 C  
HETATM    8  CA  UNL     1     -11.915  13.619  68.541  1.00  0.00    -0.361 C  
HETATM    9  N   UNL     1     -11.826  11.715  69.393  1.00  0.00    -0.326 N  
HETATM   10  O   UNL     1     -12.744  10.786  71.918  1.00  0.00    -0.388 OA 
HETATM   11  C   UNL     1     -12.221  12.902  69.904  1.00  0.00    -0.188 C  
HETATM   12  O   UNL     1     -12.571  13.175  71.032  1.00  0.00    -0.361 OA 
ENDROOT
BRANCH   4  13
HETATM   13  C   UNL     1     -10.343   8.199  69.393  1.00  0.00    -0.218 C  
BRANCH  13  14
HETATM   14  S   UNL     1      -8.614   7.811  69.028  1.00  0.00    -0.135 SA 
BRANCH  14  15
HETATM   15  C   UNL     1      -7.709   8.825  70.073  1.00  0.00    -0.082 A  
HETATM   16  N   UNL     1      -7.175   9.995  69.812  1.00  0.00    -0.109 NA 
HETATM   17  N   UNL     1      -6.523  10.374  70.961  1.00  0.00    -0.332 NA 
HETATM   18  C   UNL     1      -7.786   7.329  72.122  1.00  0.00    -0.090 C  
HETATM   19  N   UNL     1      -7.412   8.490  71.362  1.00  0.00    -0.093 NA 
HETATM   20  N   UNL     1      -6.662   9.462  71.913  1.00  0.00    -0.294 NA 
ENDBRANCH  14  15
ENDBRANCH  13  14
ENDBRANCH   4  13
BRANCH   8  21
HETATM   21  N   UNL     1     -10.667  14.429  68.511  1.00  0.00    -0.245 N  
HETATM   22  O   UNL     1     -11.075  15.550  66.566  1.00  0.00    -0.287 OA 
HETATM   23  H   UNL     1      -9.983  14.270  69.250  1.00  0.00     0.000 HD 
HETATM   24  C   UNL     1     -10.371  15.377  67.558  1.00  0.00    -0.264 C  
BRANCH  24  25
HETATM   25  C   UNL     1      -9.079  16.179  67.836  1.00  0.00    -0.192 C  
BRANCH  25  26
HETATM   26  O   UNL     1      -8.688  15.909  69.197  1.00  0.00    -0.231 OA 
HETATM   27  O   UNL     1      -6.535  15.497  68.483  1.00  0.00    -0.098 OA 
HETATM   28  C   UNL     1      -7.377  15.601  69.358  1.00  0.00    -0.216 C  
ENDBRANCH  25  26
BRANCH  25  29
HETATM   29  C   UNL     1      -9.295  17.673  67.628  1.00  0.00    -0.246 A  
HETATM   30  C   UNL     1     -10.049  18.398  68.560  1.00  0.00    -0.413 A  
HETATM   31  C   UNL     1     -10.277  19.763  68.382  1.00  0.00    -0.568 A  
HETATM   32  C   UNL     1      -9.741  20.425  67.280  1.00  0.00    -0.602 A  
HETATM   33  C   UNL     1      -8.976  19.724  66.353  1.00  0.00    -0.440 A  
HETATM   34  C   UNL     1      -8.753  18.358  66.524  1.00  0.00    -0.291 A  
ENDBRANCH  25  29
ENDBRANCH  24  25
ENDBRANCH   8  21
TORSDOF 7
ENDMDL
MODEL       18
REMARK 921   NORMALIZED FREE ENERGY PREDICTED BY IDOCK:   -6.42 KCAL/MOL
REMARK 922        TOTAL FREE ENERGY PREDICTED BY IDOCK:  -10.55 KCAL/MOL
REMARK 923 INTER-LIGAND FREE ENERGY PREDICTED BY IDOCK:   -9.52 KCAL/MOL
REMARK 924 INTRA-LIGAND FREE ENERGY PREDICTED BY IDOCK:   -1.03 KCAL/MOL
REMARK 927      BINDING AFFINITY PREDICTED BY RF-SCORE:    0.00 PKD
ROOT
HETATM    1  C   UNL     1     -11.509  14.060  66.944  1.00  0.00    -0.356 C  
HETATM    2  S   UNL     1     -10.099  12.935  66.756  1.00  0.00    -0.242 SA 
HETATM    3  C   UNL     1     -10.961  11.549  67.525  1.00  0.00    -0.255 C  
HETATM    4  C   UNL     1     -11.649  11.881  68.845  1.00  0.00    -0.370 C  
HETATM    5  OXT UNL     1     -12.416  12.598  71.550  1.00  0.00    -0.198 OA 
HETATM    6  CA  UNL     1     -11.993  13.146  69.227  1.00  0.00    -0.292 C  
HETATM    7  C   UNL     1     -12.501  13.407  70.637  1.00  0.00    -0.311 C  
HETATM    8  CA  UNL     1     -11.136  15.584  66.957  1.00  0.00    -0.238 C  
HETATM    9  N   UNL     1     -11.813  14.191  68.357  1.00  0.00    -0.348 N  
HETATM   10  O   UNL     1     -13.136  14.576  70.843  1.00  0.00    -0.355 OA 
HETATM   11  C   UNL     1     -11.756  15.540  68.399  1.00  0.00    -0.309 C  
HETATM   12  O   UNL     1     -12.032  16.293  69.308  1.00  0.00    -0.191 OA 
ENDROOT
BRANCH   4  13
HETATM   13  C   UNL     1     -11.766  10.620  69.702  1.00  0.00    -0.296 C  
BRANCH  13  14
HETATM   14  S   UNL     1     -10.227   9.725  70.021  1.00  0.00    -0.276 SA 
BRANCH  14  15
HETATM   15  C   UNL     1     -10.662   8.067  69.941  1.00  0.00    -0.242 A  
HETATM   16  N   UNL     1     -10.526   7.238  68.934  1.00  0.00    -0.205 NA 
HETATM   17  N   UNL     1     -11.061   6.044  69.356  1.00  0.00    -0.390 NA 
HETATM   18  C   UNL     1     -11.590   7.863  72.295  1.00  0.00    -0.350 C  
HETATM   19  N   UNL     1     -11.253   7.402  70.975  1.00  0.00    -0.258 NA 
HETATM   20  N   UNL     1     -11.508   6.135  70.602  1.00  0.00    -0.317 NA 
ENDBRANCH  14  15
ENDBRANCH  13  14
ENDBRANCH   4  13
BRANCH   8  21
HETATM   21  N   UNL     1      -9.675  15.860  66.898  1.00  0.00    -0.226 N  
HETATM   22  O   UNL     1      -9.785  17.867  65.817  1.00  0.00    -0.527 OA 
HETATM   23  H   UNL     1      -9.044  15.147  67.263  1.00  0.00     0.000 HD 
HETATM   24  C   UNL     1      -9.115  17.009  66.387  1.00  0.00    -0.270 C  
BRANCH  24  25
HETATM   25  C   UNL     1      -7.583  17.111  66.577  1.00  0.00    -0.285 C  
BRANCH  25  26
HETATM   26  O   UNL     1      -7.261  16.483  67.833  1.00  0.00    -0.134 OA 
HETATM   27  O   UNL     1      -5.215  15.853  66.979  1.00  0.00    -0.330 OA 
HETATM   28  C   UNL     1      -6.031  15.914  67.882  1.00  0.00    -0.136 C  
ENDBRANCH  25  26
BRANCH  25  29
HETATM   29  C   UNL     1      -7.116  18.561  66.567  1.00  0.00    -0.246 A  
HETATM   30  C   UNL     1      -6.485  19.075  65.427  1.00  0.00    -0.308 A  
HETATM   31  C   UNL     1      -6.032  20.394  65.399  1.00  0.00    -0.251 A  
HETATM   32  C   UNL     1      -6.218  21.222  66.504  1.00  0.00    -0.344 A  
HETATM   33  C   UNL     1      -6.857  20.733  67.639  1.00  0.00    -0.386 A  
HETATM   34  C   UNL     1      -7.305  19.413  67.671  1.00  0.00    -0.277 A  
ENDBRANCH  25  29
ENDBRANCH  24  25
ENDBRANCH   8  21
TORSDOF 7
ENDMDL
MODEL       19
REMARK 921   NORMALIZED FREE ENERGY PREDICTED BY IDOCK:   -6.41 KCAL/MOL
REMARK 922        TOTAL FREE ENERGY PREDICTED BY IDOCK:  -10.52 KCAL/MOL
REMARK 923 INTER-LIGAND FREE ENERGY PREDICTED BY IDOCK:   -8.96 KCAL/MOL
REMARK 924 INTRA-LIGAND FREE ENERGY PREDICTED BY IDOCK:   -1.56 KCAL/MOL
REMARK 927      BINDING AFFINITY PREDICTED BY RF-SCORE:    0.00 PKD
ROOT
HETATM    1  C   UNL     1     -11.279  16.672  67.467  1.00  0.00     0.051 C  
HETATM    2  S   UNL     1     -10.247  16.386  66.003  1.00  0.00    -0.361 SA 
HETATM    3  C   UNL     1     -11.308  15.068  65.376  1.00  0.00    -0.328 C  
HETATM    4  C   UNL     1     -11.681  14.008  66.407  1.00  0.00    -0.407 C  
HETATM    5  OXT UNL     1     -11.822  11.867  68.360  1.00  0.00    -0.329 OA 
HETATM    6  CA  UNL     1     -11.629  14.206  67.756  1.00  0.00    -0.347 C  
HETATM    7  C   UNL     1     -11.835  13.039  68.709  1.00  0.00    -0.317 C  
HETATM    8  CA  UNL     1     -10.531  17.334  68.677  1.00  0.00    -0.356 C  
HETATM    9  N   UNL     1     -11.322  15.449  68.248  1.00  0.00    -0.334 N  
HETATM   10  O   UNL     1     -12.112  13.347  69.990  1.00  0.00    -0.326 OA 
HETATM   11  C   UNL     1     -10.917  16.001  69.414  1.00  0.00    -0.321 C  
HETATM   12  O   UNL     1     -10.852  15.505  70.517  1.00  0.00    -0.316 OA 
ENDROOT
BRANCH   4  13
HETATM   13  C   UNL     1     -11.984  12.684  65.704  1.00  0.00    -0.452 C  
BRANCH  13  14
HETATM   14  S   UNL     1     -10.653  11.991  64.694  1.00  0.00    -0.326 SA 
BRANCH  14  15
HETATM   15  C   UNL     1      -9.869  10.864  65.721  1.00  0.00    -0.237 A  
HETATM   16  N   UNL     1     -10.034   9.564  65.780  1.00  0.00    -0.295 NA 
HETATM   17  N   UNL     1      -9.208   9.126  66.788  1.00  0.00    -0.149 NA 
HETATM   18  C   UNL     1      -8.408  12.524  66.967  1.00  0.00    -0.144 C  
HETATM   19  N   UNL     1      -8.946  11.228  66.658  1.00  0.00    -0.170 NA 
HETATM   20  N   UNL     1      -8.540  10.135  67.330  1.00  0.00    -0.122 NA 
ENDBRANCH  14  15
ENDBRANCH  13  14
ENDBRANCH   4  13
BRANCH   8  21
HETATM   21  N   UNL     1      -9.075  17.545  68.460  1.00  0.00    -0.274 N  
HETATM   22  O   UNL     1      -9.086  19.826  68.504  1.00  0.00    -0.324 OA 
HETATM   23  H   UNL     1      -8.495  16.720  68.307  1.00  0.00     0.000 HD 
HETATM   24  C   UNL     1      -8.454  18.774  68.451  1.00  0.00    -0.342 C  
BRANCH  24  25
HETATM   25  C   UNL     1      -6.912  18.708  68.350  1.00  0.00    -0.260 C  
BRANCH  25  26
HETATM   26  O   UNL     1      -6.375  19.483  69.440  1.00  0.00    -0.289 OA 
HETATM   27  O   UNL     1      -5.520  17.555  70.370  1.00  0.00    -0.241 OA 
HETATM   28  C   UNL     1      -5.687  18.762  70.361  1.00  0.00    -0.192 C  
ENDBRANCH  25  26
BRANCH  25  29
HETATM   29  C   UNL     1      -6.418  19.250  67.014  1.00  0.00    -0.195 A  
HETATM   30  C   UNL     1      -6.398  18.408  65.894  1.00  0.00    -0.281 A  
HETATM   31  C   UNL     1      -5.933  18.875  64.663  1.00  0.00    -0.268 A  
HETATM   32  C   UNL     1      -5.499  20.191  64.532  1.00  0.00    -0.222 A  
HETATM   33  C   UNL     1      -5.527  21.045  65.630  1.00  0.00    -0.260 A  
HETATM   34  C   UNL     1      -5.984  20.580  66.862  1.00  0.00    -0.228 A  
ENDBRANCH  25  29
ENDBRANCH  24  25
ENDBRANCH   8  21
TORSDOF 7
ENDMDL
MODEL       20
REMARK 921   NORMALIZED FREE ENERGY PREDICTED BY IDOCK:   -6.39 KCAL/MOL
REMARK 922        TOTAL FREE ENERGY PREDICTED BY IDOCK:  -10.50 KCAL/MOL
REMARK 923 INTER-LIGAND FREE ENERGY PREDICTED BY IDOCK:   -9.17 KCAL/MOL
REMARK 924 INTRA-LIGAND FREE ENERGY PREDICTED BY IDOCK:   -1.33 KCAL/MOL
REMARK 927      BINDING AFFINITY PREDICTED BY RF-SCORE:    0.00 PKD
ROOT
HETATM    1  C   UNL     1     -11.383  13.197  67.389  1.00  0.00    -0.306 C  
HETATM    2  S   UNL     1      -9.634  13.385  67.830  1.00  0.00    -0.222 SA 
HETATM    3  C   UNL     1      -9.713  15.187  67.828  1.00  0.00    -0.211 C  
HETATM    4  C   UNL     1     -10.376  15.794  66.596  1.00  0.00    -0.292 C  
HETATM    5  OXT UNL     1     -11.182  16.725  63.969  1.00  0.00    -1.089 OA 
HETATM    6  CA  UNL     1     -11.227  15.110  65.776  1.00  0.00    -0.287 C  
HETATM    7  C   UNL     1     -11.692  15.732  64.469  1.00  0.00    -0.191 C  
HETATM    8  CA  UNL     1     -11.742  11.836  66.696  1.00  0.00    -0.093 C  
HETATM    9  N   UNL     1     -11.607  13.834  66.103  1.00  0.00    -0.339 N  
HETATM   10  O   UNL     1     -12.772  15.177  63.886  1.00  0.00    -0.759 OA 
HETATM   11  C   UNL     1     -12.166  12.762  65.500  1.00  0.00    -0.463 C  
HETATM   12  O   UNL     1     -12.686  12.678  64.409  1.00  0.00    -0.656 OA 
ENDROOT
BRANCH   4  13
HETATM   13  C   UNL     1      -9.843  17.208  66.362  1.00  0.00    -0.300 C  
BRANCH  13  14
HETATM   14  S   UNL     1     -10.132  18.402  67.690  1.00  0.00    -0.379 SA 
BRANCH  14  15
HETATM   15  C   UNL     1      -8.766  19.439  67.648  1.00  0.00    -0.309 A  
HETATM   16  N   UNL     1      -8.669  20.637  67.123  1.00  0.00    -0.275 NA 
HETATM   17  N   UNL     1      -7.365  21.026  67.314  1.00  0.00    -0.399 NA 
HETATM   18  C   UNL     1      -7.156  17.902  68.869  1.00  0.00    -0.264 C  
HETATM   19  N   UNL     1      -7.553  19.094  68.170  1.00  0.00    -0.275 NA 
HETATM   20  N   UNL     1      -6.675  20.090  67.953  1.00  0.00    -0.250 NA 
ENDBRANCH  14  15
ENDBRANCH  13  14
ENDBRANCH   4  13
BRANCH   8  21
HETATM   21  N   UNL     1     -10.575  10.951  66.436  1.00  0.00    -0.250 N  
HETATM   22  O   UNL     1     -10.977   9.422  68.082  1.00  0.00    -0.166 OA 
HETATM   23  H   UNL     1      -9.921  11.233  65.707  1.00  0.00     0.000 HD 
HETATM   24  C   UNL     1     -10.316   9.778  67.110  1.00  0.00    -0.248 C  
BRANCH  24  25
HETATM   25  C   UNL     1      -9.120   8.972  66.550  1.00  0.00    -0.163 C  
BRANCH  25  26
HETATM   26  O   UNL     1      -9.039   7.744  67.299  1.00  0.00    -0.128 OA 
HETATM   27  O   UNL     1      -8.679   6.587  65.338  1.00  0.00    -0.115 OA 
HETATM   28  C   UNL     1      -8.794   6.639  66.550  1.00  0.00    -0.139 C  
ENDBRANCH  25  26
BRANCH  25  29
HETATM   29  C   UNL     1      -7.819   9.756  66.663  1.00  0.00    -0.109 A  
HETATM   30  C   UNL     1      -7.068  10.016  65.509  1.00  0.00    -0.132 A  
HETATM   31  C   UNL     1      -5.864  10.716  65.587  1.00  0.00    -0.133 A  
HETATM   32  C   UNL     1      -5.401  11.178  66.817  1.00  0.00    -0.094 A  
HETATM   33  C   UNL     1      -6.142  10.943  67.971  1.00  0.00    -0.049 A  
HETATM   34  C   UNL     1      -7.343  10.238  67.896  1.00  0.00    -0.087 A  
ENDBRANCH  25  29
ENDBRANCH  24  25
ENDBRANCH   8  21
TORSDOF 7
ENDMDL
MODEL       21
REMARK 921   NORMALIZED FREE ENERGY PREDICTED BY IDOCK:   -6.39 KCAL/MOL
REMARK 922        TOTAL FREE ENERGY PREDICTED BY IDOCK:  -10.50 KCAL/MOL
REMARK 923 INTER-LIGAND FREE ENERGY PREDICTED BY IDOCK:   -9.32 KCAL/MOL
REMARK 924 INTRA-LIGAND FREE ENERGY PREDICTED BY IDOCK:   -1.18 KCAL/MOL
REMARK 927      BINDING AFFINITY PREDICTED BY RF-SCORE:    0.00 PKD
ROOT
HETATM    1  C   UNL     1     -11.773  13.398  67.877  1.00  0.00    -0.361 C  
HETATM    2  S   UNL     1     -10.328  12.306  67.970  1.00  0.00    -0.220 SA 
HETATM    3  C   UNL     1     -11.211  11.032  68.892  1.00  0.00    -0.265 C  
HETATM    4  C   UNL     1     -12.001  11.546  70.091  1.00  0.00    -0.452 C  
HETATM    5  OXT UNL     1     -12.978  12.658  72.587  1.00  0.00    -0.182 OA 
HETATM    6  CA  UNL     1     -12.400  12.843  70.240  1.00  0.00    -0.223 C  
HETATM    7  C   UNL     1     -13.015  13.307  71.551  1.00  0.00    -0.337 C  
HETATM    8  CA  UNL     1     -11.437  14.916  67.669  1.00  0.00    -0.352 C  
HETATM    9  N   UNL     1     -12.181  13.741  69.227  1.00  0.00    -0.318 N  
HETATM   10  O   UNL     1     -13.690  14.472  71.522  1.00  0.00    -0.366 OA 
HETATM   11  C   UNL     1     -12.159  15.081  69.055  1.00  0.00    -0.208 C  
HETATM   12  O   UNL     1     -12.517  15.959  69.809  1.00  0.00    -0.220 OA 
ENDROOT
BRANCH   4  13
HETATM   13  C   UNL     1     -12.150  10.434  71.131  1.00  0.00    -0.386 C  
BRANCH  13  14
HETATM   14  S   UNL     1     -11.382   8.848  70.722  1.00  0.00    -0.277 SA 
BRANCH  14  15
HETATM   15  C   UNL     1      -9.902   8.845  71.588  1.00  0.00    -0.317 A  
HETATM   16  N   UNL     1      -8.760   9.396  71.252  1.00  0.00    -0.261 NA 
HETATM   17  N   UNL     1      -7.878   9.075  72.257  1.00  0.00    -0.313 NA 
HETATM   18  C   UNL     1     -10.695   7.482  73.578  1.00  0.00    -0.244 C  
HETATM   19  N   UNL     1      -9.741   8.207  72.785  1.00  0.00    -0.273 NA 
HETATM   20  N   UNL     1      -8.468   8.349  73.197  1.00  0.00    -0.362 NA 
ENDBRANCH  14  15
ENDBRANCH  13  14
ENDBRANCH   4  13
BRANCH   8  21
HETATM   21  N   UNL     1      -9.983  15.229  67.666  1.00  0.00    -0.221 N  
HETATM   22  O   UNL     1      -9.917  16.362  65.687  1.00  0.00    -0.469 OA 
HETATM   23  H   UNL     1      -9.418  14.860  68.431  1.00  0.00     0.000 HD 
HETATM   24  C   UNL     1      -9.345  15.981  66.705  1.00  0.00    -0.243 C  
BRANCH  24  25
HETATM   25  C   UNL     1      -7.859  16.281  67.011  1.00  0.00    -0.218 C  
BRANCH  25  26
HETATM   26  O   UNL     1      -7.525  15.600  68.237  1.00  0.00    -0.112 OA 
HETATM   27  O   UNL     1      -5.711  14.635  67.191  1.00  0.00    -0.171 OA 
HETATM   28  C   UNL     1      -6.411  14.829  68.170  1.00  0.00    -0.138 C  
ENDBRANCH  25  26
BRANCH  25  29
HETATM   29  C   UNL     1      -7.610  17.778  67.145  1.00  0.00    -0.223 A  
HETATM   30  C   UNL     1      -7.286  18.527  66.007  1.00  0.00    -0.290 A  
HETATM   31  C   UNL     1      -7.035  19.896  66.105  1.00  0.00    -0.267 A  
HETATM   32  C   UNL     1      -7.120  20.537  67.339  1.00  0.00    -0.369 A  
HETATM   33  C   UNL     1      -7.456  19.811  68.477  1.00  0.00    -0.347 A  
HETATM   34  C   UNL     1      -7.700  18.441  68.382  1.00  0.00    -0.314 A  
ENDBRANCH  25  29
ENDBRANCH  24  25
ENDBRANCH   8  21
TORSDOF 7
ENDMDL
MODEL       22
REMARK 921   NORMALIZED FREE ENERGY PREDICTED BY IDOCK:   -6.39 KCAL/MOL
REMARK 922        TOTAL FREE ENERGY PREDICTED BY IDOCK:  -10.50 KCAL/MOL
REMARK 923 INTER-LIGAND FREE ENERGY PREDICTED BY IDOCK:   -8.94 KCAL/MOL
REMARK 924 INTRA-LIGAND FREE ENERGY PREDICTED BY IDOCK:   -1.55 KCAL/MOL
REMARK 927      BINDING AFFINITY PREDICTED BY RF-SCORE:    0.00 PKD
ROOT
HETATM    1  C   UNL     1      -9.246  12.436  66.517  1.00  0.00    -0.215 C  
HETATM    2  S   UNL     1      -7.752  12.963  67.400  1.00  0.00    -0.132 SA 
HETATM    3  C   UNL     1      -7.530  11.365  68.206  1.00  0.00    -0.101 C  
HETATM    4  C   UNL     1      -8.787  10.804  68.864  1.00  0.00    -0.154 C  
HETATM    5  OXT UNL     1     -11.125  10.196  70.470  1.00  0.00    -0.294 OA 
HETATM    6  CA  UNL     1     -10.055  11.191  68.536  1.00  0.00    -0.201 C  
HETATM    7  C   UNL     1     -11.236  10.722  69.371  1.00  0.00    -0.276 C  
HETATM    8  CA  UNL     1     -10.202  13.605  66.090  1.00  0.00    -0.304 C  
HETATM    9  N   UNL     1     -10.252  12.058  67.493  1.00  0.00    -0.196 N  
HETATM   10  O   UNL     1     -12.456  10.844  68.814  1.00  0.00    -0.431 OA 
HETATM   11  C   UNL     1     -11.228  12.867  67.024  1.00  0.00    -0.288 C  
HETATM   12  O   UNL     1     -12.391  12.939  67.355  1.00  0.00    -0.286 OA 
ENDROOT
BRANCH   4  13
HETATM   13  C   UNL     1      -8.400   9.866  70.008  1.00  0.00    -0.168 C  
BRANCH  13  14
HETATM   14  S   UNL     1      -8.019   8.159  69.549  1.00  0.00    -0.115 SA 
BRANCH  14  15
HETATM   15  C   UNL     1      -9.490   7.307  69.777  1.00  0.00    -0.149 A  
HETATM   16  N   UNL     1      -9.919   6.697  70.856  1.00  0.00    -0.187 NA 
HETATM   17  N   UNL     1     -11.127   6.137  70.516  1.00  0.00    -0.325 NA 
HETATM   18  C   UNL     1     -10.425   7.645  67.441  1.00  0.00    -0.297 C  
HETATM   19  N   UNL     1     -10.419   7.147  68.790  1.00  0.00    -0.199 NA 
HETATM   20  N   UNL     1     -11.441   6.406  69.255  1.00  0.00    -0.345 NA 
ENDBRANCH  14  15
ENDBRANCH  13  14
ENDBRANCH   4  13
BRANCH   8  21
HETATM   21  N   UNL     1      -9.772  14.951  66.552  1.00  0.00    -0.261 N  
HETATM   22  O   UNL     1     -10.664  16.163  64.836  1.00  0.00    -0.612 OA 
HETATM   23  H   UNL     1      -9.203  15.003  67.397  1.00  0.00     0.000 HD 
HETATM   24  C   UNL     1     -10.089  16.134  65.921  1.00  0.00    -0.354 C  
BRANCH  24  25
HETATM   25  C   UNL     1      -9.643  17.403  66.685  1.00  0.00    -0.274 C  
BRANCH  25  26
HETATM   26  O   UNL     1      -9.726  18.511  65.766  1.00  0.00    -0.468 OA 
HETATM   27  O   UNL     1     -11.124  19.606  67.236  1.00  0.00    -0.417 OA 
HETATM   28  C   UNL     1     -10.491  19.545  66.196  1.00  0.00    -0.518 C  
ENDBRANCH  25  26
BRANCH  25  29
HETATM   29  C   UNL     1      -8.225  17.259  67.223  1.00  0.00    -0.213 A  
HETATM   30  C   UNL     1      -8.009  17.262  68.607  1.00  0.00    -0.267 A  
HETATM   31  C   UNL     1      -6.718  17.150  69.126  1.00  0.00    -0.238 A  
HETATM   32  C   UNL     1      -5.629  17.018  68.269  1.00  0.00    -0.123 A  
HETATM   33  C   UNL     1      -5.826  16.997  66.891  1.00  0.00    -0.225 A  
HETATM   34  C   UNL     1      -7.114  17.116  66.371  1.00  0.00    -0.310 A  
ENDBRANCH  25  29
ENDBRANCH  24  25
ENDBRANCH   8  21
TORSDOF 7
ENDMDL
MODEL       23
REMARK 921   NORMALIZED FREE ENERGY PREDICTED BY IDOCK:   -6.37 KCAL/MOL
REMARK 922        TOTAL FREE ENERGY PREDICTED BY IDOCK:  -10.47 KCAL/MOL
REMARK 923 INTER-LIGAND FREE ENERGY PREDICTED BY IDOCK:   -9.24 KCAL/MOL
REMARK 924 INTRA-LIGAND FREE ENERGY PREDICTED BY IDOCK:   -1.24 KCAL/MOL
REMARK 927      BINDING AFFINITY PREDICTED BY RF-SCORE:    0.00 PKD
ROOT
HETATM    1  C   UNL     1     -11.771  14.488  67.676  1.00  0.00    -0.382 C  
HETATM    2  S   UNL     1     -10.402  13.445  67.104  1.00  0.00    -0.247 SA 
HETATM    3  C   UNL     1     -11.259  11.909  67.506  1.00  0.00    -0.296 C  
HETATM    4  C   UNL     1     -11.869  11.868  68.903  1.00  0.00    -0.366 C  
HETATM    5  OXT UNL     1     -12.476  11.811  71.740  1.00  0.00    -0.116 OA 
HETATM    6  CA  UNL     1     -12.159  12.980  69.640  1.00  0.00    -0.241 C  
HETATM    7  C   UNL     1     -12.587  12.843  71.093  1.00  0.00    -0.281 C  
HETATM    8  CA  UNL     1     -11.359  15.944  68.090  1.00  0.00    -0.311 C  
HETATM    9  N   UNL     1     -11.998  14.223  69.085  1.00  0.00    -0.335 N  
HETATM   10  O   UNL     1     -13.181  13.915  71.652  1.00  0.00    -0.338 OA 
HETATM   11  C   UNL     1     -11.905  15.507  69.497  1.00  0.00    -0.372 C  
HETATM   12  O   UNL     1     -12.114  15.980  70.592  1.00  0.00    -0.361 OA 
ENDROOT
BRANCH   4  13
HETATM   13  C   UNL     1     -11.973  10.419  69.382  1.00  0.00    -0.079 C  
BRANCH  13  14
HETATM   14  S   UNL     1     -10.412   9.590  69.770  1.00  0.00    -0.248 SA 
BRANCH  14  15
HETATM   15  C   UNL     1     -10.801   8.497  71.033  1.00  0.00    -0.241 A  
HETATM   16  N   UNL     1     -10.852   8.729  72.323  1.00  0.00    -0.324 NA 
HETATM   17  N   UNL     1     -11.168   7.526  72.908  1.00  0.00    -0.356 NA 
HETATM   18  C   UNL     1     -11.194   6.452  69.581  1.00  0.00    -0.418 C  
HETATM   19  N   UNL     1     -11.096   7.183  70.816  1.00  0.00    -0.259 NA 
HETATM   20  N   UNL     1     -11.319   6.575  71.995  1.00  0.00    -0.271 NA 
ENDBRANCH  14  15
ENDBRANCH  13  14
ENDBRANCH   4  13
BRANCH   8  21
HETATM   21  N   UNL     1      -9.897  16.211  68.027  1.00  0.00    -0.229 N  
HETATM   22  O   UNL     1      -9.919  18.274  69.001  1.00  0.00    -0.357 OA 
HETATM   23  H   UNL     1      -9.308  15.515  67.570  1.00  0.00     0.000 HD 
HETATM   24  C   UNL     1      -9.281  17.329  68.543  1.00  0.00    -0.273 C  
BRANCH  24  25
HETATM   25  C   UNL     1      -7.737  17.295  68.476  1.00  0.00    -0.261 C  
BRANCH  25  26
HETATM   26  O   UNL     1      -7.267  16.651  69.676  1.00  0.00    -0.116 OA 
HETATM   27  O   UNL     1      -6.444  14.913  68.405  1.00  0.00    -0.093 OA 
HETATM   28  C   UNL     1      -6.622  15.475  69.471  1.00  0.00    -0.172 C  
ENDBRANCH  25  26
BRANCH  25  29
HETATM   29  C   UNL     1      -7.154  18.698  68.357  1.00  0.00    -0.291 A  
HETATM   30  C   UNL     1      -7.279  19.397  67.150  1.00  0.00    -0.231 A  
HETATM   31  C   UNL     1      -6.738  20.676  67.010  1.00  0.00    -0.343 A  
HETATM   32  C   UNL     1      -6.079  21.279  68.078  1.00  0.00    -0.325 A  
HETATM   33  C   UNL     1      -5.960  20.605  69.290  1.00  0.00    -0.360 A  
HETATM   34  C   UNL     1      -6.493  19.325  69.430  1.00  0.00    -0.346 A  
ENDBRANCH  25  29
ENDBRANCH  24  25
ENDBRANCH   8  21
TORSDOF 7
ENDMDL
MODEL       24
REMARK 921   NORMALIZED FREE ENERGY PREDICTED BY IDOCK:   -6.36 KCAL/MOL
REMARK 922        TOTAL FREE ENERGY PREDICTED BY IDOCK:  -10.46 KCAL/MOL
REMARK 923 INTER-LIGAND FREE ENERGY PREDICTED BY IDOCK:   -9.32 KCAL/MOL
REMARK 924 INTRA-LIGAND FREE ENERGY PREDICTED BY IDOCK:   -1.14 KCAL/MOL
REMARK 927      BINDING AFFINITY PREDICTED BY RF-SCORE:    0.00 PKD
ROOT
HETATM    1  C   UNL     1     -11.235  13.263  67.502  1.00  0.00    -0.281 C  
HETATM    2  S   UNL     1      -9.562  13.706  68.045  1.00  0.00    -0.221 SA 
HETATM    3  C   UNL     1      -9.898  15.478  68.004  1.00  0.00    -0.212 C  
HETATM    4  C   UNL     1     -10.563  15.970  66.723  1.00  0.00    -0.297 C  
HETATM    5  OXT UNL     1     -11.329  16.749  64.035  1.00  0.00    -1.153 OA 
HETATM    6  CA  UNL     1     -11.255  15.163  65.866  1.00  0.00    -0.280 C  
HETATM    7  C   UNL     1     -11.722  15.698  64.521  1.00  0.00    -0.220 C  
HETATM    8  CA  UNL     1     -11.351  11.858  66.816  1.00  0.00    -0.330 C  
HETATM    9  N   UNL     1     -11.467  13.848  66.194  1.00  0.00    -0.335 N  
HETATM   10  O   UNL     1     -12.673  14.987  63.886  1.00  0.00    -0.775 OA 
HETATM   11  C   UNL     1     -11.829  12.701  65.579  1.00  0.00    -0.431 C  
HETATM   12  O   UNL     1     -12.262  12.532  64.460  1.00  0.00    -0.412 OA 
ENDROOT
BRANCH   4  13
HETATM   13  C   UNL     1     -10.225  17.444  66.494  1.00  0.00    -0.329 C  
BRANCH  13  14
HETATM   14  S   UNL     1     -10.041  18.462  67.978  1.00  0.00    -0.387 SA 
BRANCH  14  15
HETATM   15  C   UNL     1      -8.640  19.407  67.686  1.00  0.00    -0.305 A  
HETATM   16  N   UNL     1      -8.567  20.649  67.271  1.00  0.00    -0.290 NA 
HETATM   17  N   UNL     1      -7.226  20.929  67.158  1.00  0.00    -0.349 NA 
HETATM   18  C   UNL     1      -6.924  17.640  68.302  1.00  0.00    -0.220 C  
HETATM   19  N   UNL     1      -7.372  18.928  67.846  1.00  0.00    -0.238 NA 
HETATM   20  N   UNL     1      -6.488  19.884  67.506  1.00  0.00    -0.203 NA 
ENDBRANCH  14  15
ENDBRANCH  13  14
ENDBRANCH   4  13
BRANCH   8  21
HETATM   21  N   UNL     1     -10.056  11.148  66.643  1.00  0.00    -0.210 N  
HETATM   22  O   UNL     1     -10.761   9.068  67.262  1.00  0.00    -0.269 OA 
HETATM   23  H   UNL     1      -9.244  11.703  66.374  1.00  0.00     0.000 HD 
HETATM   24  C   UNL     1      -9.874   9.794  66.821  1.00  0.00    -0.208 C  
BRANCH  24  25
HETATM   25  C   UNL     1      -8.465   9.284  66.438  1.00  0.00    -0.123 C  
BRANCH  25  26
HETATM   26  O   UNL     1      -7.524   9.901  67.338  1.00  0.00    -0.090 OA 
HETATM   27  O   UNL     1      -7.495   7.975  68.605  1.00  0.00    -0.093 OA 
HETATM   28  C   UNL     1      -7.119   9.109  68.362  1.00  0.00    -0.073 C  
ENDBRANCH  25  26
BRANCH  25  29
HETATM   29  C   UNL     1      -8.125   9.623  64.992  1.00  0.00    -0.127 A  
HETATM   30  C   UNL     1      -6.810   9.971  64.656  1.00  0.00    -0.130 A  
HETATM   31  C   UNL     1      -6.476  10.303  63.342  1.00  0.00    -0.113 A  
HETATM   32  C   UNL     1      -7.448  10.277  62.345  1.00  0.00    -0.154 A  
HETATM   33  C   UNL     1      -8.755   9.918  62.657  1.00  0.00    -0.219 A  
HETATM   34  C   UNL     1      -9.092   9.593  63.971  1.00  0.00    -0.246 A  
ENDBRANCH  25  29
ENDBRANCH  24  25
ENDBRANCH   8  21
TORSDOF 7
ENDMDL
MODEL       25
REMARK 921   NORMALIZED FREE ENERGY PREDICTED BY IDOCK:   -6.36 KCAL/MOL
REMARK 922        TOTAL FREE ENERGY PREDICTED BY IDOCK:  -10.46 KCAL/MOL
REMARK 923 INTER-LIGAND FREE ENERGY PREDICTED BY IDOCK:   -9.35 KCAL/MOL
REMARK 924 INTRA-LIGAND FREE ENERGY PREDICTED BY IDOCK:   -1.11 KCAL/MOL
REMARK 927      BINDING AFFINITY PREDICTED BY RF-SCORE:    0.00 PKD
ROOT
HETATM    1  C   UNL     1     -11.650  13.428  67.685  1.00  0.00    -0.340 C  
HETATM    2  S   UNL     1      -9.946  13.686  68.251  1.00  0.00    -0.236 SA 
HETATM    3  C   UNL     1     -10.049  15.480  68.095  1.00  0.00    -0.218 C  
HETATM    4  C   UNL     1     -10.616  15.973  66.768  1.00  0.00    -0.297 C  
HETATM    5  OXT UNL     1     -11.215  16.674  64.017  1.00  0.00    -1.052 OA 
HETATM    6  CA  UNL     1     -11.387  15.209  65.940  1.00  0.00    -0.225 C  
HETATM    7  C   UNL     1     -11.751  15.714  64.553  1.00  0.00    -0.220 C  
HETATM    8  CA  UNL     1     -11.932  12.009  67.079  1.00  0.00    -0.023 C  
HETATM    9  N   UNL     1     -11.775  13.955  66.338  1.00  0.00    -0.363 N  
HETATM   10  O   UNL     1     -12.772  15.093  63.931  1.00  0.00    -0.759 OA 
HETATM   11  C   UNL     1     -12.268  12.827  65.781  1.00  0.00    -0.408 C  
HETATM   12  O   UNL     1     -12.695  12.646  64.661  1.00  0.00    -0.643 OA 
ENDROOT
BRANCH   4  13
HETATM   13  C   UNL     1     -10.085  17.374  66.464  1.00  0.00    -0.320 C  
BRANCH  13  14
HETATM   14  S   UNL     1      -8.714  17.951  67.493  1.00  0.00    -0.246 SA 
BRANCH  14  15
HETATM   15  C   UNL     1      -7.451  18.293  66.384  1.00  0.00    -0.251 A  
HETATM   16  N   UNL     1      -7.371  19.273  65.517  1.00  0.00    -0.447 NA 
HETATM   17  N   UNL     1      -6.189  19.083  64.843  1.00  0.00    -0.402 NA 
HETATM   18  C   UNL     1      -5.942  16.348  67.006  1.00  0.00    -0.073 C  
HETATM   19  N   UNL     1      -6.334  17.517  66.267  1.00  0.00    -0.234 NA 
HETATM   20  N   UNL     1      -5.548  18.013  65.294  1.00  0.00    -0.112 NA 
ENDBRANCH  14  15
ENDBRANCH  13  14
ENDBRANCH   4  13
BRANCH   8  21
HETATM   21  N   UNL     1     -10.736  11.129  66.988  1.00  0.00    -0.255 N  
HETATM   22  O   UNL     1     -11.026  10.012  68.956  1.00  0.00    -0.223 OA 
HETATM   23  H   UNL     1     -10.115  11.257  66.189  1.00  0.00     0.000 HD 
HETATM   24  C   UNL     1     -10.408  10.155  67.904  1.00  0.00    -0.194 C  
BRANCH  24  25
HETATM   25  C   UNL     1      -9.195   9.284  67.502  1.00  0.00    -0.124 C  
BRANCH  25  26
HETATM   26  O   UNL     1      -8.959   9.496  66.096  1.00  0.00    -0.145 OA 
HETATM   27  O   UNL     1      -6.725   9.855  66.539  1.00  0.00    -0.077 OA 
HETATM   28  C   UNL     1      -7.666   9.753  65.772  1.00  0.00    -0.110 C  
ENDBRANCH  25  26
BRANCH  25  29
HETATM   29  C   UNL     1      -9.450   7.809  67.786  1.00  0.00    -0.163 A  
HETATM   30  C   UNL     1     -10.439   7.129  67.063  1.00  0.00    -0.392 A  
HETATM   31  C   UNL     1     -10.705   5.783  67.317  1.00  0.00    -0.345 A  
HETATM   32  C   UNL     1      -9.976   5.095  68.284  1.00  0.00    -0.208 A  
HETATM   33  C   UNL     1      -8.979   5.751  68.999  1.00  0.00    -0.117 A  
HETATM   34  C   UNL     1      -8.717   7.098  68.753  1.00  0.00    -0.124 A  
ENDBRANCH  25  29
ENDBRANCH  24  25
ENDBRANCH   8  21
TORSDOF 7
ENDMDL
MODEL       26
REMARK 921   NORMALIZED FREE ENERGY PREDICTED BY IDOCK:   -6.35 KCAL/MOL
REMARK 922        TOTAL FREE ENERGY PREDICTED BY IDOCK:  -10.45 KCAL/MOL
REMARK 923 INTER-LIGAND FREE ENERGY PREDICTED BY IDOCK:  -10.07 KCAL/MOL
REMARK 924 INTRA-LIGAND FREE ENERGY PREDICTED BY IDOCK:   -0.37 KCAL/MOL
REMARK 927      BINDING AFFINITY PREDICTED BY RF-SCORE:    0.00 PKD
ROOT
HETATM    1  C   UNL     1     -11.581  14.440  67.837  1.00  0.00    -0.345 C  
HETATM    2  S   UNL     1     -10.168  14.017  68.894  1.00  0.00    -0.090 SA 
HETATM    3  C   UNL     1      -9.842  15.736  69.334  1.00  0.00    -0.286 C  
HETATM    4  C   UNL     1      -9.797  16.698  68.151  1.00  0.00    -0.250 C  
HETATM    5  OXT UNL     1      -9.239  18.225  65.748  1.00  0.00    -0.450 OA 
HETATM    6  CA  UNL     1     -10.368  16.441  66.938  1.00  0.00    -0.300 C  
HETATM    7  C   UNL     1     -10.112  17.369  65.761  1.00  0.00    -0.123 C  
HETATM    8  CA  UNL     1     -11.917  13.376  66.734  1.00  0.00    -0.394 C  
HETATM    9  N   UNL     1     -11.117  15.305  66.768  1.00  0.00    -0.309 N  
HETATM   10  O   UNL     1     -10.955  17.264  64.715  1.00  0.00    -0.950 OA 
HETATM   11  C   UNL     1     -11.603  14.560  65.750  1.00  0.00    -0.347 C  
HETATM   12  O   UNL     1     -11.638  14.808  64.565  1.00  0.00    -0.395 OA 
ENDROOT
BRANCH   4  13
HETATM   13  C   UNL     1      -8.919  17.903  68.494  1.00  0.00    -0.286 C  
BRANCH  13  14
HETATM   14  S   UNL     1      -7.210  17.840  67.906  1.00  0.00    -0.214 SA 
BRANCH  14  15
HETATM   15  C   UNL     1      -6.274  17.559  69.316  1.00  0.00    -0.239 A  
HETATM   16  N   UNL     1      -5.757  16.430  69.739  1.00  0.00    -0.168 NA 
HETATM   17  N   UNL     1      -5.136  16.725  70.929  1.00  0.00    -0.228 NA 
HETATM   18  C   UNL     1      -6.281  19.943  70.188  1.00  0.00    -0.341 C  
HETATM   19  N   UNL     1      -5.968  18.541  70.214  1.00  0.00    -0.160 NA 
HETATM   20  N   UNL     1      -5.260  18.011  71.228  1.00  0.00    -0.421 NA 
ENDBRANCH  14  15
ENDBRANCH  13  14
ENDBRANCH   4  13
BRANCH   8  21
HETATM   21  N   UNL     1     -10.970  12.230  66.676  1.00  0.00    -0.265 N  
HETATM   22  O   UNL     1     -12.042  10.871  68.163  1.00  0.00    -0.563 OA 
HETATM   23  H   UNL     1     -10.137  12.333  66.096  1.00  0.00     0.000 HD 
HETATM   24  C   UNL     1     -11.137  11.040  67.349  1.00  0.00    -0.305 C  
BRANCH  24  25
HETATM   25  C   UNL     1     -10.086   9.959  67.005  1.00  0.00    -0.218 C  
BRANCH  25  26
HETATM   26  O   UNL     1     -10.151   9.731  65.583  1.00  0.00    -0.296 OA 
HETATM   27  O   UNL     1      -7.900  10.200  65.419  1.00  0.00    -0.131 OA 
HETATM   28  C   UNL     1      -8.969   9.872  64.933  1.00  0.00    -0.207 C  
ENDBRANCH  25  26
BRANCH  25  29
HETATM   29  C   UNL     1     -10.347   8.666  67.767  1.00  0.00    -0.303 A  
HETATM   30  C   UNL     1     -10.066   8.605  69.138  1.00  0.00    -0.203 A  
HETATM   31  C   UNL     1     -10.279   7.428  69.856  1.00  0.00    -0.212 A  
HETATM   32  C   UNL     1     -10.791   6.301  69.216  1.00  0.00    -0.406 A  
HETATM   33  C   UNL     1     -11.091   6.349  67.859  1.00  0.00    -0.370 A  
HETATM   34  C   UNL     1     -10.872   7.522  67.138  1.00  0.00    -0.298 A  
ENDBRANCH  25  29
ENDBRANCH  24  25
ENDBRANCH   8  21
TORSDOF 7
ENDMDL
MODEL       27
REMARK 921   NORMALIZED FREE ENERGY PREDICTED BY IDOCK:   -6.34 KCAL/MOL
REMARK 922        TOTAL FREE ENERGY PREDICTED BY IDOCK:  -10.43 KCAL/MOL
REMARK 923 INTER-LIGAND FREE ENERGY PREDICTED BY IDOCK:   -9.49 KCAL/MOL
REMARK 924 INTRA-LIGAND FREE ENERGY PREDICTED BY IDOCK:   -0.95 KCAL/MOL
REMARK 927      BINDING AFFINITY PREDICTED BY RF-SCORE:    0.00 PKD
ROOT
HETATM    1  C   UNL     1     -10.688  10.335  67.852  1.00  0.00    -0.264 C  
HETATM    2  S   UNL     1     -11.939  11.353  68.680  1.00  0.00    -0.151 SA 
HETATM    3  C   UNL     1     -11.289  12.896  68.008  1.00  0.00    -0.292 C  
HETATM    4  C   UNL     1      -9.781  13.068  68.154  1.00  0.00    -0.228 C  
HETATM    5  OXT UNL     1      -7.028  13.411  69.002  1.00  0.00    -0.110 OA 
HETATM    6  CA  UNL     1      -8.912  12.033  68.350  1.00  0.00    -0.153 C  
HETATM    7  C   UNL     1      -7.453  12.312  68.674  1.00  0.00    -0.100 C  
HETATM    8  CA  UNL     1     -10.418   8.946  68.530  1.00  0.00    -0.182 C  
HETATM    9  N   UNL     1      -9.375  10.743  68.320  1.00  0.00    -0.154 N  
HETATM   10  O   UNL     1      -6.592  11.288  68.516  1.00  0.00    -0.056 OA 
HETATM   11  C   UNL     1      -8.964   9.514  68.705  1.00  0.00    -0.133 C  
HETATM   12  O   UNL     1      -7.875   9.156  69.095  1.00  0.00    -0.089 OA 
ENDROOT
BRANCH   4  13
HETATM   13  C   UNL     1      -9.428  14.556  68.180  1.00  0.00    -0.208 C  
BRANCH  13  14
HETATM   14  S   UNL     1      -8.582  15.203  66.717  1.00  0.00    -0.234 SA 
BRANCH  14  15
HETATM   15  C   UNL     1      -9.843  15.756  65.694  1.00  0.00    -0.322 A  
HETATM   16  N   UNL     1     -10.294  16.978  65.546  1.00  0.00    -0.623 NA 
HETATM   17  N   UNL     1     -11.330  16.890  64.647  1.00  0.00    -0.865 NA 
HETATM   18  C   UNL     1     -10.446  13.508  64.680  1.00  0.00    -0.421 C  
HETATM   19  N   UNL     1     -10.569  14.925  64.891  1.00  0.00    -0.420 NA 
HETATM   20  N   UNL     1     -11.505  15.640  64.242  1.00  0.00    -0.292 NA 
ENDBRANCH  14  15
ENDBRANCH  13  14
ENDBRANCH   4  13
BRANCH   8  21
HETATM   21  N   UNL     1     -11.172   8.721  69.792  1.00  0.00    -0.439 N  
HETATM   22  O   UNL     1     -11.430   6.462  69.597  1.00  0.00    -0.416 OA 
HETATM   23  H   UNL     1     -11.413   9.539  70.352  1.00  0.00     0.000 HD 
HETATM   24  C   UNL     1     -11.568   7.487  70.260  1.00  0.00    -0.091 C  
BRANCH  24  25
HETATM   25  C   UNL     1     -12.208   7.514  71.667  1.00  0.00    -0.322 C  
BRANCH  25  26
HETATM   26  O   UNL     1     -12.160   8.875  72.137  1.00  0.00    -0.358 OA 
HETATM   27  O   UNL     1     -14.381   8.732  72.737  1.00  0.00    -0.569 OA 
HETATM   28  C   UNL     1     -13.324   9.333  72.663  1.00  0.00    -0.282 C  
ENDBRANCH  25  26
BRANCH  25  29
HETATM   29  C   UNL     1     -11.475   6.588  72.630  1.00  0.00    -0.224 A  
HETATM   30  C   UNL     1     -11.825   5.233  72.684  1.00  0.00    -0.107 A  
HETATM   31  C   UNL     1     -11.181   4.368  73.570  1.00  0.00    -0.375 A  
HETATM   32  C   UNL     1     -10.169   4.843  74.401  1.00  0.00    -0.301 A  
HETATM   33  C   UNL     1      -9.798   6.182  74.349  1.00  0.00    -0.294 A  
HETATM   34  C   UNL     1     -10.445   7.050  73.470  1.00  0.00    -0.413 A  
ENDBRANCH  25  29
ENDBRANCH  24  25
ENDBRANCH   8  21
TORSDOF 7
ENDMDL
MODEL       28
REMARK 921   NORMALIZED FREE ENERGY PREDICTED BY IDOCK:   -6.34 KCAL/MOL
REMARK 922        TOTAL FREE ENERGY PREDICTED BY IDOCK:  -10.42 KCAL/MOL
REMARK 923 INTER-LIGAND FREE ENERGY PREDICTED BY IDOCK:   -9.25 KCAL/MOL
REMARK 924 INTRA-LIGAND FREE ENERGY PREDICTED BY IDOCK:   -1.17 KCAL/MOL
REMARK 927      BINDING AFFINITY PREDICTED BY RF-SCORE:    0.00 PKD
ROOT
HETATM    1  C   UNL     1     -11.553  11.834  68.005  1.00  0.00    -0.316 C  
HETATM    2  S   UNL     1      -9.860  11.475  67.465  1.00  0.00    -0.192 SA 
HETATM    3  C   UNL     1     -10.003   9.712  67.820  1.00  0.00    -0.171 C  
HETATM    4  C   UNL     1     -10.573   9.384  69.196  1.00  0.00    -0.234 C  
HETATM    5  OXT UNL     1     -11.169   9.008  72.011  1.00  0.00    -0.361 OA 
HETATM    6  CA  UNL     1     -11.321  10.253  69.937  1.00  0.00    -0.290 C  
HETATM    7  C   UNL     1     -11.687   9.914  71.373  1.00  0.00    -0.371 C  
HETATM    8  CA  UNL     1     -11.800  13.318  68.450  1.00  0.00    -0.360 C  
HETATM    9  N   UNL     1     -11.682  11.464  69.403  1.00  0.00    -0.307 N  
HETATM   10  O   UNL     1     -12.689  10.625  71.925  1.00  0.00    -0.412 OA 
HETATM   11  C   UNL     1     -12.146  12.658  69.833  1.00  0.00    -0.252 C  
HETATM   12  O   UNL     1     -12.561  12.972  70.927  1.00  0.00    -0.343 OA 
ENDROOT
BRANCH   4  13
HETATM   13  C   UNL     1     -10.072   8.013  69.653  1.00  0.00    -0.198 C  
BRANCH  13  14
HETATM   14  S   UNL     1     -11.182   6.616  69.357  1.00  0.00    -0.269 SA 
BRANCH  14  15
HETATM   15  C   UNL     1     -10.509   5.804  68.005  1.00  0.00    -0.225 A  
HETATM   16  N   UNL     1     -10.569   6.142  66.739  1.00  0.00    -0.279 NA 
HETATM   17  N   UNL     1      -9.912   5.148  66.053  1.00  0.00    -0.175 NA 
HETATM   18  C   UNL     1      -9.458   3.874  69.277  1.00  0.00    -0.186 C  
HETATM   19  N   UNL     1      -9.814   4.634  68.109  1.00  0.00    -0.136 NA 
HETATM   20  N   UNL     1      -9.447   4.223  66.882  1.00  0.00    -0.173 NA 
ENDBRANCH  14  15
ENDBRANCH  13  14
ENDBRANCH   4  13
BRANCH   8  21
HETATM   21  N   UNL     1     -10.583  14.174  68.438  1.00  0.00    -0.252 N  
HETATM   22  O   UNL     1     -11.111  15.433  66.610  1.00  0.00    -0.312 OA 
HETATM   23  H   UNL     1      -9.863  13.982  69.134  1.00  0.00     0.000 HD 
HETATM   24  C   UNL     1     -10.360  15.207  67.555  1.00  0.00    -0.242 C  
BRANCH  24  25
HETATM   25  C   UNL     1      -9.085  16.032  67.848  1.00  0.00    -0.187 C  
BRANCH  25  26
HETATM   26  O   UNL     1      -8.733  15.808  69.227  1.00  0.00    -0.240 OA 
HETATM   27  O   UNL     1      -6.502  15.841  68.649  1.00  0.00    -0.107 OA 
HETATM   28  C   UNL     1      -7.399  15.756  69.469  1.00  0.00    -0.186 C  
ENDBRANCH  25  26
BRANCH  25  29
HETATM   29  C   UNL     1      -9.311  17.516  67.586  1.00  0.00    -0.244 A  
HETATM   30  C   UNL     1     -10.036  18.277  68.513  1.00  0.00    -0.413 A  
HETATM   31  C   UNL     1     -10.271  19.634  68.288  1.00  0.00    -0.567 A  
HETATM   32  C   UNL     1      -9.773  20.251  67.144  1.00  0.00    -0.592 A  
HETATM   33  C   UNL     1      -9.037  19.514  66.221  1.00  0.00    -0.403 A  
HETATM   34  C   UNL     1      -8.806  18.157  66.440  1.00  0.00    -0.255 A  
ENDBRANCH  25  29
ENDBRANCH  24  25
ENDBRANCH   8  21
TORSDOF 7
ENDMDL
MODEL       29
REMARK 921   NORMALIZED FREE ENERGY PREDICTED BY IDOCK:   -6.33 KCAL/MOL
REMARK 922        TOTAL FREE ENERGY PREDICTED BY IDOCK:  -10.42 KCAL/MOL
REMARK 923 INTER-LIGAND FREE ENERGY PREDICTED BY IDOCK:   -8.73 KCAL/MOL
REMARK 924 INTRA-LIGAND FREE ENERGY PREDICTED BY IDOCK:   -1.69 KCAL/MOL
REMARK 927      BINDING AFFINITY PREDICTED BY RF-SCORE:    0.00 PKD
ROOT
HETATM    1  C   UNL     1      -8.723  10.162  67.788  1.00  0.00    -0.121 C  
HETATM    2  S   UNL     1     -10.525  10.269  67.963  1.00  0.00    -0.212 SA 
HETATM    3  C   UNL     1     -10.704  11.400  66.569  1.00  0.00    -0.277 C  
HETATM    4  C   UNL     1      -9.749  12.589  66.587  1.00  0.00    -0.244 C  
HETATM    5  OXT UNL     1      -8.227  15.006  67.098  1.00  0.00    -0.195 OA 
HETATM    6  CA  UNL     1      -8.581  12.616  67.293  1.00  0.00    -0.196 C  
HETATM    7  C   UNL     1      -7.786  13.907  67.406  1.00  0.00    -0.161 C  
HETATM    8  CA  UNL     1      -7.960   9.753  69.096  1.00  0.00    -0.104 C  
HETATM    9  N   UNL     1      -8.162  11.491  67.956  1.00  0.00    -0.136 N  
HETATM   10  O   UNL     1      -6.505  13.796  67.806  1.00  0.00    -0.150 OA 
HETATM   11  C   UNL     1      -7.284  11.161  68.929  1.00  0.00    -0.106 C  
HETATM   12  O   UNL     1      -6.414  11.833  69.438  1.00  0.00    -0.100 OA 
ENDROOT
BRANCH   4  13
HETATM   13  C   UNL     1     -10.362  13.760  65.817  1.00  0.00    -0.307 C  
BRANCH  13  14
HETATM   14  S   UNL     1     -11.907  14.430  66.478  1.00  0.00    -0.364 SA 
BRANCH  14  15
HETATM   15  C   UNL     1     -11.441  15.294  67.884  1.00  0.00    -0.316 A  
HETATM   16  N   UNL     1     -11.036  16.538  67.979  1.00  0.00    -0.319 NA 
HETATM   17  N   UNL     1     -10.746  16.738  69.308  1.00  0.00    -0.340 NA 
HETATM   18  C   UNL     1     -11.797  13.413  69.551  1.00  0.00    -0.332 C  
HETATM   19  N   UNL     1     -11.422  14.735  69.129  1.00  0.00    -0.282 NA 
HETATM   20  N   UNL     1     -10.978  15.642  70.018  1.00  0.00    -0.298 NA 
ENDBRANCH  14  15
ENDBRANCH  13  14
ENDBRANCH   4  13
BRANCH   8  21
HETATM   21  N   UNL     1      -8.829   9.600  70.293  1.00  0.00    -0.261 N  
HETATM   22  O   UNL     1      -8.915   7.320  70.320  1.00  0.00    -0.150 OA 
HETATM   23  H   UNL     1      -9.182  10.449  70.733  1.00  0.00     0.000 HD 
HETATM   24  C   UNL     1      -9.190   8.393  70.850  1.00  0.00    -0.160 C  
BRANCH  24  25
HETATM   25  C   UNL     1      -9.980   8.513  72.174  1.00  0.00    -0.317 C  
BRANCH  25  26
HETATM   26  O   UNL     1      -9.598   7.399  73.006  1.00  0.00    -0.160 OA 
HETATM   27  O   UNL     1      -8.105   8.759  74.118  1.00  0.00    -0.355 OA 
HETATM   28  C   UNL     1      -8.662   7.689  73.944  1.00  0.00    -0.251 C  
ENDBRANCH  25  26
BRANCH  25  29
HETATM   29  C   UNL     1     -11.483   8.507  71.928  1.00  0.00    -0.405 A  
HETATM   30  C   UNL     1     -12.180   7.292  71.943  1.00  0.00    -0.348 A  
HETATM   31  C   UNL     1     -13.554   7.258  71.703  1.00  0.00    -0.435 A  
HETATM   32  C   UNL     1     -14.252   8.439  71.461  1.00  0.00    -0.471 A  
HETATM   33  C   UNL     1     -13.579   9.657  71.459  1.00  0.00    -0.376 A  
HETATM   34  C   UNL     1     -12.205   9.692  71.692  1.00  0.00    -0.484 A  
ENDBRANCH  25  29
ENDBRANCH  24  25
ENDBRANCH   8  21
TORSDOF 7
ENDMDL
MODEL       30
REMARK 921   NORMALIZED FREE ENERGY PREDICTED BY IDOCK:   -6.28 KCAL/MOL
REMARK 922        TOTAL FREE ENERGY PREDICTED BY IDOCK:  -10.35 KCAL/MOL
REMARK 923 INTER-LIGAND FREE ENERGY PREDICTED BY IDOCK:   -9.26 KCAL/MOL
REMARK 924 INTRA-LIGAND FREE ENERGY PREDICTED BY IDOCK:   -1.09 KCAL/MOL
REMARK 927      BINDING AFFINITY PREDICTED BY RF-SCORE:    0.00 PKD
ROOT
HETATM    1  C   UNL     1      -9.092   8.947  68.148  1.00  0.00    -0.140 C  
HETATM    2  S   UNL     1     -10.901   8.989  68.274  1.00  0.00     0.069 SA 
HETATM    3  C   UNL     1     -11.064  10.329  67.078  1.00  0.00    -0.032 C  
HETATM    4  C   UNL     1     -10.140  11.517  67.324  1.00  0.00    -0.223 C  
HETATM    5  OXT UNL     1      -8.695  13.846  68.276  1.00  0.00    -0.174 OA 
HETATM    6  CA  UNL     1      -8.995  11.450  68.065  1.00  0.00    -0.163 C  
HETATM    7  C   UNL     1      -8.237  12.721  68.416  1.00  0.00    -0.128 C  
HETATM    8  CA  UNL     1      -8.360   8.343  69.397  1.00  0.00    -0.120 C  
HETATM    9  N   UNL     1      -8.570  10.240  68.550  1.00  0.00    -0.120 N  
HETATM   10  O   UNL     1      -6.966  12.570  68.837  1.00  0.00    -0.095 OA 
HETATM   11  C   UNL     1      -7.715   9.773  69.486  1.00  0.00    -0.120 C  
HETATM   12  O   UNL     1      -6.879  10.368  70.129  1.00  0.00    -0.140 OA 
ENDROOT
BRANCH   4  13
HETATM   13  C   UNL     1     -10.756  12.786  66.734  1.00  0.00    -0.260 C  
BRANCH  13  14
HETATM   14  S   UNL     1     -10.361  13.140  65.005  1.00  0.00    -0.316 SA 
BRANCH  14  15
HETATM   15  C   UNL     1     -11.072  14.670  64.699  1.00  0.00    -0.334 A  
HETATM   16  N   UNL     1     -12.170  14.939  64.035  1.00  0.00    -0.633 NA 
HETATM   17  N   UNL     1     -12.284  16.309  64.039  1.00  0.00    -0.743 NA 
HETATM   18  C   UNL     1      -9.337  16.079  65.904  1.00  0.00    -0.300 C  
HETATM   19  N   UNL     1     -10.521  15.845  65.123  1.00  0.00    -0.532 NA 
HETATM   20  N   UNL     1     -11.282  16.871  64.700  1.00  0.00    -0.956 NA 
ENDBRANCH  14  15
ENDBRANCH  13  14
ENDBRANCH   4  13
BRANCH   8  21
HETATM   21  N   UNL     1      -9.263   7.979  70.522  1.00  0.00    -0.153 N  
HETATM   22  O   UNL     1      -9.569   5.786  69.971  1.00  0.00    -0.156 OA 
HETATM   23  H   UNL     1      -9.541   8.720  71.165  1.00  0.00     0.000 HD 
HETATM   24  C   UNL     1      -9.750   6.712  70.757  1.00  0.00    -0.179 C  
BRANCH  24  25
HETATM   25  C   UNL     1     -10.549   6.571  72.074  1.00  0.00    -0.217 C  
BRANCH  25  26
HETATM   26  O   UNL     1     -10.743   5.163  72.311  1.00  0.00    -0.217 OA 
HETATM   27  O   UNL     1     -10.117   5.461  74.510  1.00  0.00    -0.221 OA 
HETATM   28  C   UNL     1     -10.504   4.766  73.587  1.00  0.00    -0.233 C  
ENDBRANCH  25  26
BRANCH  25  29
HETATM   29  C   UNL     1     -11.890   7.290  71.991  1.00  0.00    -0.332 A  
HETATM   30  C   UNL     1     -12.999   6.621  71.458  1.00  0.00    -0.159 A  
HETATM   31  C   UNL     1     -14.234   7.263  71.354  1.00  0.00    -0.476 A  
HETATM   32  C   UNL     1     -14.380   8.576  71.796  1.00  0.00    -0.522 A  
HETATM   33  C   UNL     1     -13.292   9.250  72.343  1.00  0.00    -0.521 A  
HETATM   34  C   UNL     1     -12.056   8.612  72.441  1.00  0.00    -0.415 A  
ENDBRANCH  25  29
ENDBRANCH  24  25
ENDBRANCH   8  21
TORSDOF 7
ENDMDL
MODEL       31
REMARK 921   NORMALIZED FREE ENERGY PREDICTED BY IDOCK:   -6.27 KCAL/MOL
REMARK 922        TOTAL FREE ENERGY PREDICTED BY IDOCK:  -10.33 KCAL/MOL
REMARK 923 INTER-LIGAND FREE ENERGY PREDICTED BY IDOCK:   -8.83 KCAL/MOL
REMARK 924 INTRA-LIGAND FREE ENERGY PREDICTED BY IDOCK:   -1.51 KCAL/MOL
REMARK 927      BINDING AFFINITY PREDICTED BY RF-SCORE:    0.00 PKD
ROOT
HETATM    1  C   UNL     1      -8.662   8.992  67.943  1.00  0.00    -0.129 C  
HETATM    2  S   UNL     1      -9.183  10.150  69.239  1.00  0.00    -0.209 SA 
HETATM    3  C   UNL     1      -8.723   9.031  70.577  1.00  0.00    -0.207 C  
HETATM    4  C   UNL     1      -9.236   7.604  70.419  1.00  0.00    -0.156 C  
HETATM    5  OXT UNL     1     -10.736   5.132  70.175  1.00  0.00    -0.239 OA 
HETATM    6  CA  UNL     1      -9.614   7.059  69.225  1.00  0.00    -0.154 C  
HETATM    7  C   UNL     1     -10.290   5.697  69.187  1.00  0.00    -0.258 C  
HETATM    8  CA  UNL     1      -9.355   9.209  66.552  1.00  0.00    -0.190 C  
HETATM    9  N   UNL     1      -9.444   7.775  68.068  1.00  0.00    -0.144 N  
HETATM   10  O   UNL     1     -10.323   5.073  67.994  1.00  0.00    -0.119 OA 
HETATM   11  C   UNL     1      -9.891   7.752  66.793  1.00  0.00    -0.241 C  
HETATM   12  O   UNL     1     -10.525   6.896  66.216  1.00  0.00     0.058 OA 
ENDROOT
BRANCH   4  13
HETATM   13  C   UNL     1      -9.379   6.947  71.792  1.00  0.00    -0.145 C  
BRANCH  13  14
HETATM   14  S   UNL     1     -10.471   7.783  72.968  1.00  0.00    -0.348 SA 
BRANCH  14  15
HETATM   15  C   UNL     1     -12.033   7.671  72.269  1.00  0.00    -0.285 A  
HETATM   16  N   UNL     1     -12.789   6.608  72.133  1.00  0.00    -0.141 NA 
HETATM   17  N   UNL     1     -13.920   7.034  71.478  1.00  0.00    -0.300 NA 
HETATM   18  C   UNL     1     -12.286  10.119  71.649  1.00  0.00    -0.331 C  
HETATM   19  N   UNL     1     -12.684   8.740  71.725  1.00  0.00    -0.339 NA 
HETATM   20  N   UNL     1     -13.865   8.335  71.224  1.00  0.00    -0.216 NA 
ENDBRANCH  14  15
ENDBRANCH  13  14
ENDBRANCH   4  13
BRANCH   8  21
HETATM   21  N   UNL     1     -10.390  10.276  66.540  1.00  0.00    -0.228 N  
HETATM   22  O   UNL     1      -9.278  11.768  65.220  1.00  0.00    -0.115 OA 
HETATM   23  H   UNL     1     -11.229  10.128  67.102  1.00  0.00     0.000 HD 
HETATM   24  C   UNL     1     -10.299  11.449  65.825  1.00  0.00    -0.255 C  
BRANCH  24  25
HETATM   25  C   UNL     1     -11.573  12.324  65.868  1.00  0.00    -0.393 C  
BRANCH  25  26
HETATM   26  O   UNL     1     -11.523  13.217  64.738  1.00  0.00    -0.305 OA 
HETATM   27  O   UNL     1     -13.029  11.872  63.626  1.00  0.00    -0.692 OA 
HETATM   28  C   UNL     1     -12.324  12.863  63.702  1.00  0.00    -0.434 C  
ENDBRANCH  25  26
BRANCH  25  29
HETATM   29  C   UNL     1     -11.663  13.112  67.169  1.00  0.00    -0.430 A  
HETATM   30  C   UNL     1     -11.581  14.510  67.136  1.00  0.00    -0.406 A  
HETATM   31  C   UNL     1     -11.643  15.254  68.315  1.00  0.00    -0.357 A  
HETATM   32  C   UNL     1     -11.803  14.612  69.541  1.00  0.00    -0.374 A  
HETATM   33  C   UNL     1     -11.903  13.225  69.591  1.00  0.00    -0.391 A  
HETATM   34  C   UNL     1     -11.834  12.479  68.414  1.00  0.00    -0.353 A  
ENDBRANCH  25  29
ENDBRANCH  24  25
ENDBRANCH   8  21
TORSDOF 7
ENDMDL
MODEL       32
REMARK 921   NORMALIZED FREE ENERGY PREDICTED BY IDOCK:   -6.25 KCAL/MOL
REMARK 922        TOTAL FREE ENERGY PREDICTED BY IDOCK:  -10.30 KCAL/MOL
REMARK 923 INTER-LIGAND FREE ENERGY PREDICTED BY IDOCK:   -9.35 KCAL/MOL
REMARK 924 INTRA-LIGAND FREE ENERGY PREDICTED BY IDOCK:   -0.95 KCAL/MOL
REMARK 927      BINDING AFFINITY PREDICTED BY RF-SCORE:    0.00 PKD
ROOT
HETATM    1  C   UNL     1     -11.725  14.387  68.679  1.00  0.00    -0.332 C  
HETATM    2  S   UNL     1     -10.138  15.033  69.275  1.00  0.00    -0.210 SA 
HETATM    3  C   UNL     1     -10.361  16.632  68.471  1.00  0.00    -0.303 C  
HETATM    4  C   UNL     1     -10.783  16.556  67.008  1.00  0.00    -0.191 C  
HETATM    5  OXT UNL     1     -11.061  16.171  64.145  1.00  0.00    -0.627 OA 
HETATM    6  CA  UNL     1     -11.373  15.462  66.442  1.00  0.00    -0.087 C  
HETATM    7  C   UNL     1     -11.587  15.402  64.938  1.00  0.00    -0.248 C  
HETATM    8  CA  UNL     1     -11.811  12.823  68.604  1.00  0.00    -0.304 C  
HETATM    9  N   UNL     1     -11.710  14.390  67.228  1.00  0.00    -0.389 N  
HETATM   10  O   UNL     1     -12.462  14.482  64.488  1.00  0.00    -0.600 OA 
HETATM   11  C   UNL     1     -12.034  13.087  67.072  1.00  0.00    -0.347 C  
HETATM   12  O   UNL     1     -12.291  12.475  66.058  1.00  0.00    -0.615 OA 
ENDROOT
BRANCH   4  13
HETATM   13  C   UNL     1     -10.328  17.815  66.269  1.00  0.00    -0.358 C  
BRANCH  13  14
HETATM   14  S   UNL     1      -9.629  19.134  67.291  1.00  0.00    -0.324 SA 
BRANCH  14  15
HETATM   15  C   UNL     1      -7.995  19.259  66.784  1.00  0.00    -0.271 A  
HETATM   16  N   UNL     1      -7.528  19.384  65.565  1.00  0.00    -0.433 NA 
HETATM   17  N   UNL     1      -6.159  19.402  65.688  1.00  0.00    -0.187 NA 
HETATM   18  C   UNL     1      -6.932  19.113  69.085  1.00  0.00    -0.326 C  
HETATM   19  N   UNL     1      -6.942  19.216  67.651  1.00  0.00    -0.215 NA 
HETATM   20  N   UNL     1      -5.791  19.299  66.958  1.00  0.00    -0.174 NA 
ENDBRANCH  14  15
ENDBRANCH  13  14
ENDBRANCH   4  13
BRANCH   8  21
HETATM   21  N   UNL     1     -10.547  12.120  68.954  1.00  0.00    -0.359 N  
HETATM   22  O   UNL     1     -11.158  10.031  68.268  1.00  0.00    -0.247 OA 
HETATM   23  H   UNL     1      -9.815  12.663  69.412  1.00  0.00     0.000 HD 
HETATM   24  C   UNL     1     -10.295  10.790  68.703  1.00  0.00    -0.192 C  
BRANCH  24  25
HETATM   25  C   UNL     1      -8.852  10.341  69.031  1.00  0.00    -0.168 C  
BRANCH  25  26
HETATM   26  O   UNL     1      -8.389   9.535  67.930  1.00  0.00    -0.114 OA 
HETATM   27  O   UNL     1      -7.277  11.365  67.076  1.00  0.00    -0.125 OA 
HETATM   28  C   UNL     1      -7.594  10.188  67.046  1.00  0.00    -0.092 C  
ENDBRANCH  25  26
BRANCH  25  29
HETATM   29  C   UNL     1      -8.798   9.551  70.333  1.00  0.00    -0.279 A  
HETATM   30  C   UNL     1      -7.556   9.254  70.908  1.00  0.00    -0.130 A  
HETATM   31  C   UNL     1      -7.478   8.517  72.091  1.00  0.00    -0.111 A  
HETATM   32  C   UNL     1      -8.641   8.080  72.721  1.00  0.00    -0.252 A  
HETATM   33  C   UNL     1      -9.884   8.380  72.173  1.00  0.00    -0.372 A  
HETATM   34  C   UNL     1      -9.963   9.111  70.988  1.00  0.00    -0.367 A  
ENDBRANCH  25  29
ENDBRANCH  24  25
ENDBRANCH   8  21
TORSDOF 7
ENDMDL
MODEL       33
REMARK 921   NORMALIZED FREE ENERGY PREDICTED BY IDOCK:   -6.24 KCAL/MOL
REMARK 922        TOTAL FREE ENERGY PREDICTED BY IDOCK:  -10.28 KCAL/MOL
REMARK 923 INTER-LIGAND FREE ENERGY PREDICTED BY IDOCK:   -9.55 KCAL/MOL
REMARK 924 INTRA-LIGAND FREE ENERGY PREDICTED BY IDOCK:   -0.73 KCAL/MOL
REMARK 927      BINDING AFFINITY PREDICTED BY RF-SCORE:    0.00 PKD
ROOT
HETATM    1  C   UNL     1     -11.471  12.533  66.529  1.00  0.00    -0.362 C  
HETATM    2  S   UNL     1      -9.796  12.163  65.940  1.00  0.00    -0.241 SA 
HETATM    3  C   UNL     1      -9.963  10.392  66.241  1.00  0.00    -0.226 C  
HETATM    4  C   UNL     1     -10.508  10.029  67.617  1.00  0.00    -0.297 C  
HETATM    5  OXT UNL     1     -11.050   9.570  70.431  1.00  0.00    -0.243 OA 
HETATM    6  CA  UNL     1     -11.224  10.886  68.403  1.00  0.00    -0.285 C  
HETATM    7  C   UNL     1     -11.565  10.506  69.835  1.00  0.00    -0.307 C  
HETATM    8  CA  UNL     1     -11.681  14.006  67.027  1.00  0.00    -0.398 C  
HETATM    9  N   UNL     1     -11.576  12.119  67.916  1.00  0.00    -0.333 N  
HETATM   10  O   UNL     1     -12.542  11.215  70.432  1.00  0.00    -0.293 OA 
HETATM   11  C   UNL     1     -12.009  13.306  68.395  1.00  0.00    -0.301 C  
HETATM   12  O   UNL     1     -12.394  13.592  69.508  1.00  0.00    -0.268 OA 
ENDROOT
BRANCH   4  13
HETATM   13  C   UNL     1     -10.022   8.635  68.019  1.00  0.00    -0.182 C  
BRANCH  13  14
HETATM   14  S   UNL     1     -10.721   7.247  67.094  1.00  0.00    -0.296 SA 
BRANCH  14  15
HETATM   15  C   UNL     1     -10.214   5.851  67.953  1.00  0.00    -0.184 A  
HETATM   16  N   UNL     1      -9.433   4.881  67.542  1.00  0.00    -0.133 NA 
HETATM   17  N   UNL     1      -9.367   3.986  68.582  1.00  0.00    -0.151 NA 
HETATM   18  C   UNL     1     -11.447   6.339  70.117  1.00  0.00    -0.382 C  
HETATM   19  N   UNL     1     -10.613   5.577  69.229  1.00  0.00    -0.273 NA 
HETATM   20  N   UNL     1     -10.086   4.401  69.617  1.00  0.00    -0.133 NA 
ENDBRANCH  14  15
ENDBRANCH  13  14
ENDBRANCH   4  13
BRANCH   8  21
HETATM   21  N   UNL     1     -10.450  14.840  67.016  1.00  0.00    -0.267 N  
HETATM   22  O   UNL     1     -10.781  15.847  64.995  1.00  0.00    -0.451 OA 
HETATM   23  H   UNL     1      -9.801  14.736  67.795  1.00  0.00     0.000 HD 
HETATM   24  C   UNL     1     -10.125  15.743  66.028  1.00  0.00    -0.337 C  
BRANCH  24  25
HETATM   25  C   UNL     1      -8.864  16.588  66.327  1.00  0.00    -0.329 C  
BRANCH  25  26
HETATM   26  O   UNL     1      -8.192  15.979  67.446  1.00  0.00    -0.151 OA 
HETATM   27  O   UNL     1      -6.159  16.485  66.483  1.00  0.00    -0.297 OA 
HETATM   28  C   UNL     1      -6.837  16.025  67.386  1.00  0.00    -0.189 C  
ENDBRANCH  25  26
BRANCH  25  29
HETATM   29  C   UNL     1      -9.225  18.034  66.641  1.00  0.00    -0.291 A  
HETATM   30  C   UNL     1      -8.354  19.062  66.256  1.00  0.00    -0.293 A  
HETATM   31  C   UNL     1      -8.653  20.393  66.548  1.00  0.00    -0.192 A  
HETATM   32  C   UNL     1      -9.833  20.716  67.213  1.00  0.00    -0.529 A  
HETATM   33  C   UNL     1     -10.718  19.710  67.588  1.00  0.00    -0.500 A  
HETATM   34  C   UNL     1     -10.418  18.379  67.304  1.00  0.00    -0.434 A  
ENDBRANCH  25  29
ENDBRANCH  24  25
ENDBRANCH   8  21
TORSDOF 7
ENDMDL
MODEL       34
REMARK 921   NORMALIZED FREE ENERGY PREDICTED BY IDOCK:   -6.23 KCAL/MOL
REMARK 922        TOTAL FREE ENERGY PREDICTED BY IDOCK:  -10.27 KCAL/MOL
REMARK 923 INTER-LIGAND FREE ENERGY PREDICTED BY IDOCK:   -8.77 KCAL/MOL
REMARK 924 INTRA-LIGAND FREE ENERGY PREDICTED BY IDOCK:   -1.50 KCAL/MOL
REMARK 927      BINDING AFFINITY PREDICTED BY RF-SCORE:    0.00 PKD
ROOT
HETATM    1  C   UNL     1     -11.605  12.870  66.347  1.00  0.00    -0.371 C  
HETATM    2  S   UNL     1      -9.985  12.448  65.649  1.00  0.00    -0.218 SA 
HETATM    3  C   UNL     1     -10.256  10.672  65.805  1.00  0.00    -0.252 C  
HETATM    4  C   UNL     1     -10.767  10.223  67.170  1.00  0.00    -0.303 C  
HETATM    5  OXT UNL     1     -11.220   9.552  69.956  1.00  0.00    -0.239 OA 
HETATM    6  CA  UNL     1     -11.391  11.051  68.059  1.00  0.00    -0.306 C  
HETATM    7  C   UNL     1     -11.696  10.568  69.468  1.00  0.00    -0.241 C  
HETATM    8  CA  UNL     1     -11.695  14.303  66.979  1.00  0.00    -0.403 C  
HETATM    9  N   UNL     1     -11.679  12.342  67.697  1.00  0.00    -0.350 N  
HETATM   10  O   UNL     1     -12.597  11.281  70.170  1.00  0.00    -0.224 OA 
HETATM   11  C   UNL     1     -12.011  13.507  68.296  1.00  0.00    -0.342 C  
HETATM   12  O   UNL     1     -12.330  13.716  69.446  1.00  0.00    -0.292 OA 
ENDROOT
BRANCH   4  13
HETATM   13  C   UNL     1     -10.358   8.772  67.427  1.00  0.00    -0.280 C  
BRANCH  13  14
HETATM   14  S   UNL     1      -8.589   8.408  67.320  1.00  0.00    -0.124 SA 
BRANCH  14  15
HETATM   15  C   UNL     1      -7.834   9.645  68.237  1.00  0.00    -0.085 A  
HETATM   16  N   UNL     1      -7.920   9.871  69.526  1.00  0.00    -0.132 NA 
HETATM   17  N   UNL     1      -7.166  10.996  69.761  1.00  0.00    -0.070 NA 
HETATM   18  C   UNL     1      -6.608  10.768  66.318  1.00  0.00    -0.132 C  
HETATM   19  N   UNL     1      -7.029  10.598  67.682  1.00  0.00    -0.078 NA 
HETATM   20  N   UNL     1      -6.618  11.447  68.641  1.00  0.00    -0.058 NA 
ENDBRANCH  14  15
ENDBRANCH  13  14
ENDBRANCH   4  13
BRANCH   8  21
HETATM   21  N   UNL     1     -10.413  15.056  66.980  1.00  0.00    -0.273 N  
HETATM   22  O   UNL     1     -10.696  16.149  64.998  1.00  0.00    -0.558 OA 
HETATM   23  H   UNL     1      -9.764  14.885  67.749  1.00  0.00     0.000 HD 
HETATM   24  C   UNL     1     -10.039  15.968  66.019  1.00  0.00    -0.341 C  
BRANCH  24  25
HETATM   25  C   UNL     1      -8.723  16.720  66.330  1.00  0.00    -0.302 C  
BRANCH  25  26
HETATM   26  O   UNL     1      -8.060  16.007  67.393  1.00  0.00    -0.146 OA 
HETATM   27  O   UNL     1      -6.022  16.513  66.442  1.00  0.00    -0.237 OA 
HETATM   28  C   UNL     1      -6.705  16.011  67.317  1.00  0.00    -0.197 C  
ENDBRANCH  25  26
BRANCH  25  29
HETATM   29  C   UNL     1      -8.990  18.163  66.739  1.00  0.00    -0.289 A  
HETATM   30  C   UNL     1     -10.093  18.457  67.551  1.00  0.00    -0.373 A  
HETATM   31  C   UNL     1     -10.370  19.773  67.924  1.00  0.00    -0.569 A  
HETATM   32  C   UNL     1      -9.540  20.809  67.505  1.00  0.00    -0.439 A  
HETATM   33  C   UNL     1      -8.431  20.534  66.711  1.00  0.00    -0.214 A  
HETATM   34  C   UNL     1      -8.156  19.220  66.331  1.00  0.00    -0.327 A  
ENDBRANCH  25  29
ENDBRANCH  24  25
ENDBRANCH   8  21
TORSDOF 7
ENDMDL
MODEL       35
REMARK 921   NORMALIZED FREE ENERGY PREDICTED BY IDOCK:   -6.21 KCAL/MOL
REMARK 922        TOTAL FREE ENERGY PREDICTED BY IDOCK:  -10.24 KCAL/MOL
REMARK 923 INTER-LIGAND FREE ENERGY PREDICTED BY IDOCK:   -9.19 KCAL/MOL
REMARK 924 INTRA-LIGAND FREE ENERGY PREDICTED BY IDOCK:   -1.05 KCAL/MOL
REMARK 927      BINDING AFFINITY PREDICTED BY RF-SCORE:    0.00 PKD
ROOT
HETATM    1  C   UNL     1     -11.343  12.769  67.266  1.00  0.00    -0.314 C  
HETATM    2  S   UNL     1      -9.674  13.099  67.894  1.00  0.00    -0.227 SA 
HETATM    3  C   UNL     1      -9.960  14.873  68.042  1.00  0.00    -0.220 C  
HETATM    4  C   UNL     1     -10.577  15.524  66.808  1.00  0.00    -0.307 C  
HETATM    5  OXT UNL     1     -11.249  16.618  64.206  1.00  0.00    -1.098 OA 
HETATM    6  CA  UNL     1     -11.268  14.837  65.851  1.00  0.00    -0.340 C  
HETATM    7  C   UNL     1     -11.683  15.532  64.563  1.00  0.00    -0.253 C  
HETATM    8  CA  UNL     1     -11.480  11.452  66.424  1.00  0.00     0.020 C  
HETATM    9  N   UNL     1     -11.524  13.502  66.025  1.00  0.00    -0.317 N  
HETATM   10  O   UNL     1     -12.636  14.924  63.830  1.00  0.00    -0.831 OA 
HETATM   11  C   UNL     1     -11.900  12.441  65.278  1.00  0.00    -0.399 C  
HETATM   12  O   UNL     1     -12.308  12.410  64.137  1.00  0.00    -0.432 OA 
ENDROOT
BRANCH   4  13
HETATM   13  C   UNL     1     -10.193  17.003  66.753  1.00  0.00    -0.298 C  
BRANCH  13  14
HETATM   14  S   UNL     1      -8.639  17.456  67.561  1.00  0.00    -0.221 SA 
BRANCH  14  15
HETATM   15  C   UNL     1      -7.801  18.398  66.397  1.00  0.00    -0.263 A  
HETATM   16  N   UNL     1      -6.949  17.996  65.485  1.00  0.00    -0.484 NA 
HETATM   17  N   UNL     1      -6.531  19.133  64.835  1.00  0.00    -0.470 NA 
HETATM   18  C   UNL     1      -8.751  20.655  67.065  1.00  0.00    -0.167 C  
HETATM   19  N   UNL     1      -7.926  19.754  66.308  1.00  0.00    -0.321 NA 
HETATM   20  N   UNL     1      -7.122  20.212  65.331  1.00  0.00    -0.306 NA 
ENDBRANCH  14  15
ENDBRANCH  13  14
ENDBRANCH   4  13
BRANCH   8  21
HETATM   21  N   UNL     1     -10.200  10.727  66.205  1.00  0.00    -0.244 N  
HETATM   22  O   UNL     1     -10.859   8.694  67.004  1.00  0.00    -0.197 OA 
HETATM   23  H   UNL     1      -9.410  11.260  65.843  1.00  0.00     0.000 HD 
HETATM   24  C   UNL     1     -10.006   9.387  66.455  1.00  0.00    -0.276 C  
BRANCH  24  25
HETATM   25  C   UNL     1      -8.628   8.847  66.005  1.00  0.00    -0.145 C  
BRANCH  25  26
HETATM   26  O   UNL     1      -8.657   8.735  64.568  1.00  0.00    -0.167 OA 
HETATM   27  O   UNL     1      -6.845  10.154  64.435  1.00  0.00    -0.127 OA 
HETATM   28  C   UNL     1      -7.687   9.434  63.927  1.00  0.00    -0.121 C  
ENDBRANCH  25  26
BRANCH  25  29
HETATM   29  C   UNL     1      -8.325   7.496  66.641  1.00  0.00    -0.127 A  
HETATM   30  C   UNL     1      -7.787   7.448  67.934  1.00  0.00    -0.118 A  
HETATM   31  C   UNL     1      -7.483   6.225  68.532  1.00  0.00    -0.088 A  
HETATM   32  C   UNL     1      -7.728   5.033  67.853  1.00  0.00    -0.084 A  
HETATM   33  C   UNL     1      -8.277   5.062  66.575  1.00  0.00    -0.108 A  
HETATM   34  C   UNL     1      -8.574   6.284  65.973  1.00  0.00    -0.146 A  
ENDBRANCH  25  29
ENDBRANCH  24  25
ENDBRANCH   8  21
TORSDOF 7
ENDMDL
MODEL       36
REMARK 921   NORMALIZED FREE ENERGY PREDICTED BY IDOCK:   -6.20 KCAL/MOL
REMARK 922        TOTAL FREE ENERGY PREDICTED BY IDOCK:  -10.23 KCAL/MOL
REMARK 923 INTER-LIGAND FREE ENERGY PREDICTED BY IDOCK:   -8.63 KCAL/MOL
REMARK 924 INTRA-LIGAND FREE ENERGY PREDICTED BY IDOCK:   -1.59 KCAL/MOL
REMARK 927      BINDING AFFINITY PREDICTED BY RF-SCORE:    0.00 PKD
ROOT
HETATM    1  C   UNL     1      -9.267   9.960  67.563  1.00  0.00    -0.134 C  
HETATM    2  S   UNL     1     -11.034  10.357  67.460  1.00  0.00    -0.255 SA 
HETATM    3  C   UNL     1     -10.777  11.699  66.282  1.00  0.00    -0.272 C  
HETATM    4  C   UNL     1      -9.678  12.683  66.668  1.00  0.00    -0.249 C  
HETATM    5  OXT UNL     1      -7.941  14.687  67.846  1.00  0.00    -0.123 OA 
HETATM    6  CA  UNL     1      -8.673  12.396  67.547  1.00  0.00    -0.179 C  
HETATM    7  C   UNL     1      -7.733  13.494  68.019  1.00  0.00    -0.143 C  
HETATM    8  CA  UNL     1      -8.835   9.229  68.882  1.00  0.00    -0.135 C  
HETATM    9  N   UNL     1      -8.559  11.127  68.056  1.00  0.00    -0.135 N  
HETATM   10  O   UNL     1      -6.582  13.097  68.594  1.00  0.00    -0.079 OA 
HETATM   11  C   UNL     1      -7.940  10.504  69.083  1.00  0.00    -0.145 C  
HETATM   12  O   UNL     1      -7.093  10.926  69.839  1.00  0.00    -0.138 OA 
ENDROOT
BRANCH   4  13
HETATM   13  C   UNL     1      -9.954  14.047  66.033  1.00  0.00    -0.315 C  
BRANCH  13  14
HETATM   14  S   UNL     1     -11.524  14.831  66.472  1.00  0.00    -0.287 SA 
BRANCH  14  15
HETATM   15  C   UNL     1     -11.234  15.564  67.995  1.00  0.00    -0.332 A  
HETATM   16  N   UNL     1     -10.771  16.765  68.246  1.00  0.00    -0.351 NA 
HETATM   17  N   UNL     1     -10.684  16.856  69.615  1.00  0.00    -0.261 NA 
HETATM   18  C   UNL     1     -11.970  13.610  69.440  1.00  0.00    -0.342 C  
HETATM   19  N   UNL     1     -11.449  14.925  69.182  1.00  0.00    -0.285 NA 
HETATM   20  N   UNL     1     -11.096  15.737  70.195  1.00  0.00    -0.320 NA 
ENDBRANCH  14  15
ENDBRANCH  13  14
ENDBRANCH   4  13
BRANCH   8  21
HETATM   21  N   UNL     1      -9.928   9.053  69.875  1.00  0.00    -0.184 N  
HETATM   22  O   UNL     1     -10.471   6.899  69.356  1.00  0.00    -0.199 OA 
HETATM   23  H   UNL     1     -10.182   9.859  70.446  1.00  0.00     0.000 HD 
HETATM   24  C   UNL     1     -10.622   7.881  70.077  1.00  0.00    -0.242 C  
BRANCH  24  25
HETATM   25  C   UNL     1     -11.608   7.922  71.268  1.00  0.00    -0.276 C  
BRANCH  25  26
HETATM   26  O   UNL     1     -11.634   9.275  71.761  1.00  0.00    -0.366 OA 
HETATM   27  O   UNL     1     -13.908   9.354  71.390  1.00  0.00    -0.336 OA 
HETATM   28  C   UNL     1     -12.863   9.849  71.777  1.00  0.00    -0.442 C  
ENDBRANCH  25  26
BRANCH  25  29
HETATM   29  C   UNL     1     -11.190   6.957  72.370  1.00  0.00    -0.303 A  
HETATM   30  C   UNL     1     -10.391   7.420  73.425  1.00  0.00    -0.411 A  
HETATM   31  C   UNL     1      -9.979   6.552  74.437  1.00  0.00    -0.374 A  
HETATM   32  C   UNL     1     -10.372   5.216  74.418  1.00  0.00    -0.313 A  
HETATM   33  C   UNL     1     -11.178   4.744  73.387  1.00  0.00    -0.425 A  
HETATM   34  C   UNL     1     -11.585   5.607  72.371  1.00  0.00    -0.281 A  
ENDBRANCH  25  29
ENDBRANCH  24  25
ENDBRANCH   8  21
TORSDOF 7
ENDMDL
MODEL       37
REMARK 921   NORMALIZED FREE ENERGY PREDICTED BY IDOCK:   -6.20 KCAL/MOL
REMARK 922        TOTAL FREE ENERGY PREDICTED BY IDOCK:  -10.22 KCAL/MOL
REMARK 923 INTER-LIGAND FREE ENERGY PREDICTED BY IDOCK:   -8.80 KCAL/MOL
REMARK 924 INTRA-LIGAND FREE ENERGY PREDICTED BY IDOCK:   -1.43 KCAL/MOL
REMARK 927      BINDING AFFINITY PREDICTED BY RF-SCORE:    0.00 PKD
ROOT
HETATM    1  C   UNL     1      -7.783  10.510  67.433  1.00  0.00    -0.102 C  
HETATM    2  S   UNL     1      -7.874  11.371  69.027  1.00  0.00     0.021 SA 
HETATM    3  C   UNL     1      -7.720   9.849  69.983  1.00  0.00    -0.178 C  
HETATM    4  C   UNL     1      -8.648   8.722  69.540  1.00  0.00    -0.130 C  
HETATM    5  OXT UNL     1     -10.835   6.935  68.876  1.00  0.00    -0.229 OA 
HETATM    6  CA  UNL     1      -9.222   8.651  68.303  1.00  0.00    -0.137 C  
HETATM    7  C   UNL     1     -10.280   7.598  68.011  1.00  0.00    -0.202 C  
HETATM    8  CA  UNL     1      -8.433  11.282  66.232  1.00  0.00    -0.156 C  
HETATM    9  N   UNL     1      -8.891   9.576  67.347  1.00  0.00    -0.128 N  
HETATM   10  O   UNL     1     -10.550   7.356  66.714  1.00  0.00    -0.310 OA 
HETATM   11  C   UNL     1      -9.375  10.026  66.168  1.00  0.00    -0.173 C  
HETATM   12  O   UNL     1     -10.262   9.573  65.479  1.00  0.00    -0.174 OA 
ENDROOT
BRANCH   4  13
HETATM   13  C   UNL     1      -8.927   7.786  70.716  1.00  0.00    -0.148 C  
BRANCH  13  14
HETATM   14  S   UNL     1      -9.612   8.553  72.204  1.00  0.00    -0.311 SA 
BRANCH  14  15
HETATM   15  C   UNL     1     -11.298   8.656  71.905  1.00  0.00    -0.347 A  
HETATM   16  N   UNL     1     -12.011   9.719  71.621  1.00  0.00    -0.396 NA 
HETATM   17  N   UNL     1     -13.310   9.282  71.513  1.00  0.00    -0.368 NA 
HETATM   18  C   UNL     1     -11.830   6.191  72.203  1.00  0.00    -0.285 C  
HETATM   19  N   UNL     1     -12.130   7.575  71.955  1.00  0.00    -0.293 NA 
HETATM   20  N   UNL     1     -13.393   7.974  71.716  1.00  0.00    -0.342 NA 
ENDBRANCH  14  15
ENDBRANCH  13  14
ENDBRANCH   4  13
BRANCH   8  21
HETATM   21  N   UNL     1      -9.096  12.559  66.608  1.00  0.00    -0.270 N  
HETATM   22  O   UNL     1     -10.399  12.787  64.748  1.00  0.00    -0.310 OA 
HETATM   23  H   UNL     1      -8.806  13.004  67.478  1.00  0.00     0.000 HD 
HETATM   24  C   UNL     1     -10.073  13.183  65.865  1.00  0.00    -0.290 C  
BRANCH  24  25
HETATM   25  C   UNL     1     -10.701  14.420  66.548  1.00  0.00    -0.306 C  
BRANCH  25  26
HETATM   26  O   UNL     1      -9.672  15.423  66.656  1.00  0.00    -0.233 OA 
HETATM   27  O   UNL     1     -10.665  16.607  64.946  1.00  0.00    -0.710 OA 
HETATM   28  C   UNL     1      -9.805  16.465  65.797  1.00  0.00    -0.271 C  
ENDBRANCH  25  26
BRANCH  25  29
HETATM   29  C   UNL     1     -11.258  14.074  67.924  1.00  0.00    -0.295 A  
HETATM   30  C   UNL     1     -11.406  15.085  68.882  1.00  0.00    -0.312 A  
HETATM   31  C   UNL     1     -11.896  14.790  70.155  1.00  0.00    -0.360 A  
HETATM   32  C   UNL     1     -12.259  13.486  70.482  1.00  0.00    -0.433 A  
HETATM   33  C   UNL     1     -12.134  12.473  69.537  1.00  0.00    -0.248 A  
HETATM   34  C   UNL     1     -11.638  12.763  68.266  1.00  0.00    -0.375 A  
ENDBRANCH  25  29
ENDBRANCH  24  25
ENDBRANCH   8  21
TORSDOF 7
ENDMDL
MODEL       38
REMARK 921   NORMALIZED FREE ENERGY PREDICTED BY IDOCK:   -6.19 KCAL/MOL
REMARK 922        TOTAL FREE ENERGY PREDICTED BY IDOCK:  -10.22 KCAL/MOL
REMARK 923 INTER-LIGAND FREE ENERGY PREDICTED BY IDOCK:   -8.83 KCAL/MOL
REMARK 924 INTRA-LIGAND FREE ENERGY PREDICTED BY IDOCK:   -1.40 KCAL/MOL
REMARK 927      BINDING AFFINITY PREDICTED BY RF-SCORE:    0.00 PKD
ROOT
HETATM    1  C   UNL     1     -11.461  10.503  69.210  1.00  0.00    -0.256 C  
HETATM    2  S   UNL     1      -9.694  10.811  68.944  1.00  0.00    -0.182 SA 
HETATM    3  C   UNL     1      -9.242   9.083  69.196  1.00  0.00    -0.144 C  
HETATM    4  C   UNL     1      -9.843   8.442  70.442  1.00  0.00    -0.194 C  
HETATM    5  OXT UNL     1     -10.653   7.605  73.099  1.00  0.00    -0.343 OA 
HETATM    6  CA  UNL     1     -10.950   8.919  71.084  1.00  0.00    -0.286 C  
HETATM    7  C   UNL     1     -11.367   8.333  72.424  1.00  0.00    -0.388 C  
HETATM    8  CA  UNL     1     -12.284  11.757  69.670  1.00  0.00    -0.185 C  
HETATM    9  N   UNL     1     -11.643   9.974  70.549  1.00  0.00    -0.301 N  
HETATM   10  O   UNL     1     -12.625   8.592  72.831  1.00  0.00    -0.289 OA 
HETATM   11  C   UNL     1     -12.561  10.883  70.947  1.00  0.00    -0.397 C  
HETATM   12  O   UNL     1     -13.210  10.924  71.968  1.00  0.00    -0.492 OA 
ENDROOT
BRANCH   4  13
HETATM   13  C   UNL     1      -8.952   7.294  70.918  1.00  0.00    -0.150 C  
BRANCH  13  14
HETATM   14  S   UNL     1      -9.445   5.632  70.400  1.00  0.00    -0.171 SA 
BRANCH  14  15
HETATM   15  C   UNL     1      -8.755   5.439  68.841  1.00  0.00    -0.097 A  
HETATM   16  N   UNL     1      -7.536   5.068  68.531  1.00  0.00    -0.077 NA 
HETATM   17  N   UNL     1      -7.470   5.108  67.158  1.00  0.00    -0.086 NA 
HETATM   18  C   UNL     1     -10.806   6.095  67.497  1.00  0.00    -0.332 C  
HETATM   19  N   UNL     1      -9.441   5.689  67.688  1.00  0.00    -0.113 NA 
HETATM   20  N   UNL     1      -8.628   5.486  66.635  1.00  0.00    -0.115 NA 
ENDBRANCH  14  15
ENDBRANCH  13  14
ENDBRANCH   4  13
BRANCH   8  21
HETATM   21  N   UNL     1     -11.468  12.979  69.897  1.00  0.00    -0.512 N  
HETATM   22  O   UNL     1     -12.147  14.147  68.059  1.00  0.00    -0.351 OA 
HETATM   23  H   UNL     1     -10.833  12.982  70.695  1.00  0.00     0.000 HD 
HETATM   24  C   UNL     1     -11.508  14.106  69.107  1.00  0.00    -0.296 C  
BRANCH  24  25
HETATM   25  C   UNL     1     -10.670  15.290  69.642  1.00  0.00    -0.281 C  
BRANCH  25  26
HETATM   26  O   UNL     1     -11.584  16.228  70.243  1.00  0.00    -0.306 OA 
HETATM   27  O   UNL     1     -11.247  15.225  72.291  1.00  0.00    -0.408 OA 
HETATM   28  C   UNL     1     -11.752  16.077  71.581  1.00  0.00    -0.506 C  
ENDBRANCH  25  26
BRANCH  25  29
HETATM   29  C   UNL     1      -9.873  15.957  68.528  1.00  0.00    -0.210 A  
HETATM   30  C   UNL     1      -8.781  15.285  67.964  1.00  0.00    -0.160 A  
HETATM   31  C   UNL     1      -8.024  15.882  66.954  1.00  0.00    -0.287 A  
HETATM   32  C   UNL     1      -8.358  17.150  66.485  1.00  0.00    -0.309 A  
HETATM   33  C   UNL     1      -9.449  17.825  67.023  1.00  0.00    -0.271 A  
HETATM   34  C   UNL     1     -10.202  17.234  68.037  1.00  0.00    -0.332 A  
ENDBRANCH  25  29
ENDBRANCH  24  25
ENDBRANCH   8  21
TORSDOF 7
ENDMDL
MODEL       39
REMARK 921   NORMALIZED FREE ENERGY PREDICTED BY IDOCK:   -6.19 KCAL/MOL
REMARK 922        TOTAL FREE ENERGY PREDICTED BY IDOCK:  -10.22 KCAL/MOL
REMARK 923 INTER-LIGAND FREE ENERGY PREDICTED BY IDOCK:   -8.93 KCAL/MOL
REMARK 924 INTRA-LIGAND FREE ENERGY PREDICTED BY IDOCK:   -1.29 KCAL/MOL
REMARK 927      BINDING AFFINITY PREDICTED BY RF-SCORE:    0.00 PKD
ROOT
HETATM    1  C   UNL     1     -11.522  13.779  68.129  1.00  0.00    -0.313 C  
HETATM    2  S   UNL     1      -9.845  14.261  68.622  1.00  0.00    -0.201 SA 
HETATM    3  C   UNL     1     -10.082  15.986  68.151  1.00  0.00    -0.234 C  
HETATM    4  C   UNL     1     -10.680  16.190  66.763  1.00  0.00    -0.235 C  
HETATM    5  OXT UNL     1     -11.321  16.343  63.938  1.00  0.00    -0.967 OA 
HETATM    6  CA  UNL     1     -11.389  15.235  66.092  1.00  0.00    -0.160 C  
HETATM    7  C   UNL     1     -11.785  15.457  64.641  1.00  0.00    -0.267 C  
HETATM    8  CA  UNL     1     -11.695  12.258  67.788  1.00  0.00    -0.337 C  
HETATM    9  N   UNL     1     -11.683  14.047  66.711  1.00  0.00    -0.385 N  
HETATM   10  O   UNL     1     -12.754  14.660  64.151  1.00  0.00    -0.738 OA 
HETATM   11  C   UNL     1     -12.088  12.804  66.369  1.00  0.00    -0.300 C  
HETATM   12  O   UNL     1     -12.496  12.395  65.304  1.00  0.00    -0.611 OA 
ENDROOT
BRANCH   4  13
HETATM   13  C   UNL     1     -10.255  17.550  66.209  1.00  0.00    -0.355 C  
BRANCH  13  14
HETATM   14  S   UNL     1      -9.158  18.534  67.257  1.00  0.00    -0.281 SA 
BRANCH  14  15
HETATM   15  C   UNL     1      -7.780  18.839  66.282  1.00  0.00    -0.272 A  
HETATM   16  N   UNL     1      -7.568  19.841  65.464  1.00  0.00    -0.395 NA 
HETATM   17  N   UNL     1      -6.340  19.606  64.893  1.00  0.00    -0.285 NA 
HETATM   18  C   UNL     1      -6.443  16.791  66.963  1.00  0.00    -0.194 C  
HETATM   19  N   UNL     1      -6.701  18.005  66.237  1.00  0.00    -0.222 NA 
HETATM   20  N   UNL     1      -5.803  18.486  65.358  1.00  0.00    -0.212 NA 
ENDBRANCH  14  15
ENDBRANCH  13  14
ENDBRANCH   4  13
BRANCH   8  21
HETATM   21  N   UNL     1     -10.436  11.468  67.843  1.00  0.00    -0.179 N  
HETATM   22  O   UNL     1     -11.169   9.818  69.239  1.00  0.00    -0.190 OA 
HETATM   23  H   UNL     1      -9.625  11.836  67.346  1.00  0.00     0.000 HD 
HETATM   24  C   UNL     1     -10.287  10.276  68.515  1.00  0.00    -0.178 C  
BRANCH  24  25
HETATM   25  C   UNL     1      -8.922   9.585  68.294  1.00  0.00    -0.124 C  
BRANCH  25  26
HETATM   26  O   UNL     1      -7.963  10.240  69.148  1.00  0.00    -0.112 OA 
HETATM   27  O   UNL     1      -8.221   8.558  70.704  1.00  0.00    -0.105 OA 
HETATM   28  C   UNL     1      -7.706   9.590  70.311  1.00  0.00    -0.161 C  
ENDBRANCH  25  26
BRANCH  25  29
HETATM   29  C   UNL     1      -8.485   9.669  66.837  1.00  0.00    -0.121 A  
HETATM   30  C   UNL     1      -7.307  10.352  66.508  1.00  0.00    -0.119 A  
HETATM   31  C   UNL     1      -6.895  10.458  65.179  1.00  0.00    -0.085 A  
HETATM   32  C   UNL     1      -7.646   9.871  64.164  1.00  0.00    -0.139 A  
HETATM   33  C   UNL     1      -8.809   9.174  64.474  1.00  0.00    -0.165 A  
HETATM   34  C   UNL     1      -9.227   9.073  65.800  1.00  0.00    -0.293 A  
ENDBRANCH  25  29
ENDBRANCH  24  25
ENDBRANCH   8  21
TORSDOF 7
ENDMDL
MODEL       40
REMARK 921   NORMALIZED FREE ENERGY PREDICTED BY IDOCK:   -6.17 KCAL/MOL
REMARK 922        TOTAL FREE ENERGY PREDICTED BY IDOCK:  -10.19 KCAL/MOL
REMARK 923 INTER-LIGAND FREE ENERGY PREDICTED BY IDOCK:   -8.78 KCAL/MOL
REMARK 924 INTRA-LIGAND FREE ENERGY PREDICTED BY IDOCK:   -1.42 KCAL/MOL
REMARK 927      BINDING AFFINITY PREDICTED BY RF-SCORE:    0.00 PKD
ROOT
HETATM    1  C   UNL     1     -11.331  16.617  67.233  1.00  0.00     0.324 C  
HETATM    2  S   UNL     1     -10.254  16.058  65.885  1.00  0.00    -0.384 SA 
HETATM    3  C   UNL     1     -11.221  14.565  65.584  1.00  0.00    -0.335 C  
HETATM    4  C   UNL     1     -11.552  13.757  66.834  1.00  0.00    -0.394 C  
HETATM    5  OXT UNL     1     -11.607  12.136  69.239  1.00  0.00    -0.275 OA 
HETATM    6  CA  UNL     1     -11.540  14.273  68.098  1.00  0.00    -0.332 C  
HETATM    7  C   UNL     1     -11.696  13.354  69.300  1.00  0.00    -0.330 C  
HETATM    8  CA  UNL     1     -10.650  17.592  68.256  1.00  0.00    -0.339 C  
HETATM    9  N   UNL     1     -11.318  15.614  68.283  1.00  0.00    -0.350 N  
HETATM   10  O   UNL     1     -12.018  13.939  70.470  1.00  0.00    -0.323 OA 
HETATM   11  C   UNL     1     -10.972  16.450  69.286  1.00  0.00    -0.322 C  
HETATM   12  O   UNL     1     -10.900  16.235  70.476  1.00  0.00    -0.269 OA 
ENDROOT
BRANCH   4  13
HETATM   13  C   UNL     1     -11.761  12.288  66.464  1.00  0.00    -0.352 C  
BRANCH  13  14
HETATM   14  S   UNL     1     -10.344  11.440  65.726  1.00  0.00    -0.263 SA 
BRANCH  14  15
HETATM   15  C   UNL     1     -10.029  10.122  66.777  1.00  0.00    -0.211 A  
HETATM   16  N   UNL     1     -10.548   8.917  66.751  1.00  0.00    -0.204 NA 
HETATM   17  N   UNL     1     -10.004   8.251  67.823  1.00  0.00    -0.175 NA 
HETATM   18  C   UNL     1      -8.340  11.293  68.266  1.00  0.00    -0.150 C  
HETATM   19  N   UNL     1      -9.167  10.200  67.832  1.00  0.00    -0.137 NA 
HETATM   20  N   UNL     1      -9.159   9.027  68.490  1.00  0.00    -0.133 NA 
ENDBRANCH  14  15
ENDBRANCH  13  14
ENDBRANCH   4  13
BRANCH   8  21
HETATM   21  N   UNL     1      -9.205  17.837  68.004  1.00  0.00    -0.266 N  
HETATM   22  O   UNL     1      -9.326  20.093  67.685  1.00  0.00    -0.351 OA 
HETATM   23  H   UNL     1      -8.585  17.027  67.983  1.00  0.00     0.000 HD 
HETATM   24  C   UNL     1      -8.644  19.078  67.798  1.00  0.00    -0.298 C  
BRANCH  24  25
HETATM   25  C   UNL     1      -7.100  19.072  67.704  1.00  0.00    -0.218 C  
BRANCH  25  26
HETATM   26  O   UNL     1      -6.717  17.898  66.962  1.00  0.00    -0.167 OA 
HETATM   27  O   UNL     1      -6.725  19.141  65.020  1.00  0.00    -0.466 OA 
HETATM   28  C   UNL     1      -6.550  18.101  65.631  1.00  0.00    -0.242 C  
ENDBRANCH  25  26
BRANCH  25  29
HETATM   29  C   UNL     1      -6.459  19.065  69.087  1.00  0.00    -0.315 A  
HETATM   30  C   UNL     1      -5.833  17.901  69.550  1.00  0.00    -0.238 A  
HETATM   31  C   UNL     1      -5.254  17.862  70.819  1.00  0.00    -0.279 A  
HETATM   32  C   UNL     1      -5.280  18.991  71.635  1.00  0.00    -0.316 A  
HETATM   33  C   UNL     1      -5.883  20.161  71.184  1.00  0.00    -0.337 A  
HETATM   34  C   UNL     1      -6.468  20.199  69.919  1.00  0.00    -0.326 A  
ENDBRANCH  25  29
ENDBRANCH  24  25
ENDBRANCH   8  21
TORSDOF 7
ENDMDL
MODEL       41
REMARK 921   NORMALIZED FREE ENERGY PREDICTED BY IDOCK:   -6.17 KCAL/MOL
REMARK 922        TOTAL FREE ENERGY PREDICTED BY IDOCK:  -10.19 KCAL/MOL
REMARK 923 INTER-LIGAND FREE ENERGY PREDICTED BY IDOCK:   -9.23 KCAL/MOL
REMARK 924 INTRA-LIGAND FREE ENERGY PREDICTED BY IDOCK:   -0.96 KCAL/MOL
REMARK 927      BINDING AFFINITY PREDICTED BY RF-SCORE:    0.00 PKD
ROOT
HETATM    1  C   UNL     1      -8.965   8.997  71.328  1.00  0.00    -0.211 C  
HETATM    2  S   UNL     1      -8.202   8.578  69.737  1.00  0.00    -0.124 SA 
HETATM    3  C   UNL     1      -8.507  10.211  69.034  1.00  0.00    -0.151 C  
HETATM    4  C   UNL     1      -9.931  10.725  69.216  1.00  0.00    -0.182 C  
HETATM    5  OXT UNL     1     -12.783  11.261  69.212  1.00  0.00    -0.202 OA 
HETATM    6  CA  UNL     1     -10.792  10.262  70.169  1.00  0.00    -0.302 C  
HETATM    7  C   UNL     1     -12.250  10.695  70.157  1.00  0.00    -0.320 C  
HETATM    8  CA  UNL     1      -9.491   7.767  72.148  1.00  0.00    -0.164 C  
HETATM    9  N   UNL     1     -10.353   9.353  71.096  1.00  0.00    -0.315 N  
HETATM   10  O   UNL     1     -12.950  10.492  71.289  1.00  0.00    -0.381 OA 
HETATM   11  C   UNL     1     -10.882   8.480  71.982  1.00  0.00    -0.335 C  
HETATM   12  O   UNL     1     -12.030   8.357  72.348  1.00  0.00    -0.372 OA 
ENDROOT
BRANCH   4  13
HETATM   13  C   UNL     1     -10.271  11.718  68.103  1.00  0.00    -0.203 C  
BRANCH  13  14
HETATM   14  S   UNL     1      -9.781  11.241  66.429  1.00  0.00    -0.217 SA 
BRANCH  14  15
HETATM   15  C   UNL     1     -11.077  11.758  65.431  1.00  0.00    -0.279 A  
HETATM   16  N   UNL     1     -12.235  12.257  65.794  1.00  0.00    -0.603 NA 
HETATM   17  N   UNL     1     -12.932  12.472  64.629  1.00  0.00    -0.844 NA 
HETATM   18  C   UNL     1      -9.996  11.229  63.196  1.00  0.00    -0.365 C  
HETATM   19  N   UNL     1     -11.046  11.680  64.069  1.00  0.00    -0.373 NA 
HETATM   20  N   UNL     1     -12.214  12.122  63.570  1.00  0.00    -0.555 NA 
ENDBRANCH  14  15
ENDBRANCH  13  14
ENDBRANCH   4  13
BRANCH   8  21
HETATM   21  N   UNL     1      -9.356   6.460  71.451  1.00  0.00    -0.153 N  
HETATM   22  O   UNL     1     -10.972   5.332  72.601  1.00  0.00    -0.238 OA 
HETATM   23  H   UNL     1      -8.625   6.373  70.747  1.00  0.00     0.000 HD 
HETATM   24  C   UNL     1     -10.149   5.360  71.690  1.00  0.00    -0.203 C  
BRANCH  24  25
HETATM   25  C   UNL     1      -9.899   4.173  70.730  1.00  0.00    -0.178 C  
BRANCH  25  26
HETATM   26  O   UNL     1      -8.573   3.674  70.998  1.00  0.00    -0.070 OA 
HETATM   27  O   UNL     1      -9.490   1.890  72.134  1.00  0.00    -0.082 OA 
HETATM   28  C   UNL     1      -8.537   2.511  71.695  1.00  0.00    -0.064 C  
ENDBRANCH  25  26
BRANCH  25  29
HETATM   29  C   UNL     1     -10.027   4.600  69.273  1.00  0.00    -0.231 A  
HETATM   30  C   UNL     1     -10.752   5.755  68.953  1.00  0.00    -0.334 A  
HETATM   31  C   UNL     1     -10.898   6.157  67.625  1.00  0.00    -0.421 A  
HETATM   32  C   UNL     1     -10.310   5.419  66.601  1.00  0.00    -0.325 A  
HETATM   33  C   UNL     1      -9.573   4.278  66.901  1.00  0.00    -0.225 A  
HETATM   34  C   UNL     1      -9.431   3.870  68.227  1.00  0.00    -0.212 A  
ENDBRANCH  25  29
ENDBRANCH  24  25
ENDBRANCH   8  21
TORSDOF 7
ENDMDL
MODEL       42
REMARK 921   NORMALIZED FREE ENERGY PREDICTED BY IDOCK:   -6.13 KCAL/MOL
REMARK 922        TOTAL FREE ENERGY PREDICTED BY IDOCK:  -10.14 KCAL/MOL
REMARK 923 INTER-LIGAND FREE ENERGY PREDICTED BY IDOCK:   -9.16 KCAL/MOL
REMARK 924 INTRA-LIGAND FREE ENERGY PREDICTED BY IDOCK:   -0.98 KCAL/MOL
REMARK 927      BINDING AFFINITY PREDICTED BY RF-SCORE:    0.00 PKD
ROOT
HETATM    1  C   UNL     1      -7.542   8.560  68.211  1.00  0.00    -0.097 C  
HETATM    2  S   UNL     1      -9.162   8.050  67.577  1.00  0.00    -0.138 SA 
HETATM    3  C   UNL     1      -9.051   9.114  66.124  1.00  0.00    -0.187 C  
HETATM    4  C   UNL     1      -8.638  10.552  66.419  1.00  0.00    -0.147 C  
HETATM    5  OXT UNL     1      -8.360  13.315  67.260  1.00  0.00    -0.181 OA 
HETATM    6  CA  UNL     1      -7.982  10.938  67.552  1.00  0.00    -0.115 C  
HETATM    7  C   UNL     1      -7.778  12.415  67.851  1.00  0.00    -0.135 C  
HETATM    8  CA  UNL     1      -7.354   8.374  69.758  1.00  0.00    -0.060 C  
HETATM    9  N   UNL     1      -7.569   9.991  68.454  1.00  0.00    -0.082 N  
HETATM   10  O   UNL     1      -6.848  12.722  68.775  1.00  0.00    -0.087 OA 
HETATM   11  C   UNL     1      -7.162   9.934  69.741  1.00  0.00    -0.118 C  
HETATM   12  O   UNL     1      -6.875  10.835  70.497  1.00  0.00    -0.285 OA 
ENDROOT
BRANCH   4  13
HETATM   13  C   UNL     1      -9.181  11.482  65.332  1.00  0.00    -0.108 C  
BRANCH  13  14
HETATM   14  S   UNL     1     -10.728  10.974  64.545  1.00  0.00    -0.169 SA 
BRANCH  14  15
HETATM   15  C   UNL     1     -11.617  12.428  64.353  1.00  0.00    -0.354 A  
HETATM   16  N   UNL     1     -11.950  13.038  63.240  1.00  0.00    -0.535 NA 
HETATM   17  N   UNL     1     -12.618  14.177  63.622  1.00  0.00    -0.778 NA 
HETATM   18  C   UNL     1     -11.994  12.904  66.817  1.00  0.00    -0.350 C  
HETATM   19  N   UNL     1     -12.081  13.162  65.406  1.00  0.00    -0.405 NA 
HETATM   20  N   UNL     1     -12.702  14.262  64.943  1.00  0.00    -0.662 NA 
ENDBRANCH  14  15
ENDBRANCH  13  14
ENDBRANCH   4  13
BRANCH   8  21
HETATM   21  N   UNL     1      -8.566   7.888  70.470  1.00  0.00    -0.130 N  
HETATM   22  O   UNL     1      -8.052   8.700  72.540  1.00  0.00    -0.347 OA 
HETATM   23  H   UNL     1      -9.233   7.327  69.940  1.00  0.00     0.000 HD 
HETATM   24  C   UNL     1      -8.851   8.140  71.794  1.00  0.00    -0.155 C  
BRANCH  24  25
HETATM   25  C   UNL     1     -10.243   7.645  72.252  1.00  0.00    -0.216 C  
BRANCH  25  26
HETATM   26  O   UNL     1     -10.509   6.407  71.563  1.00  0.00    -0.211 OA 
HETATM   27  O   UNL     1     -10.995   5.405  73.581  1.00  0.00    -0.289 OA 
HETATM   28  C   UNL     1     -10.894   5.384  72.367  1.00  0.00    -0.241 C  
ENDBRANCH  25  26
BRANCH  25  29
HETATM   29  C   UNL     1     -11.327   8.671  71.946  1.00  0.00    -0.417 A  
HETATM   30  C   UNL     1     -11.024   9.774  71.137  1.00  0.00    -0.386 A  
HETATM   31  C   UNL     1     -11.995  10.738  70.857  1.00  0.00    -0.438 A  
HETATM   32  C   UNL     1     -13.283  10.603  71.369  1.00  0.00    -0.420 A  
HETATM   33  C   UNL     1     -13.606   9.506  72.161  1.00  0.00    -0.500 A  
HETATM   34  C   UNL     1     -12.636   8.546  72.447  1.00  0.00    -0.409 A  
ENDBRANCH  25  29
ENDBRANCH  24  25
ENDBRANCH   8  21
TORSDOF 7
ENDMDL
MODEL       43
REMARK 921   NORMALIZED FREE ENERGY PREDICTED BY IDOCK:   -6.11 KCAL/MOL
REMARK 922        TOTAL FREE ENERGY PREDICTED BY IDOCK:  -10.11 KCAL/MOL
REMARK 923 INTER-LIGAND FREE ENERGY PREDICTED BY IDOCK:   -9.02 KCAL/MOL
REMARK 924 INTRA-LIGAND FREE ENERGY PREDICTED BY IDOCK:   -1.09 KCAL/MOL
REMARK 927      BINDING AFFINITY PREDICTED BY RF-SCORE:    0.00 PKD
ROOT
HETATM    1  C   UNL     1     -11.780  12.422  66.399  1.00  0.00    -0.391 C  
HETATM    2  S   UNL     1     -11.210  11.387  67.775  1.00  0.00    -0.294 SA 
HETATM    3  C   UNL     1     -11.673  12.602  69.026  1.00  0.00    -0.318 C  
HETATM    4  C   UNL     1     -11.196  14.022  68.740  1.00  0.00    -0.298 C  
HETATM    5  OXT UNL     1      -9.758  16.497  68.265  1.00  0.00    -0.221 OA 
HETATM    6  CA  UNL     1     -10.851  14.474  67.499  1.00  0.00    -0.289 C  
HETATM    7  C   UNL     1     -10.208  15.842  67.335  1.00  0.00    -0.270 C  
HETATM    8  CA  UNL     1     -11.107  12.105  65.018  1.00  0.00    -0.320 C  
HETATM    9  N   UNL     1     -11.024  13.661  66.408  1.00  0.00    -0.296 N  
HETATM   10  O   UNL     1     -10.209  16.366  66.095  1.00  0.00    -0.315 OA 
HETATM   11  C   UNL     1     -10.601  13.589  65.127  1.00  0.00    -0.355 C  
HETATM   12  O   UNL     1      -9.996  14.407  64.470  1.00  0.00    -0.146 OA 
ENDROOT
BRANCH   4  13
HETATM   13  C   UNL     1     -11.044  14.793  70.052  1.00  0.00    -0.204 C  
BRANCH  13  14
HETATM   14  S   UNL     1     -12.496  15.715  70.611  1.00  0.00    -0.366 SA 
BRANCH  14  15
HETATM   15  C   UNL     1     -12.481  15.558  72.319  1.00  0.00    -0.393 A  
HETATM   16  N   UNL     1     -12.052  16.418  73.212  1.00  0.00    -0.504 NA 
HETATM   17  N   UNL     1     -12.219  15.807  74.432  1.00  0.00    -0.588 NA 
HETATM   18  C   UNL     1     -13.503  13.238  72.440  1.00  0.00    -0.569 C  
HETATM   19  N   UNL     1     -12.922  14.441  72.969  1.00  0.00    -0.505 NA 
HETATM   20  N   UNL     1     -12.749  14.599  74.293  1.00  0.00    -0.189 NA 
ENDBRANCH  14  15
ENDBRANCH  13  14
ENDBRANCH   4  13
BRANCH   8  21
HETATM   21  N   UNL     1     -10.047  11.063  65.074  1.00  0.00    -0.275 N  
HETATM   22  O   UNL     1      -9.715  10.842  62.827  1.00  0.00    -0.301 OA 
HETATM   23  H   UNL     1      -9.790  10.699  65.991  1.00  0.00     0.000 HD 
HETATM   24  C   UNL     1      -9.389  10.555  63.976  1.00  0.00    -0.267 C  
BRANCH  24  25
HETATM   25  C   UNL     1      -8.231   9.589  64.318  1.00  0.00    -0.157 C  
BRANCH  25  26
HETATM   26  O   UNL     1      -8.280   8.503  63.371  1.00  0.00    -0.169 OA 
HETATM   27  O   UNL     1      -5.984   8.581  63.184  1.00  0.00    -0.076 OA 
HETATM   28  C   UNL     1      -7.070   8.100  62.910  1.00  0.00    -0.088 C  
ENDBRANCH  25  26
BRANCH  25  29
HETATM   29  C   UNL     1      -8.348   9.062  65.743  1.00  0.00    -0.133 A  
HETATM   30  C   UNL     1      -7.365   9.396  66.684  1.00  0.00    -0.090 A  
HETATM   31  C   UNL     1      -7.439   8.912  67.991  1.00  0.00    -0.092 A  
HETATM   32  C   UNL     1      -8.503   8.101  68.378  1.00  0.00    -0.126 A  
HETATM   33  C   UNL     1      -9.497   7.773  67.461  1.00  0.00    -0.170 A  
HETATM   34  C   UNL     1      -9.421   8.250  66.153  1.00  0.00    -0.241 A  
ENDBRANCH  25  29
ENDBRANCH  24  25
ENDBRANCH   8  21
TORSDOF 7
ENDMDL
MODEL       44
REMARK 921   NORMALIZED FREE ENERGY PREDICTED BY IDOCK:   -6.06 KCAL/MOL
REMARK 922        TOTAL FREE ENERGY PREDICTED BY IDOCK:  -10.04 KCAL/MOL
REMARK 923 INTER-LIGAND FREE ENERGY PREDICTED BY IDOCK:   -8.58 KCAL/MOL
REMARK 924 INTRA-LIGAND FREE ENERGY PREDICTED BY IDOCK:   -1.46 KCAL/MOL
REMARK 927      BINDING AFFINITY PREDICTED BY RF-SCORE:    0.00 PKD
ROOT
HETATM    1  C   UNL     1      -9.818  14.485  68.802  1.00  0.00    -0.220 C  
HETATM    2  S   UNL     1      -8.209  13.818  69.309  1.00  0.00     0.620 SA 
HETATM    3  C   UNL     1      -7.445  15.449  69.420  1.00  0.00    -0.218 C  
HETATM    4  C   UNL     1      -7.680  16.346  68.210  1.00  0.00    -0.162 C  
HETATM    5  OXT UNL     1      -7.811  17.656  65.624  1.00  0.00    -0.533 OA 
HETATM    6  CA  UNL     1      -8.702  16.172  67.321  1.00  0.00    -0.183 C  
HETATM    7  C   UNL     1      -8.751  16.994  66.042  1.00  0.00    -0.132 C  
HETATM    8  CA  UNL     1     -10.726  13.478  68.012  1.00  0.00    -0.251 C  
HETATM    9  N   UNL     1      -9.647  15.206  67.553  1.00  0.00    -0.206 N  
HETATM   10  O   UNL     1      -9.929  17.030  65.392  1.00  0.00    -0.556 OA 
HETATM   11  C   UNL     1     -10.604  14.544  66.865  1.00  0.00    -0.279 C  
HETATM   12  O   UNL     1     -11.039  14.759  65.755  1.00  0.00    -0.324 OA 
ENDROOT
BRANCH   4  13
HETATM   13  C   UNL     1      -6.541  17.358  68.083  1.00  0.00    -0.166 C  
BRANCH  13  14
HETATM   14  S   UNL     1      -6.722  18.889  69.030  1.00  0.00    -0.299 SA 
BRANCH  14  15
HETATM   15  C   UNL     1      -8.190  19.577  68.469  1.00  0.00    -0.338 A  
HETATM   16  N   UNL     1      -9.407  19.371  68.912  1.00  0.00    -0.386 NA 
HETATM   17  N   UNL     1     -10.231  20.122  68.107  1.00  0.00    -0.392 NA 
HETATM   18  C   UNL     1      -7.192  21.004  66.622  1.00  0.00    -0.056 C  
HETATM   19  N   UNL     1      -8.250  20.450  67.422  1.00  0.00    -0.337 NA 
HETATM   20  N   UNL     1      -9.533  20.784  67.194  1.00  0.00    -0.373 NA 
ENDBRANCH  14  15
ENDBRANCH  13  14
ENDBRANCH   4  13
BRANCH   8  21
HETATM   21  N   UNL     1     -10.088  12.163  67.733  1.00  0.00    -0.195 N  
HETATM   22  O   UNL     1     -11.994  10.913  67.629  1.00  0.00    -0.512 OA 
HETATM   23  H   UNL     1      -9.069  12.127  67.710  1.00  0.00     0.000 HD 
HETATM   24  C   UNL     1     -10.775  10.992  67.502  1.00  0.00    -0.244 C  
BRANCH  24  25
HETATM   25  C   UNL     1      -9.881   9.799  67.092  1.00  0.00    -0.188 C  
BRANCH  25  26
HETATM   26  O   UNL     1     -10.030   9.617  65.670  1.00  0.00    -0.305 OA 
HETATM   27  O   UNL     1      -8.036  10.724  65.334  1.00  0.00    -0.126 OA 
HETATM   28  C   UNL     1      -9.012  10.119  64.927  1.00  0.00    -0.197 C  
ENDBRANCH  25  26
BRANCH  25  29
HETATM   29  C   UNL     1     -10.271   8.529  67.839  1.00  0.00    -0.273 A  
HETATM   30  C   UNL     1     -10.600   7.377  67.114  1.00  0.00    -0.413 A  
HETATM   31  C   UNL     1     -10.978   6.206  67.773  1.00  0.00    -0.400 A  
HETATM   32  C   UNL     1     -11.018   6.168  69.165  1.00  0.00    -0.450 A  
HETATM   33  C   UNL     1     -10.678   7.299  69.901  1.00  0.00    -0.257 A  
HETATM   34  C   UNL     1     -10.307   8.471  69.244  1.00  0.00    -0.227 A  
ENDBRANCH  25  29
ENDBRANCH  24  25
ENDBRANCH   8  21
TORSDOF 7
ENDMDL
MODEL       45
REMARK 921   NORMALIZED FREE ENERGY PREDICTED BY IDOCK:   -6.05 KCAL/MOL
REMARK 922        TOTAL FREE ENERGY PREDICTED BY IDOCK:  -10.01 KCAL/MOL
REMARK 923 INTER-LIGAND FREE ENERGY PREDICTED BY IDOCK:   -8.51 KCAL/MOL
REMARK 924 INTRA-LIGAND FREE ENERGY PREDICTED BY IDOCK:   -1.50 KCAL/MOL
REMARK 927      BINDING AFFINITY PREDICTED BY RF-SCORE:    0.00 PKD
ROOT
HETATM    1  C   UNL     1     -10.498  10.398  69.133  1.00  0.00    -0.227 C  
HETATM    2  S   UNL     1      -8.818  11.076  69.048  1.00  0.00     0.012 SA 
HETATM    3  C   UNL     1      -8.042   9.495  69.441  1.00  0.00    -0.116 C  
HETATM    4  C   UNL     1      -8.638   8.776  70.646  1.00  0.00    -0.203 C  
HETATM    5  OXT UNL     1      -9.564   7.860  73.239  1.00  0.00    -0.267 OA 
HETATM    6  CA  UNL     1      -9.890   9.019  71.136  1.00  0.00    -0.300 C  
HETATM    7  C   UNL     1     -10.330   8.395  72.451  1.00  0.00    -0.329 C  
HETATM    8  CA  UNL     1     -11.618  11.456  69.431  1.00  0.00    -0.323 C  
HETATM    9  N   UNL     1     -10.723   9.882  70.471  1.00  0.00    -0.306 N  
HETATM   10  O   UNL     1     -11.654   8.386  72.702  1.00  0.00    -0.385 OA 
HETATM   11  C   UNL     1     -11.853  10.581  70.714  1.00  0.00    -0.365 C  
HETATM   12  O   UNL     1     -12.614  10.509  71.654  1.00  0.00    -0.394 OA 
ENDROOT
BRANCH   4  13
HETATM   13  C   UNL     1      -7.587   7.863  71.279  1.00  0.00    -0.081 C  
BRANCH  13  14
HETATM   14  S   UNL     1      -7.354   6.249  70.497  1.00  0.00    -0.087 SA 
BRANCH  14  15
HETATM   15  C   UNL     1      -8.397   5.193  71.357  1.00  0.00    -0.119 A  
HETATM   16  N   UNL     1      -8.176   4.578  72.494  1.00  0.00    -0.107 NA 
HETATM   17  N   UNL     1      -9.298   3.822  72.736  1.00  0.00    -0.107 NA 
HETATM   18  C   UNL     1     -10.344   5.265  69.729  1.00  0.00    -0.299 C  
HETATM   19  N   UNL     1      -9.637   4.842  70.907  1.00  0.00    -0.164 NA 
HETATM   20  N   UNL     1     -10.196   3.977  71.772  1.00  0.00    -0.120 NA 
ENDBRANCH  14  15
ENDBRANCH  13  14
ENDBRANCH   4  13
BRANCH   8  21
HETATM   21  N   UNL     1     -11.114  12.833  69.680  1.00  0.00    -0.466 N  
HETATM   22  O   UNL     1     -11.878  13.793  67.757  1.00  0.00    -0.337 OA 
HETATM   23  H   UNL     1     -10.565  12.989  70.525  1.00  0.00     0.000 HD 
HETATM   24  C   UNL     1     -11.335  13.910  68.852  1.00  0.00    -0.282 C  
BRANCH  24  25
HETATM   25  C   UNL     1     -10.827  15.260  69.412  1.00  0.00    -0.262 C  
BRANCH  25  26
HETATM   26  O   UNL     1     -11.959  15.943  69.984  1.00  0.00    -0.342 OA 
HETATM   27  O   UNL     1     -11.379  15.135  72.064  1.00  0.00    -0.418 OA 
HETATM   28  C   UNL     1     -12.088  15.799  71.327  1.00  0.00    -0.437 C  
ENDBRANCH  25  26
BRANCH  25  29
HETATM   29  C   UNL     1     -10.184  16.108  68.322  1.00  0.00    -0.248 A  
HETATM   30  C   UNL     1     -10.758  17.338  67.977  1.00  0.00    -0.367 A  
HETATM   31  C   UNL     1     -10.199  18.126  66.970  1.00  0.00    -0.373 A  
HETATM   32  C   UNL     1      -9.051  17.702  66.305  1.00  0.00    -0.212 A  
HETATM   33  C   UNL     1      -8.458  16.490  66.646  1.00  0.00    -0.299 A  
HETATM   34  C   UNL     1      -9.019  15.698  67.647  1.00  0.00    -0.183 A  
ENDBRANCH  25  29
ENDBRANCH  24  25
ENDBRANCH   8  21
TORSDOF 7
ENDMDL
MODEL       46
REMARK 921   NORMALIZED FREE ENERGY PREDICTED BY IDOCK:   -6.01 KCAL/MOL
REMARK 922        TOTAL FREE ENERGY PREDICTED BY IDOCK:   -9.97 KCAL/MOL
REMARK 923 INTER-LIGAND FREE ENERGY PREDICTED BY IDOCK:   -8.16 KCAL/MOL
REMARK 924 INTRA-LIGAND FREE ENERGY PREDICTED BY IDOCK:   -1.81 KCAL/MOL
REMARK 927      BINDING AFFINITY PREDICTED BY RF-SCORE:    0.00 PKD
ROOT
HETATM    1  C   UNL     1      -7.989   7.814  66.979  1.00  0.00    -0.116 C  
HETATM    2  S   UNL     1      -7.910   9.319  67.988  1.00  0.00    -0.092 SA 
HETATM    3  C   UNL     1      -7.144   8.474  69.386  1.00  0.00    -0.054 C  
HETATM    4  C   UNL     1      -7.831   7.177  69.799  1.00  0.00    -0.118 C  
HETATM    5  OXT UNL     1      -9.580   5.056  70.726  1.00  0.00    -0.158 OA 
HETATM    6  CA  UNL     1      -8.649   6.455  68.979  1.00  0.00    -0.124 C  
HETATM    7  C   UNL     1      -9.440   5.279  69.532  1.00  0.00    -0.138 C  
HETATM    8  CA  UNL     1      -9.086   7.833  65.857  1.00  0.00    -0.072 C  
HETATM    9  N   UNL     1      -8.808   6.835  67.671  1.00  0.00    -0.118 N  
HETATM   10  O   UNL     1      -9.945   4.414  68.632  1.00  0.00    -0.113 OA 
HETATM   11  C   UNL     1      -9.662   6.604  66.649  1.00  0.00    -0.159 C  
HETATM   12  O   UNL     1     -10.543   5.778  66.557  1.00  0.00    -0.258 OA 
ENDROOT
BRANCH   4  13
HETATM   13  C   UNL     1      -7.567   6.898  71.279  1.00  0.00    -0.087 C  
BRANCH  13  14
HETATM   14  S   UNL     1      -7.998   8.223  72.432  1.00  0.00    -0.122 SA 
BRANCH  14  15
HETATM   15  C   UNL     1      -9.686   8.448  72.226  1.00  0.00    -0.316 A  
HETATM   16  N   UNL     1     -10.304   9.299  71.443  1.00  0.00    -0.335 NA 
HETATM   17  N   UNL     1     -11.647   9.113  71.672  1.00  0.00    -0.355 NA 
HETATM   18  C   UNL     1     -10.452   6.675  73.873  1.00  0.00    -0.326 C  
HETATM   19  N   UNL     1     -10.622   7.735  72.917  1.00  0.00    -0.338 NA 
HETATM   20  N   UNL     1     -11.851   8.160  72.571  1.00  0.00    -0.394 NA 
ENDBRANCH  14  15
ENDBRANCH  13  14
ENDBRANCH   4  13
BRANCH   8  21
HETATM   21  N   UNL     1      -9.943   9.049  65.855  1.00  0.00    -0.436 N  
HETATM   22  O   UNL     1      -9.063  10.040  63.998  1.00  0.00    -0.220 OA 
HETATM   23  H   UNL     1     -10.604   9.163  66.623  1.00  0.00     0.000 HD 
HETATM   24  C   UNL     1      -9.907  10.031  64.890  1.00  0.00    -0.281 C  
BRANCH  24  25
HETATM   25  C   UNL     1     -11.000  11.114  65.042  1.00  0.00    -0.104 C  
BRANCH  25  26
HETATM   26  O   UNL     1     -11.030  11.872  63.817  1.00  0.00    -0.350 OA 
HETATM   27  O   UNL     1     -13.328  11.990  63.963  1.00  0.00    -0.703 OA 
HETATM   28  C   UNL     1     -12.270  12.253  63.418  1.00  0.00    -0.527 C  
ENDBRANCH  25  26
BRANCH  25  29
HETATM   29  C   UNL     1     -10.717  12.027  66.229  1.00  0.00    -0.302 A  
HETATM   30  C   UNL     1     -11.734  12.286  67.157  1.00  0.00    -0.396 A  
HETATM   31  C   UNL     1     -11.505  13.133  68.243  1.00  0.00    -0.349 A  
HETATM   32  C   UNL     1     -10.255  13.719  68.424  1.00  0.00    -0.248 A  
HETATM   33  C   UNL     1      -9.229  13.459  67.520  1.00  0.00    -0.219 A  
HETATM   34  C   UNL     1      -9.457  12.619  66.431  1.00  0.00    -0.231 A  
ENDBRANCH  25  29
ENDBRANCH  24  25
ENDBRANCH   8  21
TORSDOF 7
ENDMDL
MODEL       47
REMARK 921   NORMALIZED FREE ENERGY PREDICTED BY IDOCK:   -5.97 KCAL/MOL
REMARK 922        TOTAL FREE ENERGY PREDICTED BY IDOCK:   -9.91 KCAL/MOL
REMARK 923 INTER-LIGAND FREE ENERGY PREDICTED BY IDOCK:   -8.62 KCAL/MOL
REMARK 924 INTRA-LIGAND FREE ENERGY PREDICTED BY IDOCK:   -1.29 KCAL/MOL
REMARK 927      BINDING AFFINITY PREDICTED BY RF-SCORE:    0.00 PKD
ROOT
HETATM    1  C   UNL     1      -8.473  12.426  66.908  1.00  0.00    -0.147 C  
HETATM    2  S   UNL     1      -7.595  12.957  68.404  1.00  0.00    -0.128 SA 
HETATM    3  C   UNL     1      -6.693  11.402  68.559  1.00  0.00    -0.069 C  
HETATM    4  C   UNL     1      -7.557  10.151  68.447  1.00  0.00    -0.087 C  
HETATM    5  OXT UNL     1      -9.441   7.962  68.729  1.00  0.00    -0.147 OA 
HETATM    6  CA  UNL     1      -8.787  10.126  67.855  1.00  0.00    -0.125 C  
HETATM    7  C   UNL     1      -9.659   8.884  67.955  1.00  0.00    -0.148 C  
HETATM    8  CA  UNL     1      -9.827  13.173  66.642  1.00  0.00    -0.261 C  
HETATM    9  N   UNL     1      -9.261  11.249  67.227  1.00  0.00    -0.164 N  
HETATM   10  O   UNL     1     -10.682   8.792  67.084  1.00  0.00    -0.271 OA 
HETATM   11  C   UNL     1     -10.441  11.734  66.781  1.00  0.00    -0.225 C  
HETATM   12  O   UNL     1     -11.508  11.172  66.666  1.00  0.00    -0.338 OA 
ENDROOT
BRANCH   4  13
HETATM   13  C   UNL     1      -6.900   8.996  69.203  1.00  0.00    -0.054 C  
BRANCH  13  14
HETATM   14  S   UNL     1      -6.011   9.433  70.717  1.00  0.00    -0.070 SA 
BRANCH  14  15
HETATM   15  C   UNL     1      -7.059   8.960  71.990  1.00  0.00     0.076 A  
HETATM   16  N   UNL     1      -8.338   8.676  71.928  1.00  0.00    -0.286 NA 
HETATM   17  N   UNL     1      -8.722   8.397  73.218  1.00  0.00    -0.335 NA 
HETATM   18  C   UNL     1      -5.345   9.026  73.861  1.00  0.00    -0.112 C  
HETATM   19  N   UNL     1      -6.650   8.844  73.287  1.00  0.00    -0.325 NA 
HETATM   20  N   UNL     1      -7.698   8.497  74.055  1.00  0.00    -0.400 NA 
ENDBRANCH  14  15
ENDBRANCH  13  14
ENDBRANCH   4  13
BRANCH   8  21
HETATM   21  N   UNL     1     -10.216  14.138  67.704  1.00  0.00    -0.239 N  
HETATM   22  O   UNL     1     -12.382  14.448  67.059  1.00  0.00    -0.353 OA 
HETATM   23  H   UNL     1      -9.493  14.439  68.359  1.00  0.00     0.000 HD 
HETATM   24  C   UNL     1     -11.482  14.655  67.868  1.00  0.00    -0.329 C  
BRANCH  24  25
HETATM   25  C   UNL     1     -11.657  15.524  69.135  1.00  0.00    -0.362 C  
BRANCH  25  26
HETATM   26  O   UNL     1     -10.340  15.882  69.599  1.00  0.00    -0.261 OA 
HETATM   27  O   UNL     1     -10.569  17.952  68.610  1.00  0.00    -0.302 OA 
HETATM   28  C   UNL     1      -9.947  17.139  69.271  1.00  0.00    -0.151 C  
ENDBRANCH  25  26
BRANCH  25  29
HETATM   29  C   UNL     1     -12.422  14.778  70.221  1.00  0.00    -0.393 A  
HETATM   30  C   UNL     1     -13.392  15.455  70.970  1.00  0.00    -0.545 A  
HETATM   31  C   UNL     1     -14.095  14.799  71.982  1.00  0.00    -0.604 A  
HETATM   32  C   UNL     1     -13.848  13.454  72.247  1.00  0.00    -0.671 A  
HETATM   33  C   UNL     1     -12.899  12.762  71.502  1.00  0.00    -0.369 A  
HETATM   34  C   UNL     1     -12.191  13.417  70.495  1.00  0.00    -0.425 A  
ENDBRANCH  25  29
ENDBRANCH  24  25
ENDBRANCH   8  21
TORSDOF 7
ENDMDL
MODEL       48
REMARK 921   NORMALIZED FREE ENERGY PREDICTED BY IDOCK:   -5.96 KCAL/MOL
REMARK 922        TOTAL FREE ENERGY PREDICTED BY IDOCK:   -9.89 KCAL/MOL
REMARK 923 INTER-LIGAND FREE ENERGY PREDICTED BY IDOCK:   -8.87 KCAL/MOL
REMARK 924 INTRA-LIGAND FREE ENERGY PREDICTED BY IDOCK:   -1.02 KCAL/MOL
REMARK 927      BINDING AFFINITY PREDICTED BY RF-SCORE:    0.00 PKD
ROOT
HETATM    1  C   UNL     1      -8.998   9.929  68.339  1.00  0.00    -0.120 C  
HETATM    2  S   UNL     1     -10.431  10.451  69.319  1.00  0.00    -0.249 SA 
HETATM    3  C   UNL     1     -10.577   8.860  70.157  1.00  0.00    -0.222 C  
HETATM    4  C   UNL     1     -10.541   7.648  69.233  1.00  0.00    -0.206 C  
HETATM    5  OXT UNL     1     -10.974   5.555  67.270  1.00  0.00    -0.153 OA 
HETATM    6  CA  UNL     1     -10.015   7.667  67.973  1.00  0.00    -0.175 C  
HETATM    7  C   UNL     1     -10.191   6.469  67.053  1.00  0.00    -0.215 C  
HETATM    8  CA  UNL     1      -8.786  10.732  67.007  1.00  0.00    -0.136 C  
HETATM    9  N   UNL     1      -9.386   8.797  67.517  1.00  0.00    -0.135 N  
HETATM   10  O   UNL     1      -9.377   6.405  65.981  1.00  0.00    -0.125 OA 
HETATM   11  C   UNL     1      -8.991   9.326  66.337  1.00  0.00    -0.154 C  
HETATM   12  O   UNL     1      -8.947   8.812  65.241  1.00  0.00    -0.194 OA 
ENDROOT
BRANCH   4  13
HETATM   13  C   UNL     1     -11.288   6.480  69.877  1.00  0.00    -0.406 C  
BRANCH  13  14
HETATM   14  S   UNL     1     -12.258   6.868  71.354  1.00  0.00    -0.373 SA 
BRANCH  14  15
HETATM   15  C   UNL     1     -11.498   5.991  72.617  1.00  0.00    -0.253 A  
HETATM   16  N   UNL     1     -11.747   4.769  73.024  1.00  0.00    -0.194 NA 
HETATM   17  N   UNL     1     -10.901   4.547  74.084  1.00  0.00    -0.262 NA 
HETATM   18  C   UNL     1      -9.868   7.801  73.332  1.00  0.00    -0.283 C  
HETATM   19  N   UNL     1     -10.507   6.514  73.395  1.00  0.00    -0.251 NA 
HETATM   20  N   UNL     1     -10.140   5.607  74.319  1.00  0.00    -0.237 NA 
ENDBRANCH  14  15
ENDBRANCH  13  14
ENDBRANCH   4  13
BRANCH   8  21
HETATM   21  N   UNL     1      -9.844  11.737  66.720  1.00  0.00    -0.196 N  
HETATM   22  O   UNL     1      -8.545  13.606  66.886  1.00  0.00    -0.194 OA 
HETATM   23  H   UNL     1     -10.796  11.397  66.587  1.00  0.00     0.000 HD 
HETATM   24  C   UNL     1      -9.629  13.094  66.621  1.00  0.00    -0.260 C  
BRANCH  24  25
HETATM   25  C   UNL     1     -10.868  13.904  66.171  1.00  0.00    -0.290 C  
BRANCH  25  26
HETATM   26  O   UNL     1     -10.947  13.807  64.735  1.00  0.00    -0.351 OA 
HETATM   27  O   UNL     1     -13.125  13.074  64.919  1.00  0.00    -0.745 OA 
HETATM   28  C   UNL     1     -12.150  13.396  64.262  1.00  0.00    -0.424 C  
ENDBRANCH  25  26
BRANCH  25  29
HETATM   29  C   UNL     1     -10.768  15.361  66.605  1.00  0.00    -0.309 A  
HETATM   30  C   UNL     1     -10.979  15.695  67.949  1.00  0.00    -0.319 A  
HETATM   31  C   UNL     1     -10.911  17.024  68.369  1.00  0.00    -0.333 A  
HETATM   32  C   UNL     1     -10.616  18.033  67.456  1.00  0.00    -0.402 A  
HETATM   33  C   UNL     1     -10.387  17.717  66.121  1.00  0.00    -0.340 A  
HETATM   34  C   UNL     1     -10.461  16.391  65.697  1.00  0.00    -0.364 A  
ENDBRANCH  25  29
ENDBRANCH  24  25
ENDBRANCH   8  21
TORSDOF 7
ENDMDL
MODEL       49
REMARK 921   NORMALIZED FREE ENERGY PREDICTED BY IDOCK:   -5.96 KCAL/MOL
REMARK 922        TOTAL FREE ENERGY PREDICTED BY IDOCK:   -9.89 KCAL/MOL
REMARK 923 INTER-LIGAND FREE ENERGY PREDICTED BY IDOCK:   -8.83 KCAL/MOL
REMARK 924 INTRA-LIGAND FREE ENERGY PREDICTED BY IDOCK:   -1.06 KCAL/MOL
REMARK 927      BINDING AFFINITY PREDICTED BY RF-SCORE:    0.00 PKD
ROOT
HETATM    1  C   UNL     1      -9.995  11.457  67.218  1.00  0.00    -0.194 C  
HETATM    2  S   UNL     1     -11.028  12.071  68.577  1.00  0.00    -0.257 SA 
HETATM    3  C   UNL     1     -10.728  13.803  68.169  1.00  0.00    -0.248 C  
HETATM    4  C   UNL     1      -9.262  14.161  67.952  1.00  0.00    -0.196 C  
HETATM    5  OXT UNL     1      -6.418  14.713  68.102  1.00  0.00    -0.110 OA 
HETATM    6  CA  UNL     1      -8.294  13.249  67.643  1.00  0.00    -0.181 C  
HETATM    7  C   UNL     1      -6.831  13.663  67.631  1.00  0.00    -0.174 C  
HETATM    8  CA  UNL     1      -9.429  10.009  67.427  1.00  0.00    -0.152 C  
HETATM    9  N   UNL     1      -8.641  11.943  67.411  1.00  0.00    -0.157 N  
HETATM   10  O   UNL     1      -5.975  12.838  66.998  1.00  0.00    -0.307 OA 
HETATM   11  C   UNL     1      -8.038  10.735  67.350  1.00  0.00    -0.112 C  
HETATM   12  O   UNL     1      -6.857  10.465  67.335  1.00  0.00    -0.074 OA 
ENDROOT
BRANCH   4  13
HETATM   13  C   UNL     1      -9.037  15.642  68.259  1.00  0.00    -0.187 C  
BRANCH  13  14
HETATM   14  S   UNL     1     -10.131  16.809  67.414  1.00  0.00    -0.283 SA 
BRANCH  14  15
HETATM   15  C   UNL     1      -9.076  17.958  66.702  1.00  0.00    -0.267 A  
HETATM   16  N   UNL     1      -8.037  17.741  65.932  1.00  0.00    -0.544 NA 
HETATM   17  N   UNL     1      -7.507  18.980  65.659  1.00  0.00    -0.479 NA 
HETATM   18  C   UNL     1     -10.191  20.040  67.632  1.00  0.00    -0.408 C  
HETATM   19  N   UNL     1      -9.203  19.304  66.892  1.00  0.00    -0.300 NA 
HETATM   20  N   UNL     1      -8.212  19.940  66.242  1.00  0.00    -0.338 NA 
ENDBRANCH  14  15
ENDBRANCH  13  14
ENDBRANCH   4  13
BRANCH   8  21
HETATM   21  N   UNL     1      -9.762   9.402  68.744  1.00  0.00    -0.154 N  
HETATM   22  O   UNL     1     -10.782   7.516  67.964  1.00  0.00    -0.186 OA 
HETATM   23  H   UNL     1      -9.530   9.935  69.582  1.00  0.00     0.000 HD 
HETATM   24  C   UNL     1     -10.358   8.173  68.912  1.00  0.00    -0.211 C  
BRANCH  24  25
HETATM   25  C   UNL     1     -10.462   7.710  70.384  1.00  0.00    -0.220 C  
BRANCH  25  26
HETATM   26  O   UNL     1     -10.252   6.285  70.404  1.00  0.00    -0.189 OA 
HETATM   27  O   UNL     1      -8.225   6.612  71.452  1.00  0.00    -0.114 OA 
HETATM   28  C   UNL     1      -9.093   5.892  70.991  1.00  0.00    -0.146 C  
ENDBRANCH  25  26
BRANCH  25  29
HETATM   29  C   UNL     1     -11.818   8.061  70.984  1.00  0.00    -0.280 A  
HETATM   30  C   UNL     1     -12.064   9.371  71.414  1.00  0.00    -0.442 A  
HETATM   31  C   UNL     1     -13.292   9.713  71.983  1.00  0.00    -0.547 A  
HETATM   32  C   UNL     1     -14.294   8.755  72.115  1.00  0.00    -0.481 A  
HETATM   33  C   UNL     1     -14.072   7.453  71.678  1.00  0.00    -0.552 A  
HETATM   34  C   UNL     1     -12.844   7.107  71.116  1.00  0.00    -0.340 A  
ENDBRANCH  25  29
ENDBRANCH  24  25
ENDBRANCH   8  21
TORSDOF 7
ENDMDL
MODEL       50
REMARK 921   NORMALIZED FREE ENERGY PREDICTED BY IDOCK:   -5.94 KCAL/MOL
REMARK 922        TOTAL FREE ENERGY PREDICTED BY IDOCK:   -9.86 KCAL/MOL
REMARK 923 INTER-LIGAND FREE ENERGY PREDICTED BY IDOCK:   -8.47 KCAL/MOL
REMARK 924 INTRA-LIGAND FREE ENERGY PREDICTED BY IDOCK:   -1.39 KCAL/MOL
REMARK 927      BINDING AFFINITY PREDICTED BY RF-SCORE:    0.00 PKD
ROOT
HETATM    1  C   UNL     1     -10.326  12.424  68.055  1.00  0.00    -0.216 C  
HETATM    2  S   UNL     1      -8.537  12.140  67.965  1.00  0.00    -0.181 SA 
HETATM    3  C   UNL     1      -8.143  13.898  68.049  1.00  0.00    -0.154 C  
HETATM    4  C   UNL     1      -8.941  14.776  67.091  1.00  0.00    -0.239 C  
HETATM    5  OXT UNL     1     -10.174  16.153  64.854  1.00  0.00    -0.502 OA 
HETATM    6  CA  UNL     1     -10.133  14.409  66.536  1.00  0.00    -0.276 C  
HETATM    7  C   UNL     1     -10.765  15.262  65.448  1.00  0.00    -0.391 C  
HETATM    8  CA  UNL     1     -11.205  11.271  67.454  1.00  0.00    -0.303 C  
HETATM    9  N   UNL     1     -10.725  13.232  66.917  1.00  0.00    -0.270 N  
HETATM   10  O   UNL     1     -12.070  15.048  65.193  1.00  0.00    -0.215 OA 
HETATM   11  C   UNL     1     -11.689  12.396  66.470  1.00  0.00    -0.379 C  
HETATM   12  O   UNL     1     -12.494  12.559  65.580  1.00  0.00    -0.646 OA 
ENDROOT
BRANCH   4  13
HETATM   13  C   UNL     1      -8.146  16.039  66.758  1.00  0.00    -0.267 C  
BRANCH  13  14
HETATM   14  S   UNL     1      -8.228  17.379  67.970  1.00  0.00    -0.236 SA 
BRANCH  14  15
HETATM   15  C   UNL     1      -9.311  18.520  67.286  1.00  0.00    -0.280 A  
HETATM   16  N   UNL     1     -10.588  18.681  67.537  1.00  0.00    -0.423 NA 
HETATM   17  N   UNL     1     -11.008  19.693  66.706  1.00  0.00    -0.380 NA 
HETATM   18  C   UNL     1      -7.648  19.660  65.744  1.00  0.00    -0.262 C  
HETATM   19  N   UNL     1      -8.937  19.422  66.333  1.00  0.00    -0.353 NA 
HETATM   20  N   UNL     1     -10.007  20.152  65.967  1.00  0.00    -0.440 NA 
ENDBRANCH  14  15
ENDBRANCH  13  14
ENDBRANCH   4  13
BRANCH   8  21
HETATM   21  N   UNL     1     -10.428  10.168  66.830  1.00  0.00    -0.224 N  
HETATM   22  O   UNL     1     -10.661   8.640  68.509  1.00  0.00    -0.196 OA 
HETATM   23  H   UNL     1      -9.983  10.352  65.931  1.00  0.00     0.000 HD 
HETATM   24  C   UNL     1     -10.266   8.915  67.378  1.00  0.00    -0.249 C  
BRANCH  24  25
HETATM   25  C   UNL     1      -9.537   7.906  66.461  1.00  0.00    -0.212 C  
BRANCH  25  26
HETATM   26  O   UNL     1      -9.062   6.830  67.294  1.00  0.00    -0.118 OA 
HETATM   27  O   UNL     1     -10.512   5.386  66.233  1.00  0.00    -0.243 OA 
HETATM   28  C   UNL     1      -9.635   5.626  67.044  1.00  0.00    -0.136 C  
ENDBRANCH  25  26
BRANCH  25  29
HETATM   29  C   UNL     1      -8.378   8.563  65.722  1.00  0.00    -0.144 A  
HETATM   30  C   UNL     1      -7.198   8.862  66.416  1.00  0.00    -0.084 A  
HETATM   31  C   UNL     1      -6.129   9.480  65.766  1.00  0.00    -0.060 A  
HETATM   32  C   UNL     1      -6.218   9.793  64.412  1.00  0.00    -0.110 A  
HETATM   33  C   UNL     1      -7.376   9.489  63.703  1.00  0.00    -0.109 A  
HETATM   34  C   UNL     1      -8.449   8.878  64.352  1.00  0.00    -0.170 A  
ENDBRANCH  25  29
ENDBRANCH  24  25
ENDBRANCH   8  21
TORSDOF 7
ENDMDL
MODEL       51
REMARK 921   NORMALIZED FREE ENERGY PREDICTED BY IDOCK:   -5.91 KCAL/MOL
REMARK 922        TOTAL FREE ENERGY PREDICTED BY IDOCK:   -9.82 KCAL/MOL
REMARK 923 INTER-LIGAND FREE ENERGY PREDICTED BY IDOCK:   -8.67 KCAL/MOL
REMARK 924 INTRA-LIGAND FREE ENERGY PREDICTED BY IDOCK:   -1.14 KCAL/MOL
REMARK 927      BINDING AFFINITY PREDICTED BY RF-SCORE:    0.00 PKD
ROOT
HETATM    1  C   UNL     1      -8.221   9.933  67.856  1.00  0.00    -0.113 C  
HETATM    2  S   UNL     1      -9.203   9.975  69.380  1.00  0.00    -0.220 SA 
HETATM    3  C   UNL     1      -8.587   8.379  69.953  1.00  0.00    -0.131 C  
HETATM    4  C   UNL     1      -8.633   7.268  68.910  1.00  0.00    -0.129 C  
HETATM    5  OXT UNL     1      -9.298   5.219  66.966  1.00  0.00    -0.117 OA 
HETATM    6  CA  UNL     1      -8.697   7.489  67.564  1.00  0.00    -0.125 C  
HETATM    7  C   UNL     1      -8.931   6.329  66.609  1.00  0.00    -0.135 C  
HETATM    8  CA  UNL     1      -8.785  10.815  66.687  1.00  0.00    -0.147 C  
HETATM    9  N   UNL     1      -8.617   8.771  67.082  1.00  0.00    -0.116 N  
HETATM   10  O   UNL     1      -8.644   6.547  65.311  1.00  0.00    -0.123 OA 
HETATM   11  C   UNL     1      -8.890   9.437  65.939  1.00  0.00    -0.162 C  
HETATM   12  O   UNL     1      -9.175   9.002  64.845  1.00  0.00    -0.151 OA 
ENDROOT
BRANCH   4  13
HETATM   13  C   UNL     1      -8.730   5.908  69.603  1.00  0.00    -0.128 C  
BRANCH  13  14
HETATM   14  S   UNL     1     -10.394   5.350  70.040  1.00  0.00    -0.296 SA 
BRANCH  14  15
HETATM   15  C   UNL     1     -10.954   6.501  71.181  1.00  0.00    -0.266 A  
HETATM   16  N   UNL     1     -11.832   7.459  71.007  1.00  0.00    -0.302 NA 
HETATM   17  N   UNL     1     -11.903   8.127  72.207  1.00  0.00    -0.358 NA 
HETATM   18  C   UNL     1      -9.554   5.715  73.147  1.00  0.00    -0.150 C  
HETATM   19  N   UNL     1     -10.498   6.558  72.467  1.00  0.00    -0.199 NA 
HETATM   20  N   UNL     1     -11.091   7.584  73.104  1.00  0.00    -0.376 NA 
ENDBRANCH  14  15
ENDBRANCH  13  14
ENDBRANCH   4  13
BRANCH   8  21
HETATM   21  N   UNL     1     -10.082  11.478  66.988  1.00  0.00    -0.206 N  
HETATM   22  O   UNL     1      -9.294  13.609  67.202  1.00  0.00    -0.222 OA 
HETATM   23  H   UNL     1     -10.908  10.886  67.070  1.00  0.00     0.000 HD 
HETATM   24  C   UNL     1     -10.246  12.834  67.162  1.00  0.00    -0.233 C  
BRANCH  24  25
HETATM   25  C   UNL     1     -11.718  13.283  67.320  1.00  0.00    -0.377 C  
BRANCH  25  26
HETATM   26  O   UNL     1     -11.956  14.329  66.357  1.00  0.00    -0.402 OA 
HETATM   27  O   UNL     1     -13.041  12.814  65.000  1.00  0.00    -0.811 OA 
HETATM   28  C   UNL     1     -12.648  13.938  65.258  1.00  0.00    -0.478 C  
ENDBRANCH  25  26
BRANCH  25  29
HETATM   29  C   UNL     1     -12.000  13.781  68.732  1.00  0.00    -0.400 A  
HETATM   30  C   UNL     1     -12.242  12.854  69.754  1.00  0.00    -0.227 A  
HETATM   31  C   UNL     1     -12.521  13.285  71.052  1.00  0.00    -0.422 A  
HETATM   32  C   UNL     1     -12.545  14.645  71.349  1.00  0.00    -0.404 A  
HETATM   33  C   UNL     1     -12.290  15.579  70.349  1.00  0.00    -0.451 A  
HETATM   34  C   UNL     1     -12.019  15.151  69.050  1.00  0.00    -0.295 A  
ENDBRANCH  25  29
ENDBRANCH  24  25
ENDBRANCH   8  21
TORSDOF 7
ENDMDL
MODEL       52
REMARK 921   NORMALIZED FREE ENERGY PREDICTED BY IDOCK:   -5.84 KCAL/MOL
REMARK 922        TOTAL FREE ENERGY PREDICTED BY IDOCK:   -9.73 KCAL/MOL
REMARK 923 INTER-LIGAND FREE ENERGY PREDICTED BY IDOCK:   -8.65 KCAL/MOL
REMARK 924 INTRA-LIGAND FREE ENERGY PREDICTED BY IDOCK:   -1.08 KCAL/MOL
REMARK 927      BINDING AFFINITY PREDICTED BY RF-SCORE:    0.00 PKD
ROOT
HETATM    1  C   UNL     1     -10.998   6.867  72.011  1.00  0.00    -0.235 C  
HETATM    2  S   UNL     1     -11.328   6.708  70.234  1.00  0.00    -0.390 SA 
HETATM    3  C   UNL     1     -10.478   5.122  70.106  1.00  0.00    -0.235 C  
HETATM    4  C   UNL     1      -9.095   5.087  70.747  1.00  0.00    -0.174 C  
HETATM    5  OXT UNL     1      -6.326   5.404  71.552  1.00  0.00    -0.032 OA 
HETATM    6  CA  UNL     1      -8.678   5.966  71.705  1.00  0.00    -0.139 C  
HETATM    7  C   UNL     1      -7.225   5.977  72.151  1.00  0.00    -0.089 C  
HETATM    8  CA  UNL     1     -11.020   8.338  72.554  1.00  0.00    -0.354 C  
HETATM    9  N   UNL     1      -9.560   6.884  72.215  1.00  0.00    -0.148 N  
HETATM   10  O   UNL     1      -6.953   6.604  73.312  1.00  0.00    -0.076 OA 
HETATM   11  C   UNL     1      -9.522   8.037  72.919  1.00  0.00    -0.277 C  
HETATM   12  O   UNL     1      -8.590   8.557  73.491  1.00  0.00    -0.341 OA 
ENDROOT
BRANCH   4  13
HETATM   13  C   UNL     1      -8.233   4.024  70.066  1.00  0.00    -0.057 C  
BRANCH  13  14
HETATM   14  S   UNL     1      -7.886   4.281  68.309  1.00  0.00    -0.074 SA 
BRANCH  14  15
HETATM   15  C   UNL     1      -7.813   5.984  68.123  1.00  0.00    -0.106 A  
HETATM   16  N   UNL     1      -6.925   6.819  68.607  1.00  0.00    -0.077 NA 
HETATM   17  N   UNL     1      -7.331   8.071  68.211  1.00  0.00    -0.093 NA 
HETATM   18  C   UNL     1      -9.895   6.243  66.693  1.00  0.00    -0.154 C  
HETATM   19  N   UNL     1      -8.745   6.698  67.425  1.00  0.00    -0.118 NA 
HETATM   20  N   UNL     1      -8.442   8.007  67.489  1.00  0.00    -0.126 NA 
ENDBRANCH  14  15
ENDBRANCH  13  14
ENDBRANCH   4  13
BRANCH   8  21
HETATM   21  N   UNL     1     -11.226   9.377  71.508  1.00  0.00    -0.378 N  
HETATM   22  O   UNL     1     -13.430   9.798  71.923  1.00  0.00    -0.402 OA 
HETATM   23  H   UNL     1     -10.441   9.589  70.892  1.00  0.00     0.000 HD 
HETATM   24  C   UNL     1     -12.399  10.071  71.313  1.00  0.00    -0.398 C  
BRANCH  24  25
HETATM   25  C   UNL     1     -12.306  11.197  70.257  1.00  0.00    -0.315 C  
BRANCH  25  26
HETATM   26  O   UNL     1     -10.975  11.161  69.705  1.00  0.00    -0.233 OA 
HETATM   27  O   UNL     1     -11.872  11.010  67.587  1.00  0.00    -0.599 OA 
HETATM   28  C   UNL     1     -10.926  11.086  68.351  1.00  0.00    -0.230 C  
ENDBRANCH  25  26
BRANCH  25  29
HETATM   29  C   UNL     1     -12.595  12.561  70.871  1.00  0.00    -0.331 A  
HETATM   30  C   UNL     1     -12.206  13.721  70.189  1.00  0.00    -0.425 A  
HETATM   31  C   UNL     1     -12.443  14.982  70.738  1.00  0.00    -0.411 A  
HETATM   32  C   UNL     1     -13.085  15.100  71.968  1.00  0.00    -0.453 A  
HETATM   33  C   UNL     1     -13.493  13.959  72.652  1.00  0.00    -0.652 A  
HETATM   34  C   UNL     1     -13.251  12.698  72.109  1.00  0.00    -0.527 A  
ENDBRANCH  25  29
ENDBRANCH  24  25
ENDBRANCH   8  21
TORSDOF 7
ENDMDL
MODEL       53
REMARK 921   NORMALIZED FREE ENERGY PREDICTED BY IDOCK:   -5.84 KCAL/MOL
REMARK 922        TOTAL FREE ENERGY PREDICTED BY IDOCK:   -9.73 KCAL/MOL
REMARK 923 INTER-LIGAND FREE ENERGY PREDICTED BY IDOCK:   -8.78 KCAL/MOL
REMARK 924 INTRA-LIGAND FREE ENERGY PREDICTED BY IDOCK:   -0.95 KCAL/MOL
REMARK 927      BINDING AFFINITY PREDICTED BY RF-SCORE:    0.00 PKD
ROOT
HETATM    1  C   UNL     1      -9.270   9.586  69.711  1.00  0.00    -0.208 C  
HETATM    2  S   UNL     1     -10.631   9.500  70.906  1.00  0.00    -0.321 SA 
HETATM    3  C   UNL     1     -10.455   7.721  71.146  1.00  0.00    -0.208 C  
HETATM    4  C   UNL     1     -10.367   6.910  69.857  1.00  0.00    -0.223 C  
HETATM    5  OXT UNL     1     -10.746   5.548  67.324  1.00  0.00    -0.241 OA 
HETATM    6  CA  UNL     1     -10.006   7.437  68.650  1.00  0.00    -0.169 C  
HETATM    7  C   UNL     1     -10.128   6.602  67.385  1.00  0.00    -0.164 C  
HETATM    8  CA  UNL     1      -9.332  10.809  68.731  1.00  0.00    -0.182 C  
HETATM    9  N   UNL     1      -9.597   8.744  68.575  1.00  0.00    -0.148 N  
HETATM   10  O   UNL     1      -9.449   7.037  66.306  1.00  0.00    -0.158 OA 
HETATM   11  C   UNL     1      -9.424   9.693  67.629  1.00  0.00    -0.133 C  
HETATM   12  O   UNL     1      -9.444   9.589  66.422  1.00  0.00    -0.167 OA 
ENDROOT
BRANCH   4  13
HETATM   13  C   UNL     1     -10.865   5.486  70.104  1.00  0.00    -0.229 C  
BRANCH  13  14
HETATM   14  S   UNL     1      -9.656   4.322  70.781  1.00  0.00    -0.198 SA 
BRANCH  14  15
HETATM   15  C   UNL     1     -10.051   4.204  72.446  1.00  0.00    -0.177 A  
HETATM   16  N   UNL     1     -10.961   4.869  73.116  1.00  0.00    -0.280 NA 
HETATM   17  N   UNL     1     -10.854   4.442  74.419  1.00  0.00    -0.281 NA 
HETATM   18  C   UNL     1      -8.348   2.422  73.055  1.00  0.00    -0.069 C  
HETATM   19  N   UNL     1      -9.401   3.367  73.307  1.00  0.00    -0.100 NA 
HETATM   20  N   UNL     1      -9.904   3.525  74.545  1.00  0.00    -0.123 NA 
ENDBRANCH  14  15
ENDBRANCH  13  14
ENDBRANCH   4  13
BRANCH   8  21
HETATM   21  N   UNL     1     -10.544  11.658  68.883  1.00  0.00    -0.270 N  
HETATM   22  O   UNL     1      -9.530  13.688  68.645  1.00  0.00    -0.177 OA 
HETATM   23  H   UNL     1     -11.427  11.189  69.087  1.00  0.00     0.000 HD 
HETATM   24  C   UNL     1     -10.560  13.030  68.768  1.00  0.00    -0.193 C  
BRANCH  24  25
HETATM   25  C   UNL     1     -11.972  13.659  68.825  1.00  0.00    -0.359 C  
BRANCH  25  26
HETATM   26  O   UNL     1     -12.034  14.674  67.804  1.00  0.00    -0.348 OA 
HETATM   27  O   UNL     1     -12.393  13.039  66.219  1.00  0.00    -0.429 OA 
HETATM   28  C   UNL     1     -12.270  14.204  66.553  1.00  0.00    -0.433 C  
ENDBRANCH  25  26
BRANCH  25  29
HETATM   29  C   UNL     1     -12.258  14.259  70.196  1.00  0.00    -0.407 A  
HETATM   30  C   UNL     1     -11.753  15.527  70.512  1.00  0.00    -0.377 A  
HETATM   31  C   UNL     1     -11.987  16.091  71.767  1.00  0.00    -0.592 A  
HETATM   32  C   UNL     1     -12.740  15.404  72.715  1.00  0.00    -0.510 A  
HETATM   33  C   UNL     1     -13.263  14.151  72.412  1.00  0.00    -0.566 A  
HETATM   34  C   UNL     1     -13.025  13.582  71.161  1.00  0.00    -0.338 A  
ENDBRANCH  25  29
ENDBRANCH  24  25
ENDBRANCH   8  21
TORSDOF 7
ENDMDL
MODEL       54
REMARK 921   NORMALIZED FREE ENERGY PREDICTED BY IDOCK:   -5.83 KCAL/MOL
REMARK 922        TOTAL FREE ENERGY PREDICTED BY IDOCK:   -9.71 KCAL/MOL
REMARK 923 INTER-LIGAND FREE ENERGY PREDICTED BY IDOCK:   -9.24 KCAL/MOL
REMARK 924 INTRA-LIGAND FREE ENERGY PREDICTED BY IDOCK:   -0.47 KCAL/MOL
REMARK 927      BINDING AFFINITY PREDICTED BY RF-SCORE:    0.00 PKD
ROOT
HETATM    1  C   UNL     1      -8.648  15.733  68.586  1.00  0.00    -0.194 C  
HETATM    2  S   UNL     1      -8.660  15.276  66.830  1.00  0.00    -0.269 SA 
HETATM    3  C   UNL     1      -7.719  16.732  66.332  1.00  0.00    -0.310 C  
HETATM    4  C   UNL     1      -8.236  18.049  66.899  1.00  0.00    -0.259 C  
HETATM    5  OXT UNL     1      -9.688  20.446  67.649  1.00  0.00    -0.406 OA 
HETATM    6  CA  UNL     1      -9.027  18.142  68.008  1.00  0.00    -0.283 C  
HETATM    7  C   UNL     1      -9.651  19.475  68.391  1.00  0.00    -0.392 C  
HETATM    8  CA  UNL     1      -9.813  15.112  69.433  1.00  0.00    -0.212 C  
HETATM    9  N   UNL     1      -9.311  17.015  68.735  1.00  0.00    -0.266 N  
HETATM   10  O   UNL     1     -10.122  19.582  69.649  1.00  0.00    -0.218 OA 
HETATM   11  C   UNL     1     -10.202  16.616  69.669  1.00  0.00    -0.124 C  
HETATM   12  O   UNL     1     -10.996  17.274  70.305  1.00  0.00     0.274 OA 
ENDROOT
BRANCH   4  13
HETATM   13  C   UNL     1      -7.847  19.202  65.972  1.00  0.00    -0.235 C  
BRANCH  13  14
HETATM   14  S   UNL     1      -6.160  19.833  66.145  1.00  0.00    -0.179 SA 
BRANCH  14  15
HETATM   15  C   UNL     1      -5.958  20.081  67.831  1.00  0.00    -0.217 A  
HETATM   16  N   UNL     1      -6.159  21.177  68.522  1.00  0.00    -0.236 NA 
HETATM   17  N   UNL     1      -5.818  20.871  69.818  1.00  0.00    -0.398 NA 
HETATM   18  C   UNL     1      -5.187  17.733  68.412  1.00  0.00    -0.150 C  
HETATM   19  N   UNL     1      -5.518  19.106  68.679  1.00  0.00    -0.195 NA 
HETATM   20  N   UNL     1      -5.425  19.608  69.924  1.00  0.00    -0.222 NA 
ENDBRANCH  14  15
ENDBRANCH  13  14
ENDBRANCH   4  13
BRANCH   8  21
HETATM   21  N   UNL     1     -10.791  14.315  68.645  1.00  0.00    -0.246 N  
HETATM   22  O   UNL     1      -9.585  12.382  68.524  1.00  0.00    -0.197 OA 
HETATM   23  H   UNL     1     -11.642  14.784  68.336  1.00  0.00     0.000 HD 
HETATM   24  C   UNL     1     -10.628  12.992  68.303  1.00  0.00    -0.247 C  
BRANCH  24  25
HETATM   25  C   UNL     1     -11.855  12.358  67.606  1.00  0.00    -0.295 C  
BRANCH  25  26
HETATM   26  O   UNL     1     -12.010  11.025  68.134  1.00  0.00    -0.610 OA 
HETATM   27  O   UNL     1     -12.318  11.909  70.240  1.00  0.00    -0.274 OA 
HETATM   28  C   UNL     1     -12.256  10.970  69.467  1.00  0.00    -0.282 C  
ENDBRANCH  25  26
BRANCH  25  29
HETATM   29  C   UNL     1     -11.678  12.318  66.094  1.00  0.00    -0.440 A  
HETATM   30  C   UNL     1     -10.795  11.390  65.527  1.00  0.00    -0.282 A  
HETATM   31  C   UNL     1     -10.601  11.345  64.146  1.00  0.00    -0.430 A  
HETATM   32  C   UNL     1     -11.299  12.216  63.312  1.00  0.00    -0.410 A  
HETATM   33  C   UNL     1     -12.192  13.133  63.857  1.00  0.00    -0.503 A  
HETATM   34  C   UNL     1     -12.382  13.184  65.237  1.00  0.00    -0.532 A  
ENDBRANCH  25  29
ENDBRANCH  24  25
ENDBRANCH   8  21
TORSDOF 7
ENDMDL
MODEL       55
REMARK 921   NORMALIZED FREE ENERGY PREDICTED BY IDOCK:   -5.81 KCAL/MOL
REMARK 922        TOTAL FREE ENERGY PREDICTED BY IDOCK:   -9.68 KCAL/MOL
REMARK 923 INTER-LIGAND FREE ENERGY PREDICTED BY IDOCK:   -8.76 KCAL/MOL
REMARK 924 INTRA-LIGAND FREE ENERGY PREDICTED BY IDOCK:   -0.93 KCAL/MOL
REMARK 927      BINDING AFFINITY PREDICTED BY RF-SCORE:    0.00 PKD
ROOT
HETATM    1  C   UNL     1      -8.649   9.495  70.255  1.00  0.00    -0.226 C  
HETATM    2  S   UNL     1      -8.178   8.349  68.929  1.00  0.00    -0.115 SA 
HETATM    3  C   UNL     1      -8.298   9.611  67.646  1.00  0.00    -0.121 C  
HETATM    4  C   UNL     1      -9.582  10.434  67.680  1.00  0.00    -0.168 C  
HETATM    5  OXT UNL     1     -12.282  11.493  67.613  1.00  0.00    -0.513 OA 
HETATM    6  CA  UNL     1     -10.377  10.559  68.783  1.00  0.00    -0.191 C  
HETATM    7  C   UNL     1     -11.732  11.239  68.675  1.00  0.00    -0.324 C  
HETATM    8  CA  UNL     1      -9.260   8.810  71.527  1.00  0.00    -0.262 C  
HETATM    9  N   UNL     1      -9.977  10.008  69.973  1.00  0.00    -0.247 N  
HETATM   10  O   UNL     1     -12.304  11.634  69.829  1.00  0.00    -0.227 OA 
HETATM   11  C   UNL     1     -10.523   9.670  71.163  1.00  0.00    -0.211 C  
HETATM   12  O   UNL     1     -11.619   9.934  71.607  1.00  0.00    -0.360 OA 
ENDROOT
BRANCH   4  13
HETATM   13  C   UNL     1      -9.895  10.968  66.281  1.00  0.00    -0.215 C  
BRANCH  13  14
HETATM   14  S   UNL     1      -9.549  12.721  66.000  1.00  0.00    -0.118 SA 
BRANCH  14  15
HETATM   15  C   UNL     1     -10.897  13.293  65.106  1.00  0.00    -0.310 A  
HETATM   16  N   UNL     1     -11.267  12.965  63.891  1.00  0.00    -0.412 NA 
HETATM   17  N   UNL     1     -12.379  13.726  63.619  1.00  0.00    -0.729 NA 
HETATM   18  C   UNL     1     -11.808  14.874  66.871  1.00  0.00    -0.187 C  
HETATM   19  N   UNL     1     -11.769  14.225  65.589  1.00  0.00    -0.350 NA 
HETATM   20  N   UNL     1     -12.693  14.499  64.650  1.00  0.00    -0.598 NA 
ENDBRANCH  14  15
ENDBRANCH  13  14
ENDBRANCH   4  13
BRANCH   8  21
HETATM   21  N   UNL     1      -9.434   7.338  71.410  1.00  0.00    -0.160 N  
HETATM   22  O   UNL     1     -10.876   7.060  73.156  1.00  0.00    -0.290 OA 
HETATM   23  H   UNL     1      -8.891   6.852  70.696  1.00  0.00     0.000 HD 
HETATM   24  C   UNL     1     -10.277   6.584  72.196  1.00  0.00    -0.185 C  
BRANCH  24  25
HETATM   25  C   UNL     1     -10.383   5.099  71.774  1.00  0.00    -0.209 C  
BRANCH  25  26
HETATM   26  O   UNL     1      -9.363   4.374  72.488  1.00  0.00    -0.127 OA 
HETATM   27  O   UNL     1     -10.994   3.357  73.760  1.00  0.00    -0.210 OA 
HETATM   28  C   UNL     1      -9.831   3.527  73.439  1.00  0.00    -0.111 C  
ENDBRANCH  25  26
BRANCH  25  29
HETATM   29  C   UNL     1     -10.205   4.933  70.270  1.00  0.00    -0.299 A  
HETATM   30  C   UNL     1      -9.368   3.922  69.782  1.00  0.00    -0.242 A  
HETATM   31  C   UNL     1      -9.175   3.760  68.410  1.00  0.00    -0.213 A  
HETATM   32  C   UNL     1      -9.827   4.597  67.507  1.00  0.00    -0.200 A  
HETATM   33  C   UNL     1     -10.674   5.597  67.974  1.00  0.00    -0.235 A  
HETATM   34  C   UNL     1     -10.864   5.764  69.345  1.00  0.00    -0.393 A  
ENDBRANCH  25  29
ENDBRANCH  24  25
ENDBRANCH   8  21
TORSDOF 7
ENDMDL
MODEL       56
REMARK 921   NORMALIZED FREE ENERGY PREDICTED BY IDOCK:   -5.79 KCAL/MOL
REMARK 922        TOTAL FREE ENERGY PREDICTED BY IDOCK:   -9.66 KCAL/MOL
REMARK 923 INTER-LIGAND FREE ENERGY PREDICTED BY IDOCK:   -8.63 KCAL/MOL
REMARK 924 INTRA-LIGAND FREE ENERGY PREDICTED BY IDOCK:   -1.03 KCAL/MOL
REMARK 927      BINDING AFFINITY PREDICTED BY RF-SCORE:    0.00 PKD
ROOT
HETATM    1  C   UNL     1      -8.645   9.465  70.454  1.00  0.00    -0.230 C  
HETATM    2  S   UNL     1      -7.980   8.670  68.965  1.00  0.00    -0.117 SA 
HETATM    3  C   UNL     1      -8.020  10.194  68.000  1.00  0.00    -0.101 C  
HETATM    4  C   UNL     1      -9.337  10.958  68.072  1.00  0.00    -0.160 C  
HETATM    5  OXT UNL     1     -12.061  11.948  67.935  1.00  0.00    -0.558 OA 
HETATM    6  CA  UNL     1     -10.252  10.806  69.074  1.00  0.00    -0.213 C  
HETATM    7  C   UNL     1     -11.618  11.465  68.968  1.00  0.00    -0.317 C  
HETATM    8  CA  UNL     1      -9.358   8.490  71.455  1.00  0.00    -0.222 C  
HETATM    9  N   UNL     1      -9.958  10.001  70.145  1.00  0.00    -0.235 N  
HETATM   10  O   UNL     1     -12.330  11.568  70.107  1.00  0.00    -0.288 OA 
HETATM   11  C   UNL     1     -10.614   9.385  71.153  1.00  0.00    -0.333 C  
HETATM   12  O   UNL     1     -11.762   9.514  71.515  1.00  0.00    -0.355 OA 
ENDROOT
BRANCH   4  13
HETATM   13  C   UNL     1      -9.521  11.798  66.807  1.00  0.00    -0.193 C  
BRANCH  13  14
HETATM   14  S   UNL     1      -8.968  13.517  66.900  1.00  0.00    -0.171 SA 
BRANCH  14  15
HETATM   15  C   UNL     1     -10.036  14.375  65.868  1.00  0.00    -0.328 A  
HETATM   16  N   UNL     1     -11.025  13.905  65.147  1.00  0.00    -0.332 NA 
HETATM   17  N   UNL     1     -11.542  14.983  64.470  1.00  0.00    -0.376 NA 
HETATM   18  C   UNL     1      -9.050  16.686  66.232  1.00  0.00    -0.298 C  
HETATM   19  N   UNL     1      -9.947  15.721  65.658  1.00  0.00    -0.343 NA 
HETATM   20  N   UNL     1     -10.890  16.097  64.775  1.00  0.00    -0.669 NA 
ENDBRANCH  14  15
ENDBRANCH  13  14
ENDBRANCH   4  13
BRANCH   8  21
HETATM   21  N   UNL     1      -9.448   7.082  70.984  1.00  0.00    -0.160 N  
HETATM   22  O   UNL     1     -10.983   6.348  72.504  1.00  0.00    -0.230 OA 
HETATM   23  H   UNL     1      -8.836   6.799  70.219  1.00  0.00     0.000 HD 
HETATM   24  C   UNL     1     -10.300   6.134  71.506  1.00  0.00    -0.209 C  
BRANCH  24  25
HETATM   25  C   UNL     1     -10.302   4.789  70.743  1.00  0.00    -0.114 C  
BRANCH  25  26
HETATM   26  O   UNL     1      -9.134   4.055  71.158  1.00  0.00    -0.105 OA 
HETATM   27  O   UNL     1     -10.462   2.720  72.488  1.00  0.00    -0.149 OA 
HETATM   28  C   UNL     1      -9.382   3.037  72.020  1.00  0.00    -0.123 C  
ENDBRANCH  25  26
BRANCH  25  29
HETATM   29  C   UNL     1     -10.291   5.005  69.235  1.00  0.00    -0.199 A  
HETATM   30  C   UNL     1      -9.578   4.119  68.416  1.00  0.00    -0.190 A  
HETATM   31  C   UNL     1      -9.537   4.306  67.034  1.00  0.00    -0.227 A  
HETATM   32  C   UNL     1     -10.220   5.370  66.450  1.00  0.00    -0.268 A  
HETATM   33  C   UNL     1     -10.946   6.250  67.246  1.00  0.00    -0.455 A  
HETATM   34  C   UNL     1     -10.983   6.070  68.628  1.00  0.00    -0.361 A  
ENDBRANCH  25  29
ENDBRANCH  24  25
ENDBRANCH   8  21
TORSDOF 7
ENDMDL
MODEL       57
REMARK 921   NORMALIZED FREE ENERGY PREDICTED BY IDOCK:   -5.78 KCAL/MOL
REMARK 922        TOTAL FREE ENERGY PREDICTED BY IDOCK:   -9.64 KCAL/MOL
REMARK 923 INTER-LIGAND FREE ENERGY PREDICTED BY IDOCK:   -8.74 KCAL/MOL
REMARK 924 INTRA-LIGAND FREE ENERGY PREDICTED BY IDOCK:   -0.90 KCAL/MOL
REMARK 927      BINDING AFFINITY PREDICTED BY RF-SCORE:    0.00 PKD
ROOT
HETATM    1  C   UNL     1      -9.441  11.559  66.680  1.00  0.00    -0.193 C  
HETATM    2  S   UNL     1      -7.775  11.634  67.392  1.00  0.00    -0.155 SA 
HETATM    3  C   UNL     1      -8.024  10.168  68.412  1.00  0.00    -0.102 C  
HETATM    4  C   UNL     1      -9.321  10.164  69.215  1.00  0.00    -0.227 C  
HETATM    5  OXT UNL     1     -11.549  10.608  71.020  1.00  0.00    -0.299 OA 
HETATM    6  CA  UNL     1     -10.411  10.926  68.904  1.00  0.00    -0.204 C  
HETATM    7  C   UNL     1     -11.588  11.003  69.863  1.00  0.00    -0.337 C  
HETATM    8  CA  UNL     1      -9.985  12.927  66.138  1.00  0.00    -0.272 C  
HETATM    9  N   UNL     1     -10.409  11.676  67.756  1.00  0.00    -0.179 N  
HETATM   10  O   UNL     1     -12.746  11.475  69.362  1.00  0.00    -0.026 OA 
HETATM   11  C   UNL     1     -11.098  12.711  67.226  1.00  0.00    -0.278 C  
HETATM   12  O   UNL     1     -12.127  13.224  67.606  1.00  0.00    -0.335 OA 
ENDROOT
BRANCH   4  13
HETATM   13  C   UNL     1      -9.158   9.295  70.463  1.00  0.00    -0.259 C  
BRANCH  13  14
HETATM   14  S   UNL     1      -7.644   8.311  70.560  1.00  0.00    -0.080 SA 
BRANCH  14  15
HETATM   15  C   UNL     1      -6.833   8.894  71.954  1.00  0.00    -0.001 A  
HETATM   16  N   UNL     1      -5.784   9.678  72.017  1.00  0.00    -0.255 NA 
HETATM   17  N   UNL     1      -5.499   9.817  73.355  1.00  0.00    -0.322 NA 
HETATM   18  C   UNL     1      -8.304   7.756  73.682  1.00  0.00    -0.207 C  
HETATM   19  N   UNL     1      -7.207   8.564  73.225  1.00  0.00    -0.319 NA 
HETATM   20  N   UNL     1      -6.363   9.140  74.100  1.00  0.00    -0.339 NA 
ENDBRANCH  14  15
ENDBRANCH  13  14
ENDBRANCH   4  13
BRANCH   8  21
HETATM   21  N   UNL     1      -9.081  14.084  66.370  1.00  0.00    -0.474 N  
HETATM   22  O   UNL     1     -10.137  15.577  65.005  1.00  0.00    -0.352 OA 
HETATM   23  H   UNL     1      -8.270  13.938  66.971  1.00  0.00     0.000 HD 
HETATM   24  C   UNL     1      -9.261  15.340  65.833  1.00  0.00    -0.201 C  
BRANCH  24  25
HETATM   25  C   UNL     1      -8.262  16.402  66.347  1.00  0.00    -0.331 C  
BRANCH  25  26
HETATM   26  O   UNL     1      -7.659  15.883  67.548  1.00  0.00    -0.135 OA 
HETATM   27  O   UNL     1      -5.572  16.356  66.689  1.00  0.00    -0.328 OA 
HETATM   28  C   UNL     1      -6.304  15.948  67.574  1.00  0.00    -0.168 C  
ENDBRANCH  25  26
BRANCH  25  29
HETATM   29  C   UNL     1      -8.956  17.730  66.627  1.00  0.00    -0.283 A  
HETATM   30  C   UNL     1      -8.257  18.928  66.430  1.00  0.00    -0.306 A  
HETATM   31  C   UNL     1      -8.864  20.156  66.696  1.00  0.00    -0.382 A  
HETATM   32  C   UNL     1     -10.181  20.203  67.147  1.00  0.00    -0.554 A  
HETATM   33  C   UNL     1     -10.895  19.024  67.332  1.00  0.00    -0.496 A  
HETATM   34  C   UNL     1     -10.288  17.795  67.073  1.00  0.00    -0.344 A  
ENDBRANCH  25  29
ENDBRANCH  24  25
ENDBRANCH   8  21
TORSDOF 7
ENDMDL
MODEL       58
REMARK 921   NORMALIZED FREE ENERGY PREDICTED BY IDOCK:   -5.77 KCAL/MOL
REMARK 922        TOTAL FREE ENERGY PREDICTED BY IDOCK:   -9.63 KCAL/MOL
REMARK 923 INTER-LIGAND FREE ENERGY PREDICTED BY IDOCK:   -7.89 KCAL/MOL
REMARK 924 INTRA-LIGAND FREE ENERGY PREDICTED BY IDOCK:   -1.74 KCAL/MOL
REMARK 927      BINDING AFFINITY PREDICTED BY RF-SCORE:    0.00 PKD
ROOT
HETATM    1  C   UNL     1     -11.367  10.590  68.489  1.00  0.00    -0.257 C  
HETATM    2  S   UNL     1      -9.783  11.132  67.793  1.00  0.00    -0.174 SA 
HETATM    3  C   UNL     1      -9.194   9.446  67.534  1.00  0.00    -0.123 C  
HETATM    4  C   UNL     1      -9.353   8.524  68.738  1.00  0.00    -0.143 C  
HETATM    5  OXT UNL     1      -9.269   7.125  71.278  1.00  0.00    -0.151 OA 
HETATM    6  CA  UNL     1     -10.231   8.750  69.759  1.00  0.00    -0.202 C  
HETATM    7  C   UNL     1     -10.190   7.884  71.008  1.00  0.00    -0.197 C  
HETATM    8  CA  UNL     1     -12.068  11.639  69.421  1.00  0.00    -0.263 C  
HETATM    9  N   UNL     1     -11.104   9.805  69.682  1.00  0.00    -0.235 N  
HETATM   10  O   UNL     1     -11.273   7.925  71.807  1.00  0.00    -0.245 OA 
HETATM   11  C   UNL     1     -11.898  10.520  70.510  1.00  0.00    -0.347 C  
HETATM   12  O   UNL     1     -12.204  10.299  71.661  1.00  0.00    -0.372 OA 
ENDROOT
BRANCH   4  13
HETATM   13  C   UNL     1      -8.306   7.411  68.682  1.00  0.00    -0.129 C  
BRANCH  13  14
HETATM   14  S   UNL     1      -6.582   7.941  68.539  1.00  0.00    -0.063 SA 
BRANCH  14  15
HETATM   15  C   UNL     1      -6.338   8.995  69.870  1.00  0.00    -0.038 A  
HETATM   16  N   UNL     1      -6.366   8.711  71.149  1.00  0.00    -0.043 NA 
HETATM   17  N   UNL     1      -6.153   9.901  71.803  1.00  0.00    -0.298 NA 
HETATM   18  C   UNL     1      -5.948  11.118  68.532  1.00  0.00    -0.042 C  
HETATM   19  N   UNL     1      -6.096  10.331  69.726  1.00  0.00    -0.048 NA 
HETATM   20  N   UNL     1      -5.987  10.897  70.942  1.00  0.00    -0.343 NA 
ENDBRANCH  14  15
ENDBRANCH  13  14
ENDBRANCH   4  13
BRANCH   8  21
HETATM   21  N   UNL     1     -11.280  12.879  69.652  1.00  0.00    -0.475 N  
HETATM   22  O   UNL     1     -12.150  14.118  67.945  1.00  0.00    -0.358 OA 
HETATM   23  H   UNL     1     -10.583  12.865  70.396  1.00  0.00     0.000 HD 
HETATM   24  C   UNL     1     -11.425  14.045  68.934  1.00  0.00    -0.294 C  
BRANCH  24  25
HETATM   25  C   UNL     1     -10.590  15.232  69.469  1.00  0.00    -0.267 C  
BRANCH  25  26
HETATM   26  O   UNL     1     -11.511  16.201  70.007  1.00  0.00    -0.330 OA 
HETATM   27  O   UNL     1     -11.343  15.192  72.073  1.00  0.00    -0.418 OA 
HETATM   28  C   UNL     1     -11.772  16.058  71.331  1.00  0.00    -0.473 C  
ENDBRANCH  25  26
BRANCH  25  29
HETATM   29  C   UNL     1      -9.740  15.855  68.368  1.00  0.00    -0.214 A  
HETATM   30  C   UNL     1      -8.603  15.178  67.908  1.00  0.00    -0.154 A  
HETATM   31  C   UNL     1      -7.798  15.735  66.913  1.00  0.00    -0.271 A  
HETATM   32  C   UNL     1      -8.127  16.967  66.355  1.00  0.00    -0.335 A  
HETATM   33  C   UNL     1      -9.262  17.646  66.788  1.00  0.00    -0.281 A  
HETATM   34  C   UNL     1     -10.063  17.095  67.787  1.00  0.00    -0.306 A  
ENDBRANCH  25  29
ENDBRANCH  24  25
ENDBRANCH   8  21
TORSDOF 7
ENDMDL
MODEL       59
REMARK 921   NORMALIZED FREE ENERGY PREDICTED BY IDOCK:   -5.77 KCAL/MOL
REMARK 922        TOTAL FREE ENERGY PREDICTED BY IDOCK:   -9.62 KCAL/MOL
REMARK 923 INTER-LIGAND FREE ENERGY PREDICTED BY IDOCK:   -8.29 KCAL/MOL
REMARK 924 INTRA-LIGAND FREE ENERGY PREDICTED BY IDOCK:   -1.34 KCAL/MOL
REMARK 927      BINDING AFFINITY PREDICTED BY RF-SCORE:    0.00 PKD
ROOT
HETATM    1  C   UNL     1      -8.476  12.165  68.463  1.00  0.00    -0.083 C  
HETATM    2  S   UNL     1      -7.198  13.078  67.557  1.00  0.00    -0.127 SA 
HETATM    3  C   UNL     1      -7.439  14.587  68.517  1.00  0.00    -0.123 C  
HETATM    4  C   UNL     1      -8.893  15.024  68.662  1.00  0.00    -0.185 C  
HETATM    5  OXT UNL     1     -11.630  15.936  68.362  1.00  0.00    -0.371 OA 
HETATM    6  CA  UNL     1      -9.959  14.186  68.498  1.00  0.00    -0.235 C  
HETATM    7  C   UNL     1     -11.373  14.746  68.473  1.00  0.00    -0.290 C  
HETATM    8  CA  UNL     1      -9.100  10.957  67.679  1.00  0.00    -0.148 C  
HETATM    9  N   UNL     1      -9.745  12.848  68.288  1.00  0.00    -0.223 N  
HETATM   10  O   UNL     1     -12.374  13.864  68.655  1.00  0.00    -0.278 OA 
HETATM   11  C   UNL     1     -10.432  11.776  67.835  1.00  0.00    -0.196 C  
HETATM   12  O   UNL     1     -11.616  11.663  67.603  1.00  0.00    -0.428 OA 
ENDROOT
BRANCH   4  13
HETATM   13  C   UNL     1      -8.962  16.535  68.880  1.00  0.00    -0.245 C  
BRANCH  13  14
HETATM   14  S   UNL     1      -8.289  17.567  67.555  1.00  0.00    -0.218 SA 
BRANCH  14  15
HETATM   15  C   UNL     1      -9.515  17.589  66.355  1.00  0.00    -0.259 A  
HETATM   16  N   UNL     1      -9.986  16.586  65.655  1.00  0.00    -0.549 NA 
HETATM   17  N   UNL     1     -10.920  17.128  64.804  1.00  0.00    -0.924 NA 
HETATM   18  C   UNL     1     -10.010  20.077  66.445  1.00  0.00    -0.481 C  
HETATM   19  N   UNL     1     -10.153  18.730  65.964  1.00  0.00    -0.535 NA 
HETATM   20  N   UNL     1     -11.029  18.437  64.985  1.00  0.00    -0.422 NA 
ENDBRANCH  14  15
ENDBRANCH  13  14
ENDBRANCH   4  13
BRANCH   8  21
HETATM   21  N   UNL     1      -8.603  10.806  66.286  1.00  0.00    -0.156 N  
HETATM   22  O   UNL     1      -9.864   8.995  65.706  1.00  0.00    -0.262 OA 
HETATM   23  H   UNL     1      -7.865  11.438  65.975  1.00  0.00     0.000 HD 
HETATM   24  C   UNL     1      -9.067   9.873  65.385  1.00  0.00    -0.196 C  
BRANCH  24  25
HETATM   25  C   UNL     1      -8.488  10.020  63.959  1.00  0.00    -0.177 C  
BRANCH  25  26
HETATM   26  O   UNL     1      -9.598  10.018  63.040  1.00  0.00    -0.267 OA 
HETATM   27  O   UNL     1      -9.796  12.300  63.294  1.00  0.00    -0.390 OA 
HETATM   28  C   UNL     1     -10.133  11.241  62.795  1.00  0.00    -0.088 C  
ENDBRANCH  25  26
BRANCH  25  29
HETATM   29  C   UNL     1      -7.519   8.891  63.632  1.00  0.00    -0.105 A  
HETATM   30  C   UNL     1      -8.000   7.726  63.020  1.00  0.00    -0.123 A  
HETATM   31  C   UNL     1      -7.136   6.669  62.727  1.00  0.00    -0.053 A  
HETATM   32  C   UNL     1      -5.780   6.769  63.027  1.00  0.00    -0.035 A  
HETATM   33  C   UNL     1      -5.283   7.925  63.621  1.00  0.00    -0.041 A  
HETATM   34  C   UNL     1      -6.145   8.979  63.921  1.00  0.00    -0.072 A  
ENDBRANCH  25  29
ENDBRANCH  24  25
ENDBRANCH   8  21
TORSDOF 7
ENDMDL
MODEL       60
REMARK 921   NORMALIZED FREE ENERGY PREDICTED BY IDOCK:   -5.77 KCAL/MOL
REMARK 922        TOTAL FREE ENERGY PREDICTED BY IDOCK:   -9.62 KCAL/MOL
REMARK 923 INTER-LIGAND FREE ENERGY PREDICTED BY IDOCK:   -8.25 KCAL/MOL
REMARK 924 INTRA-LIGAND FREE ENERGY PREDICTED BY IDOCK:   -1.37 KCAL/MOL
REMARK 927      BINDING AFFINITY PREDICTED BY RF-SCORE:    0.00 PKD
ROOT
HETATM    1  C   UNL     1     -11.774  10.632  68.672  1.00  0.00    -0.158 C  
HETATM    2  S   UNL     1     -10.880  11.877  67.703  1.00  0.00    -0.240 SA 
HETATM    3  C   UNL     1      -9.911  10.645  66.808  1.00  0.00    -0.209 C  
HETATM    4  C   UNL     1      -9.260   9.585  67.689  1.00  0.00    -0.138 C  
HETATM    5  OXT UNL     1      -7.710   8.015  69.574  1.00  0.00    -0.098 OA 
HETATM    6  CA  UNL     1      -9.681   9.281  68.952  1.00  0.00    -0.161 C  
HETATM    7  C   UNL     1      -8.859   8.348  69.828  1.00  0.00    -0.134 C  
HETATM    8  CA  UNL     1     -12.357  11.153  70.032  1.00  0.00    -0.279 C  
HETATM    9  N   UNL     1     -10.813   9.873  69.451  1.00  0.00    -0.230 N  
HETATM   10  O   UNL     1      -9.481   7.822  70.901  1.00  0.00    -0.159 OA 
HETATM   11  C   UNL     1     -11.403  10.069  70.651  1.00  0.00    -0.348 C  
HETATM   12  O   UNL     1     -11.134   9.585  71.728  1.00  0.00    -0.352 OA 
ENDROOT
BRANCH   4  13
HETATM   13  C   UNL     1      -8.012   9.031  67.000  1.00  0.00    -0.102 C  
BRANCH  13  14
HETATM   14  S   UNL     1      -8.287   7.732  65.771  1.00  0.00    -0.141 SA 
BRANCH  14  15
HETATM   15  C   UNL     1      -8.490   6.298  66.691  1.00  0.00    -0.114 A  
HETATM   16  N   UNL     1      -7.580   5.421  67.042  1.00  0.00    -0.091 NA 
HETATM   17  N   UNL     1      -8.252   4.439  67.730  1.00  0.00    -0.098 NA 
HETATM   18  C   UNL     1     -10.992   6.506  67.065  1.00  0.00    -0.396 C  
HETATM   19  N   UNL     1      -9.701   5.883  67.164  1.00  0.00    -0.124 NA 
HETATM   20  N   UNL     1      -9.548   4.712  67.810  1.00  0.00    -0.152 NA 
ENDBRANCH  14  15
ENDBRANCH  13  14
ENDBRANCH   4  13
BRANCH   8  21
HETATM   21  N   UNL     1     -12.011  12.564  70.349  1.00  0.00    -0.519 N  
HETATM   22  O   UNL     1     -13.641  12.939  71.901  1.00  0.00    -0.416 OA 
HETATM   23  H   UNL     1     -11.252  12.995  69.821  1.00  0.00     0.000 HD 
HETATM   24  C   UNL     1     -12.641  13.330  71.304  1.00  0.00    -0.308 C  
BRANCH  24  25
HETATM   25  C   UNL     1     -11.995  14.716  71.539  1.00  0.00    -0.334 C  
BRANCH  25  26
HETATM   26  O   UNL     1     -13.041  15.614  71.959  1.00  0.00    -0.417 OA 
HETATM   27  O   UNL     1     -12.332  15.396  74.142  1.00  0.00    -0.590 OA 
HETATM   28  C   UNL     1     -13.065  15.870  73.291  1.00  0.00    -0.589 C  
ENDBRANCH  25  26
BRANCH  25  29
HETATM   29  C   UNL     1     -11.318  15.235  70.276  1.00  0.00    -0.318 A  
HETATM   30  C   UNL     1     -12.099  15.564  69.161  1.00  0.00    -0.266 A  
HETATM   31  C   UNL     1     -11.502  16.025  67.987  1.00  0.00    -0.199 A  
HETATM   32  C   UNL     1     -10.120  16.178  67.917  1.00  0.00    -0.244 A  
HETATM   33  C   UNL     1      -9.330  15.871  69.021  1.00  0.00    -0.243 A  
HETATM   34  C   UNL     1      -9.924  15.404  70.193  1.00  0.00    -0.082 A  
ENDBRANCH  25  29
ENDBRANCH  24  25
ENDBRANCH   8  21
TORSDOF 7
ENDMDL
MODEL       61
REMARK 921   NORMALIZED FREE ENERGY PREDICTED BY IDOCK:   -5.76 KCAL/MOL
REMARK 922        TOTAL FREE ENERGY PREDICTED BY IDOCK:   -9.61 KCAL/MOL
REMARK 923 INTER-LIGAND FREE ENERGY PREDICTED BY IDOCK:   -8.16 KCAL/MOL
REMARK 924 INTRA-LIGAND FREE ENERGY PREDICTED BY IDOCK:   -1.45 KCAL/MOL
REMARK 927      BINDING AFFINITY PREDICTED BY RF-SCORE:    0.00 PKD
ROOT
HETATM    1  C   UNL     1      -9.267   9.801  69.677  1.00  0.00    -0.223 C  
HETATM    2  S   UNL     1     -10.705   9.698  70.777  1.00  0.00    -0.332 SA 
HETATM    3  C   UNL     1     -10.640   7.898  70.874  1.00  0.00    -0.213 C  
HETATM    4  C   UNL     1     -10.512   7.192  69.529  1.00  0.00    -0.236 C  
HETATM    5  OXT UNL     1     -10.800   6.067  66.870  1.00  0.00    -0.313 OA 
HETATM    6  CA  UNL     1     -10.047   7.793  68.395  1.00  0.00    -0.192 C  
HETATM    7  C   UNL     1     -10.132   7.073  67.058  1.00  0.00    -0.229 C  
HETATM    8  CA  UNL     1      -9.202  11.103  68.803  1.00  0.00    -0.145 C  
HETATM    9  N   UNL     1      -9.565   9.076  68.455  1.00  0.00    -0.151 N  
HETATM   10  O   UNL     1      -9.363   7.555  66.062  1.00  0.00    -0.118 OA 
HETATM   11  C   UNL     1      -9.282  10.088  67.606  1.00  0.00    -0.137 C  
HETATM   12  O   UNL     1      -9.229  10.084  66.396  1.00  0.00    -0.149 OA 
ENDROOT
BRANCH   4  13
HETATM   13  C   UNL     1     -11.100   5.783  69.623  1.00  0.00    -0.236 C  
BRANCH  13  14
HETATM   14  S   UNL     1     -10.029   4.516  70.345  1.00  0.00    -0.167 SA 
BRANCH  14  15
HETATM   15  C   UNL     1      -8.565   4.626  69.458  1.00  0.00    -0.081 A  
HETATM   16  N   UNL     1      -7.491   5.322  69.743  1.00  0.00    -0.064 NA 
HETATM   17  N   UNL     1      -6.617   5.106  68.705  1.00  0.00    -0.047 NA 
HETATM   18  C   UNL     1      -9.221   3.075  67.559  1.00  0.00    -0.193 C  
HETATM   19  N   UNL     1      -8.360   3.975  68.276  1.00  0.00    -0.090 NA 
HETATM   20  N   UNL     1      -7.139   4.285  67.804  1.00  0.00    -0.063 NA 
ENDBRANCH  14  15
ENDBRANCH  13  14
ENDBRANCH   4  13
BRANCH   8  21
HETATM   21  N   UNL     1     -10.374  12.005  68.955  1.00  0.00    -0.391 N  
HETATM   22  O   UNL     1      -9.277  13.985  68.665  1.00  0.00    -0.189 OA 
HETATM   23  H   UNL     1     -11.273  11.579  69.179  1.00  0.00     0.000 HD 
HETATM   24  C   UNL     1     -10.333  13.374  68.814  1.00  0.00    -0.152 C  
BRANCH  24  25
HETATM   25  C   UNL     1     -11.715  14.064  68.877  1.00  0.00    -0.340 C  
BRANCH  25  26
HETATM   26  O   UNL     1     -11.674  15.196  67.986  1.00  0.00    -0.345 OA 
HETATM   27  O   UNL     1     -12.445  13.859  66.274  1.00  0.00    -0.453 OA 
HETATM   28  C   UNL     1     -12.089  14.935  66.721  1.00  0.00     0.022 C  
ENDBRANCH  25  26
BRANCH  25  29
HETATM   29  C   UNL     1     -12.050  14.510  70.295  1.00  0.00    -0.386 A  
HETATM   30  C   UNL     1     -11.643  15.777  70.733  1.00  0.00    -0.429 A  
HETATM   31  C   UNL     1     -11.922  16.203  72.033  1.00  0.00    -0.607 A  
HETATM   32  C   UNL     1     -12.623  15.375  72.906  1.00  0.00    -0.524 A  
HETATM   33  C   UNL     1     -13.049  14.120  72.482  1.00  0.00    -0.554 A  
HETATM   34  C   UNL     1     -12.766  13.690  71.186  1.00  0.00    -0.432 A  
ENDBRANCH  25  29
ENDBRANCH  24  25
ENDBRANCH   8  21
TORSDOF 7
ENDMDL
MODEL       62
REMARK 921   NORMALIZED FREE ENERGY PREDICTED BY IDOCK:   -5.74 KCAL/MOL
REMARK 922        TOTAL FREE ENERGY PREDICTED BY IDOCK:   -9.58 KCAL/MOL
REMARK 923 INTER-LIGAND FREE ENERGY PREDICTED BY IDOCK:   -8.58 KCAL/MOL
REMARK 924 INTRA-LIGAND FREE ENERGY PREDICTED BY IDOCK:   -1.00 KCAL/MOL
REMARK 927      BINDING AFFINITY PREDICTED BY RF-SCORE:    0.00 PKD
ROOT
HETATM    1  C   UNL     1      -8.231   8.657  69.129  1.00  0.00    -0.117 C  
HETATM    2  S   UNL     1      -8.473   7.774  67.563  1.00  0.00    -0.120 SA 
HETATM    3  C   UNL     1      -8.985   9.260  66.677  1.00  0.00    -0.140 C  
HETATM    4  C   UNL     1     -10.047  10.091  67.389  1.00  0.00    -0.256 C  
HETATM    5  OXT UNL     1     -12.407  11.209  68.653  1.00  0.00    -0.549 OA 
HETATM    6  CA  UNL     1     -10.295  10.023  68.730  1.00  0.00    -0.198 C  
HETATM    7  C   UNL     1     -11.495  10.744  69.323  1.00  0.00    -0.298 C  
HETATM    8  CA  UNL     1      -8.326   7.757  70.411  1.00  0.00    -0.123 C  
HETATM    9  N   UNL     1      -9.496   9.245  69.529  1.00  0.00    -0.165 N  
HETATM   10  O   UNL     1     -11.492  10.925  70.657  1.00  0.00    -0.302 OA 
HETATM   11  C   UNL     1      -9.531   8.701  70.765  1.00  0.00    -0.190 C  
HETATM   12  O   UNL     1     -10.310   8.901  71.671  1.00  0.00    -0.290 OA 
ENDROOT
BRANCH   4  13
HETATM   13  C   UNL     1     -10.855  10.890  66.365  1.00  0.00    -0.145 C  
BRANCH  13  14
HETATM   14  S   UNL     1      -9.934  12.105  65.391  1.00  0.00    -0.220 SA 
BRANCH  14  15
HETATM   15  C   UNL     1     -11.138  13.013  64.575  1.00  0.00    -0.351 A  
HETATM   16  N   UNL     1     -11.773  12.714  63.467  1.00  0.00    -0.509 NA 
HETATM   17  N   UNL     1     -12.602  13.779  63.210  1.00  0.00    -0.734 NA 
HETATM   18  C   UNL     1     -11.206  14.977  66.182  1.00  0.00    -0.307 C  
HETATM   19  N   UNL     1     -11.575  14.231  65.010  1.00  0.00    -0.350 NA 
HETATM   20  N   UNL     1     -12.488  14.711  64.147  1.00  0.00    -0.796 NA 
ENDBRANCH  14  15
ENDBRANCH  13  14
ENDBRANCH   4  13
BRANCH   8  21
HETATM   21  N   UNL     1      -8.684   6.339  70.141  1.00  0.00    -0.137 N  
HETATM   22  O   UNL     1      -7.276   5.375  71.656  1.00  0.00    -0.078 OA 
HETATM   23  H   UNL     1      -9.354   6.153  69.395  1.00  0.00     0.000 HD 
HETATM   24  C   UNL     1      -8.175   5.259  70.828  1.00  0.00    -0.110 C  
BRANCH  24  25
HETATM   25  C   UNL     1      -8.818   3.903  70.451  1.00  0.00    -0.084 C  
BRANCH  25  26
HETATM   26  O   UNL     1      -9.607   4.115  69.264  1.00  0.00    -0.176 OA 
HETATM   27  O   UNL     1      -8.476   2.397  68.223  1.00  0.00    -0.067 OA 
HETATM   28  C   UNL     1      -9.329   3.267  68.242  1.00  0.00    -0.184 C  
ENDBRANCH  25  26
BRANCH  25  29
HETATM   29  C   UNL     1      -9.687   3.366  71.582  1.00  0.00    -0.234 A  
HETATM   30  C   UNL     1     -10.241   4.258  72.510  1.00  0.00    -0.238 A  
HETATM   31  C   UNL     1     -11.025   3.790  73.565  1.00  0.00    -0.339 A  
HETATM   32  C   UNL     1     -11.278   2.427  73.698  1.00  0.00    -0.317 A  
HETATM   33  C   UNL     1     -10.750   1.529  72.777  1.00  0.00    -0.237 A  
HETATM   34  C   UNL     1      -9.960   1.994  71.726  1.00  0.00    -0.215 A  
ENDBRANCH  25  29
ENDBRANCH  24  25
ENDBRANCH   8  21
TORSDOF 7
ENDMDL
MODEL       63
REMARK 921   NORMALIZED FREE ENERGY PREDICTED BY IDOCK:   -5.74 KCAL/MOL
REMARK 922        TOTAL FREE ENERGY PREDICTED BY IDOCK:   -9.58 KCAL/MOL
REMARK 923 INTER-LIGAND FREE ENERGY PREDICTED BY IDOCK:   -8.22 KCAL/MOL
REMARK 924 INTRA-LIGAND FREE ENERGY PREDICTED BY IDOCK:   -1.36 KCAL/MOL
REMARK 927      BINDING AFFINITY PREDICTED BY RF-SCORE:    0.00 PKD
ROOT
HETATM    1  C   UNL     1      -9.196  11.705  66.347  1.00  0.00    -0.212 C  
HETATM    2  S   UNL     1      -7.509  11.949  66.967  1.00  0.00    -0.090 SA 
HETATM    3  C   UNL     1      -7.568  10.488  68.023  1.00  0.00    -0.091 C  
HETATM    4  C   UNL     1      -8.815  10.380  68.893  1.00  0.00    -0.161 C  
HETATM    5  OXT UNL     1     -10.978  10.653  70.808  1.00  0.00    -0.082 OA 
HETATM    6  CA  UNL     1      -9.986  11.032  68.629  1.00  0.00    -0.199 C  
HETATM    7  C   UNL     1     -11.114  11.019  69.649  1.00  0.00    -0.256 C  
HETATM    8  CA  UNL     1      -9.894  13.005  65.813  1.00  0.00    -0.209 C  
HETATM    9  N   UNL     1     -10.114  11.754  67.471  1.00  0.00    -0.190 N  
HETATM   10  O   UNL     1     -12.335  11.371  69.203  1.00  0.00    -0.356 OA 
HETATM   11  C   UNL     1     -10.923  12.710  66.962  1.00  0.00    -0.265 C  
HETATM   12  O   UNL     1     -11.975  13.133  67.389  1.00  0.00    -0.365 OA 
ENDROOT
BRANCH   4  13
HETATM   13  C   UNL     1      -8.507   9.557  70.144  1.00  0.00    -0.205 C  
BRANCH  13  14
HETATM   14  S   UNL     1      -8.148   7.804  69.880  1.00  0.00    -0.121 SA 
BRANCH  14  15
HETATM   15  C   UNL     1      -9.684   7.074  69.650  1.00  0.00    -0.157 A  
HETATM   16  N   UNL     1     -10.217   6.634  68.536  1.00  0.00    -0.160 NA 
HETATM   17  N   UNL     1     -11.470   6.180  68.873  1.00  0.00    -0.154 NA 
HETATM   18  C   UNL     1     -10.454   7.176  72.066  1.00  0.00    -0.207 C  
HETATM   19  N   UNL     1     -10.577   6.884  70.664  1.00  0.00    -0.218 NA 
HETATM   20  N   UNL     1     -11.699   6.329  70.171  1.00  0.00    -0.335 NA 
ENDBRANCH  14  15
ENDBRANCH  13  14
ENDBRANCH   4  13
BRANCH   8  21
HETATM   21  N   UNL     1      -9.091  14.246  65.978  1.00  0.00    -0.494 N  
HETATM   22  O   UNL     1     -10.729  15.744  65.449  1.00  0.00    -0.368 OA 
HETATM   23  H   UNL     1      -8.103  14.143  66.209  1.00  0.00     0.000 HD 
HETATM   24  C   UNL     1      -9.587  15.524  65.843  1.00  0.00    -0.348 C  
BRANCH  24  25
HETATM   25  C   UNL     1      -8.581  16.640  66.209  1.00  0.00    -0.324 C  
BRANCH  25  26
HETATM   26  O   UNL     1      -7.574  16.053  67.056  1.00  0.00    -0.188 OA 
HETATM   27  O   UNL     1      -6.001  17.473  66.148  1.00  0.00    -0.201 OA 
HETATM   28  C   UNL     1      -6.337  16.593  66.922  1.00  0.00    -0.173 C  
ENDBRANCH  25  26
BRANCH  25  29
HETATM   29  C   UNL     1      -9.270  17.799  66.919  1.00  0.00    -0.263 A  
HETATM   30  C   UNL     1      -9.629  17.666  68.267  1.00  0.00    -0.306 A  
HETATM   31  C   UNL     1     -10.276  18.706  68.935  1.00  0.00    -0.262 A  
HETATM   32  C   UNL     1     -10.560  19.896  68.270  1.00  0.00    -0.296 A  
HETATM   33  C   UNL     1     -10.196  20.051  66.936  1.00  0.00    -0.595 A  
HETATM   34  C   UNL     1      -9.555  19.011  66.265  1.00  0.00    -0.367 A  
ENDBRANCH  25  29
ENDBRANCH  24  25
ENDBRANCH   8  21
TORSDOF 7
ENDMDL
MODEL       64
REMARK 921   NORMALIZED FREE ENERGY PREDICTED BY IDOCK:   -5.72 KCAL/MOL
REMARK 922        TOTAL FREE ENERGY PREDICTED BY IDOCK:   -9.56 KCAL/MOL
REMARK 923 INTER-LIGAND FREE ENERGY PREDICTED BY IDOCK:   -7.94 KCAL/MOL
REMARK 924 INTRA-LIGAND FREE ENERGY PREDICTED BY IDOCK:   -1.61 KCAL/MOL
REMARK 927      BINDING AFFINITY PREDICTED BY RF-SCORE:    0.00 PKD
ROOT
HETATM    1  C   UNL     1     -11.692  13.011  68.054  1.00  0.00    -0.355 C  
HETATM    2  S   UNL     1     -10.069  12.401  67.522  1.00  0.00    -0.205 SA 
HETATM    3  C   UNL     1     -10.542  10.668  67.688  1.00  0.00    -0.246 C  
HETATM    4  C   UNL     1     -11.221  10.317  69.007  1.00  0.00    -0.260 C  
HETATM    5  OXT UNL     1     -11.998   9.783  71.751  1.00  0.00    -0.392 OA 
HETATM    6  CA  UNL     1     -11.832  11.233  69.816  1.00  0.00    -0.364 C  
HETATM    7  C   UNL     1     -12.316  10.827  71.199  1.00  0.00    -0.393 C  
HETATM    8  CA  UNL     1     -11.686  14.464  68.645  1.00  0.00    -0.332 C  
HETATM    9  N   UNL     1     -11.946  12.535  69.402  1.00  0.00    -0.286 N  
HETATM   10  O   UNL     1     -13.196  11.653  71.797  1.00  0.00    -0.453 OA 
HETATM   11  C   UNL     1     -12.205  13.746  69.942  1.00  0.00    -0.321 C  
HETATM   12  O   UNL     1     -12.604  14.023  71.052  1.00  0.00    -0.325 OA 
ENDROOT
BRANCH   4  13
HETATM   13  C   UNL     1     -10.996   8.840  69.331  1.00  0.00    -0.030 C  
BRANCH  13  14
HETATM   14  S   UNL     1      -9.378   8.162  68.890  1.00  0.00    -0.147 SA 
BRANCH  14  15
HETATM   15  C   UNL     1      -8.304   8.797  70.067  1.00  0.00    -0.127 A  
HETATM   16  N   UNL     1      -7.458   9.792  69.945  1.00  0.00    -0.122 NA 
HETATM   17  N   UNL     1      -6.805   9.880  71.151  1.00  0.00    -0.332 NA 
HETATM   18  C   UNL     1      -8.917   7.212  71.952  1.00  0.00    -0.127 C  
HETATM   19  N   UNL     1      -8.193   8.285  71.327  1.00  0.00    -0.114 NA 
HETATM   20  N   UNL     1      -7.247   8.964  72.002  1.00  0.00    -0.315 NA 
ENDBRANCH  14  15
ENDBRANCH  13  14
ENDBRANCH   4  13
BRANCH   8  21
HETATM   21  N   UNL     1     -10.335  15.079  68.753  1.00  0.00    -0.233 N  
HETATM   22  O   UNL     1     -10.653  16.780  67.265  1.00  0.00    -0.320 OA 
HETATM   23  H   UNL     1      -9.652  14.617  69.353  1.00  0.00     0.000 HD 
HETATM   24  C   UNL     1      -9.942  16.226  68.100  1.00  0.00    -0.239 C  
BRANCH  24  25
HETATM   25  C   UNL     1      -8.536  16.734  68.495  1.00  0.00    -0.245 C  
BRANCH  25  26
HETATM   26  O   UNL     1      -8.088  17.620  67.451  1.00  0.00    -0.203 OA 
HETATM   27  O   UNL     1      -7.666  19.246  69.029  1.00  0.00    -0.351 OA 
HETATM   28  C   UNL     1      -7.666  18.835  67.882  1.00  0.00    -0.256 C  
ENDBRANCH  25  26
BRANCH  25  29
HETATM   29  C   UNL     1      -7.558  15.581  68.676  1.00  0.00    -0.141 A  
HETATM   30  C   UNL     1      -7.170  14.824  67.563  1.00  0.00    -0.222 A  
HETATM   31  C   UNL     1      -6.289  13.751  67.705  1.00  0.00    -0.141 A  
HETATM   32  C   UNL     1      -5.772  13.430  68.957  1.00  0.00    -0.076 A  
HETATM   33  C   UNL     1      -6.133  14.181  70.071  1.00  0.00    -0.149 A  
HETATM   34  C   UNL     1      -7.019  15.249  69.933  1.00  0.00    -0.121 A  
ENDBRANCH  25  29
ENDBRANCH  24  25
ENDBRANCH   8  21
TORSDOF 7
ENDMDL
MODEL       65
REMARK 921   NORMALIZED FREE ENERGY PREDICTED BY IDOCK:   -5.70 KCAL/MOL
REMARK 922        TOTAL FREE ENERGY PREDICTED BY IDOCK:   -9.53 KCAL/MOL
REMARK 923 INTER-LIGAND FREE ENERGY PREDICTED BY IDOCK:   -8.51 KCAL/MOL
REMARK 924 INTRA-LIGAND FREE ENERGY PREDICTED BY IDOCK:   -1.01 KCAL/MOL
REMARK 927      BINDING AFFINITY PREDICTED BY RF-SCORE:    0.00 PKD
ROOT
HETATM    1  C   UNL     1     -11.261   9.457  68.264  1.00  0.00     0.189 C  
HETATM    2  S   UNL     1     -11.530  10.347  69.821  1.00  0.00    -0.280 SA 
HETATM    3  C   UNL     1     -11.606  11.959  69.014  1.00  0.00    -0.317 C  
HETATM    4  C   UNL     1     -10.473  12.233  68.031  1.00  0.00    -0.231 C  
HETATM    5  OXT UNL     1      -7.981  12.737  66.635  1.00  0.00     0.077 OA 
HETATM    6  CA  UNL     1      -9.718  11.256  67.449  1.00  0.00    -0.173 C  
HETATM    7  C   UNL     1      -8.490  11.625  66.632  1.00  0.00    -0.165 C  
HETATM    8  CA  UNL     1     -10.556   8.064  68.418  1.00  0.00    -0.102 C  
HETATM    9  N   UNL     1     -10.031   9.938  67.662  1.00  0.00    -0.163 N  
HETATM   10  O   UNL     1      -7.999  10.673  65.816  1.00  0.00    -0.159 OA 
HETATM   11  C   UNL     1      -9.446   8.728  67.526  1.00  0.00    -0.141 C  
HETATM   12  O   UNL     1      -8.411   8.432  66.970  1.00  0.00    -0.119 OA 
ENDROOT
BRANCH   4  13
HETATM   13  C   UNL     1     -10.242  13.740  67.912  1.00  0.00    -0.245 C  
BRANCH  13  14
HETATM   14  S   UNL     1     -11.653  14.725  67.357  1.00  0.00    -0.333 SA 
BRANCH  14  15
HETATM   15  C   UNL     1     -12.137  14.000  65.879  1.00  0.00    -0.428 A  
HETATM   16  N   UNL     1     -12.655  12.811  65.687  1.00  0.00    -0.568 NA 
HETATM   17  N   UNL     1     -12.826  12.692  64.328  1.00  0.00    -0.736 NA 
HETATM   18  C   UNL     1     -11.511  15.930  64.353  1.00  0.00    -0.264 C  
HETATM   19  N   UNL     1     -12.002  14.617  64.669  1.00  0.00    -0.452 NA 
HETATM   20  N   UNL     1     -12.430  13.789  63.698  1.00  0.00    -0.781 NA 
ENDBRANCH  14  15
ENDBRANCH  13  14
ENDBRANCH   4  13
BRANCH   8  21
HETATM   21  N   UNL     1     -10.144   7.733  69.809  1.00  0.00    -0.190 N  
HETATM   22  O   UNL     1     -12.057   6.669  70.450  1.00  0.00    -0.374 OA 
HETATM   23  H   UNL     1      -9.234   8.068  70.125  1.00  0.00     0.000 HD 
HETATM   24  C   UNL     1     -10.903   7.007  70.699  1.00  0.00    -0.246 C  
BRANCH  24  25
HETATM   25  C   UNL     1     -10.185   6.678  72.029  1.00  0.00    -0.188 C  
BRANCH  25  26
HETATM   26  O   UNL     1      -8.798   7.032  71.869  1.00  0.00    -0.126 OA 
HETATM   27  O   UNL     1      -8.919   8.318  73.778  1.00  0.00    -0.222 OA 
HETATM   28  C   UNL     1      -8.306   7.844  72.838  1.00  0.00    -0.152 C  
ENDBRANCH  25  26
BRANCH  25  29
HETATM   29  C   UNL     1     -10.325   5.204  72.387  1.00  0.00    -0.257 A  
HETATM   30  C   UNL     1      -9.591   4.249  71.673  1.00  0.00    -0.228 A  
HETATM   31  C   UNL     1      -9.715   2.890  71.970  1.00  0.00    -0.230 A  
HETATM   32  C   UNL     1     -10.561   2.471  72.993  1.00  0.00    -0.247 A  
HETATM   33  C   UNL     1     -11.285   3.408  73.724  1.00  0.00    -0.236 A  
HETATM   34  C   UNL     1     -11.169   4.765  73.424  1.00  0.00    -0.425 A  
ENDBRANCH  25  29
ENDBRANCH  24  25
ENDBRANCH   8  21
TORSDOF 7
ENDMDL
MODEL       66
REMARK 921   NORMALIZED FREE ENERGY PREDICTED BY IDOCK:   -5.68 KCAL/MOL
REMARK 922        TOTAL FREE ENERGY PREDICTED BY IDOCK:   -9.50 KCAL/MOL
REMARK 923 INTER-LIGAND FREE ENERGY PREDICTED BY IDOCK:   -8.78 KCAL/MOL
REMARK 924 INTRA-LIGAND FREE ENERGY PREDICTED BY IDOCK:   -0.72 KCAL/MOL
REMARK 927      BINDING AFFINITY PREDICTED BY RF-SCORE:    0.00 PKD
ROOT
HETATM    1  C   UNL     1     -10.644   9.951  69.104  1.00  0.00    -0.220 C  
HETATM    2  S   UNL     1      -8.986  10.560  69.516  1.00  0.00     0.068 SA 
HETATM    3  C   UNL     1      -8.433   8.961  70.142  1.00  0.00    -0.146 C  
HETATM    4  C   UNL     1      -9.393   8.295  71.123  1.00  0.00    -0.205 C  
HETATM    5  OXT UNL     1     -11.088   7.481  73.332  1.00  0.00    -0.344 OA 
HETATM    6  CA  UNL     1     -10.721   8.599  71.213  1.00  0.00    -0.254 C  
HETATM    7  C   UNL     1     -11.561   8.026  72.344  1.00  0.00    -0.390 C  
HETATM    8  CA  UNL     1     -11.753  11.058  69.041  1.00  0.00    -0.333 C  
HETATM    9  N   UNL     1     -11.279   9.477  70.320  1.00  0.00    -0.255 N  
HETATM   10  O   UNL     1     -12.897   8.074  72.189  1.00  0.00    -0.301 OA 
HETATM   11  C   UNL     1     -12.398  10.225  70.206  1.00  0.00    -0.192 C  
HETATM   12  O   UNL     1     -13.407  10.206  70.877  1.00  0.00    -0.388 OA 
ENDROOT
BRANCH   4  13
HETATM   13  C   UNL     1      -8.620   7.358  72.052  1.00  0.00    -0.106 C  
BRANCH  13  14
HETATM   14  S   UNL     1      -7.980   5.840  71.305  1.00  0.00    -0.114 SA 
BRANCH  14  15
HETATM   15  C   UNL     1      -8.903   4.581  72.016  1.00  0.00    -0.118 A  
HETATM   16  N   UNL     1      -9.995   4.016  71.562  1.00  0.00    -0.176 NA 
HETATM   17  N   UNL     1     -10.366   3.096  72.514  1.00  0.00    -0.141 NA 
HETATM   18  C   UNL     1      -7.478   4.273  74.095  1.00  0.00    -0.072 C  
HETATM   19  N   UNL     1      -8.588   4.016  73.218  1.00  0.00    -0.092 NA 
HETATM   20  N   UNL     1      -9.513   3.090  73.530  1.00  0.00    -0.094 NA 
ENDBRANCH  14  15
ENDBRANCH  13  14
ENDBRANCH   4  13
BRANCH   8  21
HETATM   21  N   UNL     1     -11.285  12.420  69.413  1.00  0.00    -0.430 N  
HETATM   22  O   UNL     1     -12.267  13.561  67.699  1.00  0.00    -0.312 OA 
HETATM   23  H   UNL     1     -10.665  12.503  70.218  1.00  0.00     0.000 HD 
HETATM   24  C   UNL     1     -11.628  13.576  68.748  1.00  0.00    -0.325 C  
BRANCH  24  25
HETATM   25  C   UNL     1     -11.126  14.873  69.423  1.00  0.00    -0.280 C  
BRANCH  25  26
HETATM   26  O   UNL     1      -9.693  14.772  69.541  1.00  0.00    -0.097 OA 
HETATM   27  O   UNL     1      -9.457  16.274  67.808  1.00  0.00    -0.219 OA 
HETATM   28  C   UNL     1      -8.998  15.550  68.674  1.00  0.00    -0.194 C  
ENDBRANCH  25  26
BRANCH  25  29
HETATM   29  C   UNL     1     -11.764  15.071  70.792  1.00  0.00    -0.371 A  
HETATM   30  C   UNL     1     -12.587  14.068  71.321  1.00  0.00    -0.444 A  
HETATM   31  C   UNL     1     -13.198  14.232  72.565  1.00  0.00    -0.581 A  
HETATM   32  C   UNL     1     -12.981  15.393  73.303  1.00  0.00    -0.648 A  
HETATM   33  C   UNL     1     -12.153  16.392  72.801  1.00  0.00    -0.570 A  
HETATM   34  C   UNL     1     -11.548  16.233  71.555  1.00  0.00    -0.435 A  
ENDBRANCH  25  29
ENDBRANCH  24  25
ENDBRANCH   8  21
TORSDOF 7
ENDMDL
MODEL       67
REMARK 921   NORMALIZED FREE ENERGY PREDICTED BY IDOCK:   -5.68 KCAL/MOL
REMARK 922        TOTAL FREE ENERGY PREDICTED BY IDOCK:   -9.49 KCAL/MOL
REMARK 923 INTER-LIGAND FREE ENERGY PREDICTED BY IDOCK:   -7.77 KCAL/MOL
REMARK 924 INTRA-LIGAND FREE ENERGY PREDICTED BY IDOCK:   -1.72 KCAL/MOL
REMARK 927      BINDING AFFINITY PREDICTED BY RF-SCORE:    0.00 PKD
ROOT
HETATM    1  C   UNL     1      -8.257  10.474  65.809  1.00  0.00    -0.160 C  
HETATM    2  S   UNL     1     -10.035  10.428  65.450  1.00  0.00    -0.293 SA 
HETATM    3  C   UNL     1     -10.142  12.211  65.197  1.00  0.00    -0.261 C  
HETATM    4  C   UNL     1      -9.490  13.050  66.291  1.00  0.00    -0.199 C  
HETATM    5  OXT UNL     1      -8.668  14.423  68.711  1.00  0.00    -0.178 OA 
HETATM    6  CA  UNL     1      -8.537  12.576  67.146  1.00  0.00    -0.200 C  
HETATM    7  C   UNL     1      -8.080  13.422  68.325  1.00  0.00    -0.152 C  
HETATM    8  CA  UNL     1      -7.729   9.268  66.662  1.00  0.00    -0.093 C  
HETATM    9  N   UNL     1      -8.043  11.308  66.978  1.00  0.00    -0.142 N  
HETATM   10  O   UNL     1      -6.924  13.063  68.914  1.00  0.00    -0.098 OA 
HETATM   11  C   UNL     1      -7.349  10.393  67.691  1.00  0.00    -0.088 C  
HETATM   12  O   UNL     1      -6.775  10.518  68.750  1.00  0.00    -0.052 OA 
ENDROOT
BRANCH   4  13
HETATM   13  C   UNL     1     -10.155  14.425  66.358  1.00  0.00    -0.286 C  
BRANCH  13  14
HETATM   14  S   UNL     1     -11.882  14.454  66.896  1.00  0.00    -0.385 SA 
BRANCH  14  15
HETATM   15  C   UNL     1     -11.926  13.433  68.273  1.00  0.00    -0.317 A  
HETATM   16  N   UNL     1     -11.936  12.122  68.315  1.00  0.00    -0.422 NA 
HETATM   17  N   UNL     1     -12.016  11.790  69.647  1.00  0.00    -0.317 NA 
HETATM   18  C   UNL     1     -11.970  15.264  70.031  1.00  0.00    -0.343 C  
HETATM   19  N   UNL     1     -11.982  13.909  69.551  1.00  0.00    -0.325 NA 
HETATM   20  N   UNL     1     -12.045  12.874  70.409  1.00  0.00    -0.353 NA 
ENDBRANCH  14  15
ENDBRANCH  13  14
ENDBRANCH   4  13
BRANCH   8  21
HETATM   21  N   UNL     1      -8.785   8.322  67.111  1.00  0.00    -0.122 N  
HETATM   22  O   UNL     1      -7.553   7.205  68.673  1.00  0.00    -0.105 OA 
HETATM   23  H   UNL     1      -9.686   8.357  66.633  1.00  0.00     0.000 HD 
HETATM   24  C   UNL     1      -8.634   7.403  68.125  1.00  0.00    -0.123 C  
BRANCH  24  25
HETATM   25  C   UNL     1      -9.929   6.641  68.493  1.00  0.00    -0.150 C  
BRANCH  25  26
HETATM   26  O   UNL     1     -10.834   6.765  67.378  1.00  0.00    -0.287 OA 
HETATM   27  O   UNL     1     -10.447   4.558  66.837  1.00  0.00    -0.118 OA 
HETATM   28  C   UNL     1     -11.002   5.628  66.657  1.00  0.00    -0.091 C  
ENDBRANCH  25  26
BRANCH  25  29
HETATM   29  C   UNL     1     -10.562   7.200  69.761  1.00  0.00    -0.250 A  
HETATM   30  C   UNL     1     -11.453   6.405  70.494  1.00  0.00    -0.444 A  
HETATM   31  C   UNL     1     -12.060   6.899  71.650  1.00  0.00    -0.394 A  
HETATM   32  C   UNL     1     -11.773   8.187  72.095  1.00  0.00    -0.418 A  
HETATM   33  C   UNL     1     -10.879   8.985  71.388  1.00  0.00    -0.400 A  
HETATM   34  C   UNL     1     -10.276   8.495  70.230  1.00  0.00    -0.206 A  
ENDBRANCH  25  29
ENDBRANCH  24  25
ENDBRANCH   8  21
TORSDOF 7
ENDMDL
MODEL       68
REMARK 921   NORMALIZED FREE ENERGY PREDICTED BY IDOCK:   -5.66 KCAL/MOL
REMARK 922        TOTAL FREE ENERGY PREDICTED BY IDOCK:   -9.47 KCAL/MOL
REMARK 923 INTER-LIGAND FREE ENERGY PREDICTED BY IDOCK:   -7.89 KCAL/MOL
REMARK 924 INTRA-LIGAND FREE ENERGY PREDICTED BY IDOCK:   -1.58 KCAL/MOL
REMARK 927      BINDING AFFINITY PREDICTED BY RF-SCORE:    0.00 PKD
ROOT
HETATM    1  C   UNL     1      -8.418   8.647  67.335  1.00  0.00    -0.123 C  
HETATM    2  S   UNL     1     -10.176   8.524  66.907  1.00  0.00    -0.299 SA 
HETATM    3  C   UNL     1     -10.109   9.921  65.767  1.00  0.00    -0.247 C  
HETATM    4  C   UNL     1      -9.428  11.166  66.325  1.00  0.00    -0.220 C  
HETATM    5  OXT UNL     1      -8.581  13.544  67.755  1.00  0.00    -0.158 OA 
HETATM    6  CA  UNL     1      -8.557  11.150  67.377  1.00  0.00    -0.137 C  
HETATM    7  C   UNL     1      -8.073  12.456  67.987  1.00  0.00    -0.162 C  
HETATM    8  CA  UNL     1      -8.036   8.028  68.725  1.00  0.00    -0.119 C  
HETATM    9  N   UNL     1      -8.175   9.952  67.924  1.00  0.00    -0.113 N  
HETATM   10  O   UNL     1      -6.978  12.388  68.769  1.00  0.00    -0.087 OA 
HETATM   11  C   UNL     1      -7.597   9.500  69.058  1.00  0.00    -0.075 C  
HETATM   12  O   UNL     1      -7.057  10.122  69.946  1.00  0.00    -0.109 OA 
ENDROOT
BRANCH   4  13
HETATM   13  C   UNL     1      -9.966  12.412  65.622  1.00  0.00    -0.244 C  
BRANCH  13  14
HETATM   14  S   UNL     1     -11.691  12.840  65.962  1.00  0.00    -0.437 SA 
BRANCH  14  15
HETATM   15  C   UNL     1     -11.874  12.605  67.651  1.00  0.00    -0.329 A  
HETATM   16  N   UNL     1     -12.048  11.481  68.302  1.00  0.00    -0.575 NA 
HETATM   17  N   UNL     1     -12.181  11.830  69.625  1.00  0.00    -0.230 NA 
HETATM   18  C   UNL     1     -11.703  15.044  68.336  1.00  0.00    -0.317 C  
HETATM   19  N   UNL     1     -11.880  13.633  68.549  1.00  0.00    -0.356 NA 
HETATM   20  N   UNL     1     -12.080  13.143  69.785  1.00  0.00    -0.298 NA 
ENDBRANCH  14  15
ENDBRANCH  13  14
ENDBRANCH   4  13
BRANCH   8  21
HETATM   21  N   UNL     1      -9.192   7.514  69.508  1.00  0.00    -0.147 N  
HETATM   22  O   UNL     1      -8.146   7.356  71.530  1.00  0.00    -0.098 OA 
HETATM   23  H   UNL     1     -10.058   7.326  69.004  1.00  0.00     0.000 HD 
HETATM   24  C   UNL     1      -9.175   7.275  70.864  1.00  0.00    -0.155 C  
BRANCH  24  25
HETATM   25  C   UNL     1     -10.548   6.883  71.459  1.00  0.00    -0.217 C  
BRANCH  25  26
HETATM   26  O   UNL     1     -10.868   7.849  72.479  1.00  0.00    -0.284 OA 
HETATM   27  O   UNL     1     -12.586   8.647  71.165  1.00  0.00    -0.260 OA 
HETATM   28  C   UNL     1     -11.927   8.646  72.190  1.00  0.00    -0.379 C  
ENDBRANCH  25  26
BRANCH  25  29
HETATM   29  C   UNL     1     -10.520   5.476  72.043  1.00  0.00    -0.277 A  
HETATM   30  C   UNL     1      -9.931   4.437  71.311  1.00  0.00    -0.245 A  
HETATM   31  C   UNL     1      -9.908   3.136  71.816  1.00  0.00    -0.229 A  
HETATM   32  C   UNL     1     -10.459   2.860  73.065  1.00  0.00    -0.252 A  
HETATM   33  C   UNL     1     -11.033   3.883  73.813  1.00  0.00    -0.321 A  
HETATM   34  C   UNL     1     -11.063   5.182  73.307  1.00  0.00    -0.392 A  
ENDBRANCH  25  29
ENDBRANCH  24  25
ENDBRANCH   8  21
TORSDOF 7
ENDMDL
MODEL       69
REMARK 921   NORMALIZED FREE ENERGY PREDICTED BY IDOCK:   -5.65 KCAL/MOL
REMARK 922        TOTAL FREE ENERGY PREDICTED BY IDOCK:   -9.46 KCAL/MOL
REMARK 923 INTER-LIGAND FREE ENERGY PREDICTED BY IDOCK:   -8.33 KCAL/MOL
REMARK 924 INTRA-LIGAND FREE ENERGY PREDICTED BY IDOCK:   -1.13 KCAL/MOL
REMARK 927      BINDING AFFINITY PREDICTED BY RF-SCORE:    0.00 PKD
ROOT
HETATM    1  C   UNL     1     -11.598  14.515  67.302  1.00  0.00    -0.385 C  
HETATM    2  S   UNL     1     -10.110  13.602  66.811  1.00  0.00    -0.274 SA 
HETATM    3  C   UNL     1     -10.834  11.996  67.200  1.00  0.00    -0.253 C  
HETATM    4  C   UNL     1     -11.502  11.913  68.568  1.00  0.00    -0.349 C  
HETATM    5  OXT UNL     1     -12.233  11.833  71.375  1.00  0.00    -0.134 OA 
HETATM    6  CA  UNL     1     -11.932  13.001  69.272  1.00  0.00    -0.278 C  
HETATM    7  C   UNL     1     -12.412  12.842  70.706  1.00  0.00    -0.271 C  
HETATM    8  CA  UNL     1     -11.347  16.009  67.710  1.00  0.00    -0.167 C  
HETATM    9  N   UNL     1     -11.864  14.247  68.704  1.00  0.00    -0.340 N  
HETATM   10  O   UNL     1     -13.131  13.859  71.219  1.00  0.00    -0.331 OA 
HETATM   11  C   UNL     1     -11.914  15.539  69.097  1.00  0.00    -0.309 C  
HETATM   12  O   UNL     1     -12.219  16.003  70.174  1.00  0.00    -0.282 OA 
ENDROOT
BRANCH   4  13
HETATM   13  C   UNL     1     -11.489  10.467  69.066  1.00  0.00    -0.237 C  
BRANCH  13  14
HETATM   14  S   UNL     1      -9.939   9.561  68.851  1.00  0.00    -0.186 SA 
BRANCH  14  15
HETATM   15  C   UNL     1     -10.401   8.068  68.143  1.00  0.00    -0.200 A  
HETATM   16  N   UNL     1     -10.544   7.780  66.872  1.00  0.00    -0.338 NA 
HETATM   17  N   UNL     1     -10.965   6.472  66.829  1.00  0.00    -0.327 NA 
HETATM   18  C   UNL     1     -10.683   6.761  70.301  1.00  0.00    -0.244 C  
HETATM   19  N   UNL     1     -10.709   6.960  68.878  1.00  0.00    -0.225 NA 
HETATM   20  N   UNL     1     -11.069   5.963  68.049  1.00  0.00    -0.161 NA 
ENDBRANCH  14  15
ENDBRANCH  13  14
ENDBRANCH   4  13
BRANCH   8  21
HETATM   21  N   UNL     1      -9.916  16.415  67.709  1.00  0.00    -0.244 N  
HETATM   22  O   UNL     1      -9.854  17.317  65.614  1.00  0.00    -0.548 OA 
HETATM   23  H   UNL     1      -9.355  16.173  68.526  1.00  0.00     0.000 HD 
HETATM   24  C   UNL     1      -9.294  17.092  66.684  1.00  0.00    -0.260 C  
BRANCH  24  25
HETATM   25  C   UNL     1      -7.841  17.522  66.993  1.00  0.00    -0.214 C  
BRANCH  25  26
HETATM   26  O   UNL     1      -7.158  17.671  65.733  1.00  0.00    -0.402 OA 
HETATM   27  O   UNL     1      -7.050  19.948  66.077  1.00  0.00    -0.254 OA 
HETATM   28  C   UNL     1      -6.811  18.946  65.425  1.00  0.00    -0.170 C  
ENDBRANCH  25  26
BRANCH  25  29
HETATM   29  C   UNL     1      -7.132  16.497  67.869  1.00  0.00    -0.150 A  
HETATM   30  C   UNL     1      -6.791  15.249  67.332  1.00  0.00    -0.188 A  
HETATM   31  C   UNL     1      -6.157  14.286  68.118  1.00  0.00    -0.138 A  
HETATM   32  C   UNL     1      -5.842  14.563  69.446  1.00  0.00    -0.097 A  
HETATM   33  C   UNL     1      -6.158  15.803  69.992  1.00  0.00    -0.143 A  
HETATM   34  C   UNL     1      -6.798  16.764  69.210  1.00  0.00    -0.225 A  
ENDBRANCH  25  29
ENDBRANCH  24  25
ENDBRANCH   8  21
TORSDOF 7
ENDMDL
MODEL       70
REMARK 921   NORMALIZED FREE ENERGY PREDICTED BY IDOCK:   -5.64 KCAL/MOL
REMARK 922        TOTAL FREE ENERGY PREDICTED BY IDOCK:   -9.44 KCAL/MOL
REMARK 923 INTER-LIGAND FREE ENERGY PREDICTED BY IDOCK:   -8.35 KCAL/MOL
REMARK 924 INTRA-LIGAND FREE ENERGY PREDICTED BY IDOCK:   -1.09 KCAL/MOL
REMARK 927      BINDING AFFINITY PREDICTED BY RF-SCORE:    0.00 PKD
ROOT
HETATM    1  C   UNL     1      -8.185  10.301  67.161  1.00  0.00    -0.121 C  
HETATM    2  S   UNL     1      -9.935  10.346  66.686  1.00  0.00    -0.217 SA 
HETATM    3  C   UNL     1      -9.805  11.985  65.944  1.00  0.00    -0.238 C  
HETATM    4  C   UNL     1      -9.105  13.024  66.813  1.00  0.00    -0.212 C  
HETATM    5  OXT UNL     1      -8.232  14.930  68.819  1.00  0.00    -0.146 OA 
HETATM    6  CA  UNL     1      -8.261  12.713  67.840  1.00  0.00    -0.170 C  
HETATM    7  C   UNL     1      -7.758  13.804  68.773  1.00  0.00    -0.080 C  
HETATM    8  CA  UNL     1      -7.853   9.336  68.353  1.00  0.00    -0.094 C  
HETATM    9  N   UNL     1      -7.923  11.404  68.068  1.00  0.00    -0.121 N  
HETATM   10  O   UNL     1      -6.685  13.504  69.529  1.00  0.00    -0.094 OA 
HETATM   11  C   UNL     1      -7.384  10.659  69.059  1.00  0.00    -0.108 C  
HETATM   12  O   UNL     1      -6.850  11.017  70.086  1.00  0.00    -0.172 OA 
ENDROOT
BRANCH   4  13
HETATM   13  C   UNL     1      -9.594  14.425  66.444  1.00  0.00    -0.299 C  
BRANCH  13  14
HETATM   14  S   UNL     1     -11.331  14.785  66.800  1.00  0.00    -0.327 SA 
BRANCH  14  15
HETATM   15  C   UNL     1     -11.376  15.092  68.487  1.00  0.00    -0.303 A  
HETATM   16  N   UNL     1     -11.721  14.276  69.454  1.00  0.00    -0.295 NA 
HETATM   17  N   UNL     1     -11.629  15.008  70.613  1.00  0.00    -0.292 NA 
HETATM   18  C   UNL     1     -10.599  17.507  68.397  1.00  0.00    -0.339 C  
HETATM   19  N   UNL     1     -11.058  16.302  69.032  1.00  0.00    -0.325 NA 
HETATM   20  N   UNL     1     -11.225  16.247  70.366  1.00  0.00    -0.375 NA 
ENDBRANCH  14  15
ENDBRANCH  13  14
ENDBRANCH   4  13
BRANCH   8  21
HETATM   21  N   UNL     1      -9.040   8.675  68.959  1.00  0.00    -0.145 N  
HETATM   22  O   UNL     1      -8.164   8.315  71.035  1.00  0.00    -0.096 OA 
HETATM   23  H   UNL     1      -9.848   8.511  68.358  1.00  0.00     0.000 HD 
HETATM   24  C   UNL     1      -9.126   8.270  70.272  1.00  0.00    -0.150 C  
BRANCH  24  25
HETATM   25  C   UNL     1     -10.520   7.743  70.686  1.00  0.00    -0.213 C  
BRANCH  25  26
HETATM   26  O   UNL     1     -11.041   6.983  69.579  1.00  0.00    -0.238 OA 
HETATM   27  O   UNL     1     -10.201   5.055  70.524  1.00  0.00    -0.246 OA 
HETATM   28  C   UNL     1     -10.815   5.647  69.654  1.00  0.00    -0.295 C  
ENDBRANCH  25  26
BRANCH  25  29
HETATM   29  C   UNL     1     -11.463   8.885  71.043  1.00  0.00    -0.351 A  
HETATM   30  C   UNL     1     -11.257  10.151  70.479  1.00  0.00    -0.411 A  
HETATM   31  C   UNL     1     -12.096  11.218  70.803  1.00  0.00    -0.450 A  
HETATM   32  C   UNL     1     -13.160  11.030  71.682  1.00  0.00    -0.543 A  
HETATM   33  C   UNL     1     -13.388   9.776  72.240  1.00  0.00    -0.472 A  
HETATM   34  C   UNL     1     -12.547   8.710  71.923  1.00  0.00    -0.411 A  
ENDBRANCH  25  29
ENDBRANCH  24  25
ENDBRANCH   8  21
TORSDOF 7
ENDMDL
MODEL       71
REMARK 921   NORMALIZED FREE ENERGY PREDICTED BY IDOCK:   -5.62 KCAL/MOL
REMARK 922        TOTAL FREE ENERGY PREDICTED BY IDOCK:   -9.41 KCAL/MOL
REMARK 923 INTER-LIGAND FREE ENERGY PREDICTED BY IDOCK:   -8.17 KCAL/MOL
REMARK 924 INTRA-LIGAND FREE ENERGY PREDICTED BY IDOCK:   -1.24 KCAL/MOL
REMARK 927      BINDING AFFINITY PREDICTED BY RF-SCORE:    0.00 PKD
ROOT
HETATM    1  C   UNL     1     -11.455  11.717  66.362  1.00  0.00    -0.239 C  
HETATM    2  S   UNL     1     -10.508  11.084  67.774  1.00  0.00    -0.212 SA 
HETATM    3  C   UNL     1     -11.013  12.434  68.859  1.00  0.00    -0.223 C  
HETATM    4  C   UNL     1     -10.862  13.826  68.256  1.00  0.00    -0.266 C  
HETATM    5  OXT UNL     1     -10.007  16.355  67.120  1.00  0.00    -0.248 OA 
HETATM    6  CA  UNL     1     -10.790  14.071  66.915  1.00  0.00    -0.290 C  
HETATM    7  C   UNL     1     -10.450  15.464  66.410  1.00  0.00    -0.303 C  
HETATM    8  CA  UNL     1     -10.937  11.244  64.959  1.00  0.00    -0.156 C  
HETATM    9  N   UNL     1     -10.957  13.039  66.027  1.00  0.00    -0.274 N  
HETATM   10  O   UNL     1     -10.728  15.722  65.117  1.00  0.00    -0.400 OA 
HETATM   11  C   UNL     1     -10.713  12.781  64.723  1.00  0.00    -0.316 C  
HETATM   12  O   UNL     1     -10.376  13.539  63.840  1.00  0.00    -0.199 OA 
ENDROOT
BRANCH   4  13
HETATM   13  C   UNL     1     -10.676  14.858  69.370  1.00  0.00    -0.256 C  
BRANCH  13  14
HETATM   14  S   UNL     1     -12.141  15.815  69.826  1.00  0.00    -0.191 SA 
BRANCH  14  15
HETATM   15  C   UNL     1     -12.849  14.938  71.120  1.00  0.00    -0.359 A  
HETATM   16  N   UNL     1     -13.603  13.867  71.061  1.00  0.00    -0.104 NA 
HETATM   17  N   UNL     1     -13.947  13.578  72.360  1.00  0.00    -0.703 NA 
HETATM   18  C   UNL     1     -11.965  16.383  73.011  1.00  0.00    -0.463 C  
HETATM   19  N   UNL     1     -12.710  15.301  72.428  1.00  0.00    -0.337 NA 
HETATM   20  N   UNL     1     -13.406  14.448  73.202  1.00  0.00    -0.612 NA 
ENDBRANCH  14  15
ENDBRANCH  13  14
ENDBRANCH   4  13
BRANCH   8  21
HETATM   21  N   UNL     1      -9.700  10.419  65.006  1.00  0.00    -0.275 N  
HETATM   22  O   UNL     1      -9.396  10.194  62.756  1.00  0.00    -0.284 OA 
HETATM   23  H   UNL     1      -9.353  10.139  65.923  1.00  0.00     0.000 HD 
HETATM   24  C   UNL     1      -8.990  10.008  63.900  1.00  0.00    -0.242 C  
BRANCH  24  25
HETATM   25  C   UNL     1      -7.662   9.285  64.228  1.00  0.00    -0.119 C  
BRANCH  25  26
HETATM   26  O   UNL     1      -6.748   9.552  63.147  1.00  0.00    -0.099 OA 
HETATM   27  O   UNL     1      -5.281  10.515  64.643  1.00  0.00    -0.122 OA 
HETATM   28  C   UNL     1      -5.591  10.156  63.520  1.00  0.00    -0.126 C  
ENDBRANCH  25  26
BRANCH  25  29
HETATM   29  C   UNL     1      -7.872   7.785  64.394  1.00  0.00    -0.138 A  
HETATM   30  C   UNL     1      -7.761   6.946  63.278  1.00  0.00    -0.110 A  
HETATM   31  C   UNL     1      -7.966   5.571  63.400  1.00  0.00    -0.101 A  
HETATM   32  C   UNL     1      -8.268   5.015  64.641  1.00  0.00    -0.128 A  
HETATM   33  C   UNL     1      -8.366   5.832  65.763  1.00  0.00    -0.134 A  
HETATM   34  C   UNL     1      -8.169   7.207  65.642  1.00  0.00    -0.138 A  
ENDBRANCH  25  29
ENDBRANCH  24  25
ENDBRANCH   8  21
TORSDOF 7
ENDMDL
MODEL       72
REMARK 921   NORMALIZED FREE ENERGY PREDICTED BY IDOCK:   -5.61 KCAL/MOL
REMARK 922        TOTAL FREE ENERGY PREDICTED BY IDOCK:   -9.39 KCAL/MOL
REMARK 923 INTER-LIGAND FREE ENERGY PREDICTED BY IDOCK:   -7.87 KCAL/MOL
REMARK 924 INTRA-LIGAND FREE ENERGY PREDICTED BY IDOCK:   -1.52 KCAL/MOL
REMARK 927      BINDING AFFINITY PREDICTED BY RF-SCORE:    0.00 PKD
ROOT
HETATM    1  C   UNL     1     -12.002  13.084  65.934  1.00  0.00    -0.435 C  
HETATM    2  S   UNL     1     -10.828  13.597  64.651  1.00  0.00    -0.406 SA 
HETATM    3  C   UNL     1     -10.588  11.915  64.044  1.00  0.00    -0.374 C  
HETATM    4  C   UNL     1     -10.306  10.881  65.128  1.00  0.00    -0.344 C  
HETATM    5  OXT UNL     1      -9.278   9.215  67.270  1.00  0.00    -0.131 OA 
HETATM    6  CA  UNL     1     -10.627  11.051  66.444  1.00  0.00    -0.251 C  
HETATM    7  C   UNL     1     -10.140  10.055  67.485  1.00  0.00    -0.198 C  
HETATM    8  CA  UNL     1     -12.118  14.070  67.149  1.00  0.00    -0.401 C  
HETATM    9  N   UNL     1     -11.333  12.161  66.833  1.00  0.00    -0.323 N  
HETATM   10  O   UNL     1     -10.761  10.078  68.680  1.00  0.00    -0.209 OA 
HETATM   11  C   UNL     1     -11.612  12.832  67.972  1.00  0.00    -0.341 C  
HETATM   12  O   UNL     1     -11.411  12.508  69.122  1.00  0.00    -0.270 OA 
ENDROOT
BRANCH   4  13
HETATM   13  C   UNL     1      -9.508   9.716  64.541  1.00  0.00    -0.113 C  
BRANCH  13  14
HETATM   14  S   UNL     1      -7.780  10.058  64.130  1.00  0.00    -0.135 SA 
BRANCH  14  15
HETATM   15  C   UNL     1      -6.929   8.650  64.617  1.00  0.00    -0.073 A  
HETATM   16  N   UNL     1      -6.919   7.468  64.050  1.00  0.00    -0.056 NA 
HETATM   17  N   UNL     1      -6.121   6.678  64.843  1.00  0.00    -0.034 NA 
HETATM   18  C   UNL     1      -5.812   9.642  66.669  1.00  0.00    -0.055 C  
HETATM   19  N   UNL     1      -6.141   8.605  65.730  1.00  0.00    -0.051 NA 
HETATM   20  N   UNL     1      -5.641   7.364  65.872  1.00  0.00    -0.031 NA 
ENDBRANCH  14  15
ENDBRANCH  13  14
ENDBRANCH   4  13
BRANCH   8  21
HETATM   21  N   UNL     1     -11.184  15.226  67.095  1.00  0.00    -0.321 N  
HETATM   22  O   UNL     1     -11.608  16.061  69.175  1.00  0.00    -0.356 OA 
HETATM   23  H   UNL     1     -10.676  15.383  66.224  1.00  0.00     0.000 HD 
HETATM   24  C   UNL     1     -10.955  16.098  68.135  1.00  0.00    -0.341 C  
BRANCH  24  25
HETATM   25  C   UNL     1      -9.830  17.126  67.871  1.00  0.00    -0.283 C  
BRANCH  25  26
HETATM   26  O   UNL     1      -9.955  17.560  66.502  1.00  0.00    -0.293 OA 
HETATM   27  O   UNL     1     -10.928  19.520  67.227  1.00  0.00    -0.499 OA 
HETATM   28  C   UNL     1     -10.507  18.789  66.347  1.00  0.00    -0.429 C  
ENDBRANCH  25  26
BRANCH  25  29
HETATM   29  C   UNL     1      -8.454  16.520  68.117  1.00  0.00    -0.191 A  
HETATM   30  C   UNL     1      -7.396  16.836  67.254  1.00  0.00    -0.206 A  
HETATM   31  C   UNL     1      -6.131  16.280  67.447  1.00  0.00    -0.197 A  
HETATM   32  C   UNL     1      -5.902  15.414  68.513  1.00  0.00    -0.096 A  
HETATM   33  C   UNL     1      -6.936  15.102  69.390  1.00  0.00    -0.178 A  
HETATM   34  C   UNL     1      -8.203  15.650  69.194  1.00  0.00    -0.248 A  
ENDBRANCH  25  29
ENDBRANCH  24  25
ENDBRANCH   8  21
TORSDOF 7
ENDMDL
MODEL       73
REMARK 921   NORMALIZED FREE ENERGY PREDICTED BY IDOCK:   -5.61 KCAL/MOL
REMARK 922        TOTAL FREE ENERGY PREDICTED BY IDOCK:   -9.39 KCAL/MOL
REMARK 923 INTER-LIGAND FREE ENERGY PREDICTED BY IDOCK:   -7.99 KCAL/MOL
REMARK 924 INTRA-LIGAND FREE ENERGY PREDICTED BY IDOCK:   -1.40 KCAL/MOL
REMARK 927      BINDING AFFINITY PREDICTED BY RF-SCORE:    0.00 PKD
ROOT
HETATM    1  C   UNL     1      -8.028  11.250  68.807  1.00  0.00    -0.137 C  
HETATM    2  S   UNL     1      -7.048  12.110  67.546  1.00  0.00    -0.148 SA 
HETATM    3  C   UNL     1      -7.765  13.720  67.929  1.00  0.00    -0.161 C  
HETATM    4  C   UNL     1      -9.287  13.735  68.017  1.00  0.00    -0.199 C  
HETATM    5  OXT UNL     1     -12.159  13.637  67.616  1.00  0.00    -0.355 OA 
HETATM    6  CA  UNL     1     -10.047  12.622  68.237  1.00  0.00    -0.233 C  
HETATM    7  C   UNL     1     -11.562  12.696  68.120  1.00  0.00    -0.338 C  
HETATM    8  CA  UNL     1      -8.232   9.716  68.546  1.00  0.00    -0.105 C  
HETATM    9  N   UNL     1      -9.436  11.422  68.496  1.00  0.00    -0.187 N  
HETATM   10  O   UNL     1     -12.260  11.686  68.673  1.00  0.00    -0.455 OA 
HETATM   11  C   UNL     1      -9.753  10.108  68.501  1.00  0.00    -0.154 C  
HETATM   12  O   UNL     1     -10.839   9.580  68.411  1.00  0.00    -0.207 OA 
ENDROOT
BRANCH   4  13
HETATM   13  C   UNL     1      -9.813  15.134  67.694  1.00  0.00    -0.219 C  
BRANCH  13  14
HETATM   14  S   UNL     1      -9.254  15.858  66.134  1.00  0.00    -0.346 SA 
BRANCH  14  15
HETATM   15  C   UNL     1     -10.651  15.884  65.139  1.00  0.00    -0.397 A  
HETATM   16  N   UNL     1     -11.380  16.915  64.785  1.00  0.00    -0.695 NA 
HETATM   17  N   UNL     1     -12.405  16.406  64.023  1.00  0.00    -0.426 NA 
HETATM   18  C   UNL     1     -10.759  13.391  64.670  1.00  0.00    -0.411 C  
HETATM   19  N   UNL     1     -11.199  14.757  64.596  1.00  0.00    -0.367 NA 
HETATM   20  N   UNL     1     -12.303  15.090  63.902  1.00  0.00    -0.693 NA 
ENDBRANCH  14  15
ENDBRANCH  13  14
ENDBRANCH   4  13
BRANCH   8  21
HETATM   21  N   UNL     1      -7.660   9.229  67.262  1.00  0.00    -0.091 N  
HETATM   22  O   UNL     1      -8.877   7.306  67.094  1.00  0.00    -0.122 OA 
HETATM   23  H   UNL     1      -6.911   9.777  66.840  1.00  0.00     0.000 HD 
HETATM   24  C   UNL     1      -8.070   8.091  66.604  1.00  0.00    -0.103 C  
BRANCH  24  25
HETATM   25  C   UNL     1      -7.415   7.886  65.217  1.00  0.00    -0.081 C  
BRANCH  25  26
HETATM   26  O   UNL     1      -5.987   7.891  65.409  1.00  0.00    -0.038 OA 
HETATM   27  O   UNL     1      -5.913   5.668  64.803  1.00  0.00    -0.021 OA 
HETATM   28  C   UNL     1      -5.377   6.708  65.142  1.00  0.00    -0.026 C  
ENDBRANCH  25  26
BRANCH  25  29
HETATM   29  C   UNL     1      -7.828   8.980  64.240  1.00  0.00    -0.130 A  
HETATM   30  C   UNL     1      -6.883   9.497  63.344  1.00  0.00    -0.102 A  
HETATM   31  C   UNL     1      -7.230  10.512  62.452  1.00  0.00    -0.161 A  
HETATM   32  C   UNL     1      -8.530  11.012  62.432  1.00  0.00    -0.319 A  
HETATM   33  C   UNL     1      -9.485  10.500  63.304  1.00  0.00    -0.360 A  
HETATM   34  C   UNL     1      -9.138   9.491  64.201  1.00  0.00    -0.203 A  
ENDBRANCH  25  29
ENDBRANCH  24  25
ENDBRANCH   8  21
TORSDOF 7
ENDMDL
MODEL       74
REMARK 921   NORMALIZED FREE ENERGY PREDICTED BY IDOCK:   -5.60 KCAL/MOL
REMARK 922        TOTAL FREE ENERGY PREDICTED BY IDOCK:   -9.39 KCAL/MOL
REMARK 923 INTER-LIGAND FREE ENERGY PREDICTED BY IDOCK:   -8.08 KCAL/MOL
REMARK 924 INTRA-LIGAND FREE ENERGY PREDICTED BY IDOCK:   -1.30 KCAL/MOL
REMARK 927      BINDING AFFINITY PREDICTED BY RF-SCORE:    0.00 PKD
ROOT
HETATM    1  C   UNL     1      -9.192   8.786  71.403  1.00  0.00    -0.255 C  
HETATM    2  S   UNL     1      -8.419   8.298  69.836  1.00  0.00    -0.128 SA 
HETATM    3  C   UNL     1      -8.571   9.947  69.120  1.00  0.00    -0.157 C  
HETATM    4  C   UNL     1      -9.954  10.576  69.258  1.00  0.00    -0.233 C  
HETATM    5  OXT UNL     1     -12.751  11.339  69.169  1.00  0.00    -0.205 OA 
HETATM    6  CA  UNL     1     -10.877  10.189  70.186  1.00  0.00    -0.311 C  
HETATM    7  C   UNL     1     -12.294  10.737  70.130  1.00  0.00    -0.325 C  
HETATM    8  CA  UNL     1      -9.840   7.607  72.210  1.00  0.00    -0.177 C  
HETATM    9  N   UNL     1     -10.540   9.251  71.129  1.00  0.00    -0.306 N  
HETATM   10  O   UNL     1     -13.041  10.596  71.242  1.00  0.00    -0.375 OA 
HETATM   11  C   UNL     1     -11.163   8.428  72.001  1.00  0.00    -0.334 C  
HETATM   12  O   UNL     1     -12.327   8.400  72.333  1.00  0.00    -0.366 OA 
ENDROOT
BRANCH   4  13
HETATM   13  C   UNL     1     -10.179  11.587  68.133  1.00  0.00    -0.194 C  
BRANCH  13  14
HETATM   14  S   UNL     1     -10.028  10.954  66.446  1.00  0.00    -0.228 SA 
BRANCH  14  15
HETATM   15  C   UNL     1     -11.253  11.768  65.563  1.00  0.00    -0.258 A  
HETATM   16  N   UNL     1     -12.269  12.456  66.026  1.00  0.00    -0.624 NA 
HETATM   17  N   UNL     1     -12.976  12.870  64.922  1.00  0.00    -0.823 NA 
HETATM   18  C   UNL     1     -10.423  11.178  63.238  1.00  0.00    -0.257 C  
HETATM   19  N   UNL     1     -11.314  11.767  64.200  1.00  0.00    -0.359 NA 
HETATM   20  N   UNL     1     -12.400  12.454  63.802  1.00  0.00    -0.578 NA 
ENDBRANCH  14  15
ENDBRANCH  13  14
ENDBRANCH   4  13
BRANCH   8  21
HETATM   21  N   UNL     1      -9.791   6.290  71.521  1.00  0.00    -0.173 N  
HETATM   22  O   UNL     1      -8.294   5.272  72.910  1.00  0.00    -0.112 OA 
HETATM   23  H   UNL     1     -10.331   6.184  70.662  1.00  0.00     0.000 HD 
HETATM   24  C   UNL     1      -9.068   5.203  71.959  1.00  0.00    -0.137 C  
BRANCH  24  25
HETATM   25  C   UNL     1      -9.302   3.910  71.143  1.00  0.00    -0.146 C  
BRANCH  25  26
HETATM   26  O   UNL     1      -8.607   2.842  71.816  1.00  0.00    -0.070 OA 
HETATM   27  O   UNL     1     -10.629   1.984  72.514  1.00  0.00    -0.155 OA 
HETATM   28  C   UNL     1      -9.413   1.948  72.441  1.00  0.00    -0.084 C  
ENDBRANCH  25  26
BRANCH  25  29
HETATM   29  C   UNL     1      -8.800   4.057  69.712  1.00  0.00    -0.143 A  
HETATM   30  C   UNL     1      -7.452   4.360  69.481  1.00  0.00    -0.054 A  
HETATM   31  C   UNL     1      -6.972   4.517  68.180  1.00  0.00    -0.056 A  
HETATM   32  C   UNL     1      -7.828   4.359  67.094  1.00  0.00    -0.097 A  
HETATM   33  C   UNL     1      -9.166   4.041  67.303  1.00  0.00    -0.187 A  
HETATM   34  C   UNL     1      -9.650   3.891  68.602  1.00  0.00    -0.181 A  
ENDBRANCH  25  29
ENDBRANCH  24  25
ENDBRANCH   8  21
TORSDOF 7
ENDMDL
MODEL       75
REMARK 921   NORMALIZED FREE ENERGY PREDICTED BY IDOCK:   -5.60 KCAL/MOL
REMARK 922        TOTAL FREE ENERGY PREDICTED BY IDOCK:   -9.38 KCAL/MOL
REMARK 923 INTER-LIGAND FREE ENERGY PREDICTED BY IDOCK:   -8.58 KCAL/MOL
REMARK 924 INTRA-LIGAND FREE ENERGY PREDICTED BY IDOCK:   -0.80 KCAL/MOL
REMARK 927      BINDING AFFINITY PREDICTED BY RF-SCORE:    0.00 PKD
ROOT
HETATM    1  C   UNL     1     -11.680  13.637  67.971  1.00  0.00    -0.352 C  
HETATM    2  S   UNL     1     -10.068  14.058  68.689  1.00  0.00    -0.184 SA 
HETATM    3  C   UNL     1     -10.272  15.825  68.387  1.00  0.00    -0.223 C  
HETATM    4  C   UNL     1     -10.723  16.182  66.975  1.00  0.00    -0.254 C  
HETATM    5  OXT UNL     1     -11.065  16.646  64.131  1.00  0.00    -1.005 OA 
HETATM    6  CA  UNL     1     -11.348  15.308  66.132  1.00  0.00    -0.160 C  
HETATM    7  C   UNL     1     -11.591  15.688  64.680  1.00  0.00    -0.249 C  
HETATM    8  CA  UNL     1     -11.800  12.162  67.449  1.00  0.00    -0.227 C  
HETATM    9  N   UNL     1     -11.693  14.059  66.582  1.00  0.00    -0.379 N  
HETATM   10  O   UNL     1     -12.495  14.952  64.006  1.00  0.00    -0.807 OA 
HETATM   11  C   UNL     1     -12.047  12.862  66.064  1.00  0.00    -0.422 C  
HETATM   12  O   UNL     1     -12.337  12.574  64.924  1.00  0.00    -0.466 OA 
ENDROOT
BRANCH   4  13
HETATM   13  C   UNL     1     -10.255  17.594  66.621  1.00  0.00    -0.341 C  
BRANCH  13  14
HETATM   14  S   UNL     1      -9.506  18.548  67.962  1.00  0.00    -0.315 SA 
BRANCH  14  15
HETATM   15  C   UNL     1      -7.827  18.216  67.848  1.00  0.00    -0.244 A  
HETATM   16  N   UNL     1      -7.200  17.093  68.105  1.00  0.00    -0.187 NA 
HETATM   17  N   UNL     1      -5.865  17.353  67.901  1.00  0.00    -0.136 NA 
HETATM   18  C   UNL     1      -7.094  20.518  67.070  1.00  0.00    -0.299 C  
HETATM   19  N   UNL     1      -6.906  19.152  67.473  1.00  0.00    -0.207 NA 
HETATM   20  N   UNL     1      -5.676  18.608  67.515  1.00  0.00    -0.156 NA 
ENDBRANCH  14  15
ENDBRANCH  13  14
ENDBRANCH   4  13
BRANCH   8  21
HETATM   21  N   UNL     1     -10.546  11.370  67.549  1.00  0.00    -0.204 N  
HETATM   22  O   UNL     1     -10.695  10.838  69.763  1.00  0.00    -0.245 OA 
HETATM   23  H   UNL     1      -9.959  11.305  66.718  1.00  0.00     0.000 HD 
HETATM   24  C   UNL     1     -10.120  10.717  68.685  1.00  0.00    -0.183 C  
BRANCH  24  25
HETATM   25  C   UNL     1      -8.859   9.845  68.484  1.00  0.00    -0.122 C  
BRANCH  25  26
HETATM   26  O   UNL     1      -9.190   8.505  68.898  1.00  0.00    -0.146 OA 
HETATM   27  O   UNL     1     -10.112   8.106  66.823  1.00  0.00    -0.254 OA 
HETATM   28  C   UNL     1      -9.797   7.752  67.946  1.00  0.00    -0.160 C  
ENDBRANCH  25  26
BRANCH  25  29
HETATM   29  C   UNL     1      -7.679  10.378  69.288  1.00  0.00    -0.140 A  
HETATM   30  C   UNL     1      -7.274  11.708  69.118  1.00  0.00    -0.064 A  
HETATM   31  C   UNL     1      -6.186  12.216  69.829  1.00  0.00    -0.132 A  
HETATM   32  C   UNL     1      -5.499  11.406  70.729  1.00  0.00    -0.126 A  
HETATM   33  C   UNL     1      -5.897  10.087  70.923  1.00  0.00    -0.088 A  
HETATM   34  C   UNL     1      -6.980   9.576  70.208  1.00  0.00    -0.099 A  
ENDBRANCH  25  29
ENDBRANCH  24  25
ENDBRANCH   8  21
TORSDOF 7
ENDMDL
MODEL       76
REMARK 921   NORMALIZED FREE ENERGY PREDICTED BY IDOCK:   -5.55 KCAL/MOL
REMARK 922        TOTAL FREE ENERGY PREDICTED BY IDOCK:   -9.32 KCAL/MOL
REMARK 923 INTER-LIGAND FREE ENERGY PREDICTED BY IDOCK:   -8.26 KCAL/MOL
REMARK 924 INTRA-LIGAND FREE ENERGY PREDICTED BY IDOCK:   -1.06 KCAL/MOL
REMARK 927      BINDING AFFINITY PREDICTED BY RF-SCORE:    0.00 PKD
ROOT
HETATM    1  C   UNL     1      -7.942  11.152  67.045  1.00  0.00    -0.145 C  
HETATM    2  S   UNL     1      -8.266  12.065  68.578  1.00  0.00    -0.067 SA 
HETATM    3  C   UNL     1      -7.931  10.638  69.630  1.00  0.00    -0.003 C  
HETATM    4  C   UNL     1      -8.639   9.355  69.206  1.00  0.00    -0.143 C  
HETATM    5  OXT UNL     1     -10.472   7.208  68.537  1.00  0.00    -0.195 OA 
HETATM    6  CA  UNL     1      -9.119   9.131  67.948  1.00  0.00    -0.127 C  
HETATM    7  C   UNL     1      -9.977   7.908  67.664  1.00  0.00    -0.181 C  
HETATM    8  CA  UNL     1      -8.631  11.747  65.768  1.00  0.00     0.219 C  
HETATM    9  N   UNL     1      -8.881  10.048  66.957  1.00  0.00    -0.138 N  
HETATM   10  O   UNL     1     -10.126   7.561  66.371  1.00  0.00    -0.157 OA 
HETATM   11  C   UNL     1      -9.357  10.354  65.730  1.00  0.00    -0.186 C  
HETATM   12  O   UNL     1     -10.118   9.730  65.023  1.00  0.00    -0.225 OA 
ENDROOT
BRANCH   4  13
HETATM   13  C   UNL     1      -8.838   8.446  70.420  1.00  0.00    -0.146 C  
BRANCH  13  14
HETATM   14  S   UNL     1     -10.102   8.961  71.607  1.00  0.00    -0.336 SA 
BRANCH  14  15
HETATM   15  C   UNL     1     -10.197   7.670  72.731  1.00  0.00    -0.279 A  
HETATM   16  N   UNL     1      -9.523   7.509  73.845  1.00  0.00    -0.270 NA 
HETATM   17  N   UNL     1      -9.931   6.301  74.359  1.00  0.00    -0.299 NA 
HETATM   18  C   UNL     1     -11.968   6.315  71.519  1.00  0.00    -0.183 C  
HETATM   19  N   UNL     1     -11.020   6.594  72.562  1.00  0.00    -0.237 NA 
HETATM   20  N   UNL     1     -10.845   5.735  73.583  1.00  0.00    -0.249 NA 
ENDBRANCH  14  15
ENDBRANCH  13  14
ENDBRANCH   4  13
BRANCH   8  21
HETATM   21  N   UNL     1      -9.510  12.918  66.033  1.00  0.00    -0.438 N  
HETATM   22  O   UNL     1     -10.754  12.806  64.123  1.00  0.00    -0.362 OA 
HETATM   23  H   UNL     1      -9.334  13.460  66.878  1.00  0.00     0.000 HD 
HETATM   24  C   UNL     1     -10.545  13.321  65.219  1.00  0.00    -0.315 C  
BRANCH  24  25
HETATM   25  C   UNL     1     -11.395  14.478  65.793  1.00  0.00    -0.336 C  
BRANCH  25  26
HETATM   26  O   UNL     1     -10.736  15.711  65.447  1.00  0.00    -0.362 OA 
HETATM   27  O   UNL     1     -12.334  16.096  63.831  1.00  0.00    -0.895 OA 
HETATM   28  C   UNL     1     -11.340  16.417  64.458  1.00  0.00    -0.114 C  
ENDBRANCH  25  26
BRANCH  25  29
HETATM   29  C   UNL     1     -11.548  14.358  67.304  1.00  0.00    -0.401 A  
HETATM   30  C   UNL     1     -11.890  13.122  67.867  1.00  0.00    -0.390 A  
HETATM   31  C   UNL     1     -12.054  12.990  69.247  1.00  0.00    -0.251 A  
HETATM   32  C   UNL     1     -11.864  14.088  70.083  1.00  0.00    -0.377 A  
HETATM   33  C   UNL     1     -11.508  15.320  69.542  1.00  0.00    -0.318 A  
HETATM   34  C   UNL     1     -11.351  15.455  68.163  1.00  0.00    -0.353 A  
ENDBRANCH  25  29
ENDBRANCH  24  25
ENDBRANCH   8  21
TORSDOF 7
ENDMDL
MODEL       77
REMARK 921   NORMALIZED FREE ENERGY PREDICTED BY IDOCK:   -5.54 KCAL/MOL
REMARK 922        TOTAL FREE ENERGY PREDICTED BY IDOCK:   -9.31 KCAL/MOL
REMARK 923 INTER-LIGAND FREE ENERGY PREDICTED BY IDOCK:   -8.39 KCAL/MOL
REMARK 924 INTRA-LIGAND FREE ENERGY PREDICTED BY IDOCK:   -0.92 KCAL/MOL
REMARK 927      BINDING AFFINITY PREDICTED BY RF-SCORE:    0.00 PKD
ROOT
HETATM    1  C   UNL     1     -11.937  11.664  68.119  1.00  0.00    -0.144 C  
HETATM    2  S   UNL     1     -11.135  13.009  69.034  1.00  0.00    -0.199 SA 
HETATM    3  C   UNL     1     -11.415  14.217  67.723  1.00  0.00    -0.325 C  
HETATM    4  C   UNL     1     -11.018  13.746  66.328  1.00  0.00    -0.297 C  
HETATM    5  OXT UNL     1      -9.722  12.851  63.892  1.00  0.00    -0.152 OA 
HETATM    6  CA  UNL     1     -10.884  12.433  65.977  1.00  0.00    -0.273 C  
HETATM    7  C   UNL     1     -10.302  12.060  64.623  1.00  0.00    -0.287 C  
HETATM    8  CA  UNL     1     -11.487  10.222  68.543  1.00  0.00    -0.100 C  
HETATM    9  N   UNL     1     -11.213  11.453  66.878  1.00  0.00    -0.297 N  
HETATM   10  O   UNL     1     -10.511  10.798  64.202  1.00  0.00    -0.364 OA 
HETATM   11  C   UNL     1     -10.998  10.130  67.052  1.00  0.00    -0.092 C  
HETATM   12  O   UNL     1     -10.522   9.321  66.286  1.00  0.00    -0.188 OA 
ENDROOT
BRANCH   4  13
HETATM   13  C   UNL     1     -10.674  14.951  65.452  1.00  0.00    -0.377 C  
BRANCH  13  14
HETATM   14  S   UNL     1      -9.399  16.065  66.089  1.00  0.00    -0.352 SA 
BRANCH  14  15
HETATM   15  C   UNL     1     -10.129  17.617  66.073  1.00  0.00    -0.254 A  
HETATM   16  N   UNL     1     -10.751  18.215  65.085  1.00  0.00    -0.541 NA 
HETATM   17  N   UNL     1     -11.115  19.451  65.564  1.00  0.00    -0.277 NA 
HETATM   18  C   UNL     1      -9.587  18.253  68.471  1.00  0.00    -0.342 C  
HETATM   19  N   UNL     1     -10.120  18.455  67.151  1.00  0.00    -0.335 NA 
HETATM   20  N   UNL     1     -10.733  19.607  66.824  1.00  0.00    -0.476 NA 
ENDBRANCH  14  15
ENDBRANCH  13  14
ENDBRANCH   4  13
BRANCH   8  21
HETATM   21  N   UNL     1     -10.412  10.190  69.570  1.00  0.00    -0.224 N  
HETATM   22  O   UNL     1      -9.984   7.950  69.497  1.00  0.00    -0.181 OA 
HETATM   23  H   UNL     1     -10.185  11.064  70.045  1.00  0.00     0.000 HD 
HETATM   24  C   UNL     1      -9.700   9.066  69.925  1.00  0.00    -0.183 C  
BRANCH  24  25
HETATM   25  C   UNL     1      -8.539   9.331  70.912  1.00  0.00    -0.162 C  
BRANCH  25  26
HETATM   26  O   UNL     1      -7.311   9.013  70.229  1.00  0.00    -0.058 OA 
HETATM   27  O   UNL     1      -6.528  11.135  70.676  1.00  0.00    -0.309 OA 
HETATM   28  C   UNL     1      -6.396  10.015  70.214  1.00  0.00    -0.107 C  
ENDBRANCH  25  26
BRANCH  25  29
HETATM   29  C   UNL     1      -8.682   8.494  72.177  1.00  0.00    -0.267 A  
HETATM   30  C   UNL     1      -9.960   8.138  72.628  1.00  0.00    -0.371 A  
HETATM   31  C   UNL     1     -10.118   7.386  73.793  1.00  0.00    -0.329 A  
HETATM   32  C   UNL     1      -9.002   6.968  74.513  1.00  0.00    -0.223 A  
HETATM   33  C   UNL     1      -7.725   7.299  74.071  1.00  0.00    -0.134 A  
HETATM   34  C   UNL     1      -7.565   8.055  72.911  1.00  0.00    -0.168 A  
ENDBRANCH  25  29
ENDBRANCH  24  25
ENDBRANCH   8  21
TORSDOF 7
ENDMDL
MODEL       78
REMARK 921   NORMALIZED FREE ENERGY PREDICTED BY IDOCK:   -5.52 KCAL/MOL
REMARK 922        TOTAL FREE ENERGY PREDICTED BY IDOCK:   -9.27 KCAL/MOL
REMARK 923 INTER-LIGAND FREE ENERGY PREDICTED BY IDOCK:   -8.15 KCAL/MOL
REMARK 924 INTRA-LIGAND FREE ENERGY PREDICTED BY IDOCK:   -1.12 KCAL/MOL
REMARK 927      BINDING AFFINITY PREDICTED BY RF-SCORE:    0.00 PKD
ROOT
HETATM    1  C   UNL     1     -10.183   8.744  68.900  1.00  0.00    -0.207 C  
HETATM    2  S   UNL     1     -10.475   9.541  67.297  1.00  0.00    -0.247 SA 
HETATM    3  C   UNL     1      -9.495   8.327  66.391  1.00  0.00    -0.221 C  
HETATM    4  C   UNL     1      -8.122   8.041  66.991  1.00  0.00    -0.116 C  
HETATM    5  OXT UNL     1      -5.400   8.051  67.994  1.00  0.00    -0.031 OA 
HETATM    6  CA  UNL     1      -7.793   8.295  68.291  1.00  0.00    -0.118 C  
HETATM    7  C   UNL     1      -6.351   8.157  68.755  1.00  0.00    -0.045 C  
HETATM    8  CA  UNL     1     -10.335   9.691  70.141  1.00  0.00    -0.266 C  
HETATM    9  N   UNL     1      -8.755   8.740  69.161  1.00  0.00    -0.134 N  
HETATM   10  O   UNL     1      -6.149   8.080  70.084  1.00  0.00    -0.032 OA 
HETATM   11  C   UNL     1      -8.822   9.335  70.372  1.00  0.00    -0.234 C  
HETATM   12  O   UNL     1      -7.944   9.526  71.185  1.00  0.00    -0.315 OA 
ENDROOT
BRANCH   4  13
HETATM   13  C   UNL     1      -7.165   7.565  65.897  1.00  0.00    -0.066 C  
BRANCH  13  14
HETATM   14  S   UNL     1      -7.367   5.854  65.348  1.00  0.00    -0.078 SA 
BRANCH  14  15
HETATM   15  C   UNL     1      -7.883   5.005  66.746  1.00  0.00    -0.100 A  
HETATM   16  N   UNL     1      -7.190   4.703  67.817  1.00  0.00    -0.065 NA 
HETATM   17  N   UNL     1      -8.041   3.987  68.625  1.00  0.00    -0.074 NA 
HETATM   18  C   UNL     1     -10.276   4.592  66.007  1.00  0.00    -0.277 C  
HETATM   19  N   UNL     1      -9.145   4.504  66.889  1.00  0.00    -0.119 NA 
HETATM   20  N   UNL     1      -9.237   3.860  68.067  1.00  0.00    -0.150 NA 
ENDBRANCH  14  15
ENDBRANCH  13  14
ENDBRANCH   4  13
BRANCH   8  21
HETATM   21  N   UNL     1     -10.612  11.112  69.800  1.00  0.00    -0.455 N  
HETATM   22  O   UNL     1     -12.876  10.938  69.574  1.00  0.00    -0.211 OA 
HETATM   23  H   UNL     1      -9.814  11.740  69.706  1.00  0.00     0.000 HD 
HETATM   24  C   UNL     1     -11.868  11.640  69.603  1.00  0.00    -0.352 C  
BRANCH  24  25
HETATM   25  C   UNL     1     -11.891  13.174  69.403  1.00  0.00    -0.326 C  
BRANCH  25  26
HETATM   26  O   UNL     1     -10.593  13.565  68.914  1.00  0.00    -0.231 OA 
HETATM   27  O   UNL     1     -11.566  14.287  66.953  1.00  0.00    -0.351 OA 
HETATM   28  C   UNL     1     -10.601  14.125  67.678  1.00  0.00    -0.253 C  
ENDBRANCH  25  26
BRANCH  25  29
HETATM   29  C   UNL     1     -12.214  13.899  70.704  1.00  0.00    -0.443 A  
HETATM   30  C   UNL     1     -13.159  13.353  71.582  1.00  0.00    -0.463 A  
HETATM   31  C   UNL     1     -13.485  14.007  72.771  1.00  0.00    -0.576 A  
HETATM   32  C   UNL     1     -12.860  15.206  73.105  1.00  0.00    -0.606 A  
HETATM   33  C   UNL     1     -11.907  15.754  72.253  1.00  0.00    -0.598 A  
HETATM   34  C   UNL     1     -11.585  15.106  71.061  1.00  0.00    -0.390 A  
ENDBRANCH  25  29
ENDBRANCH  24  25
ENDBRANCH   8  21
TORSDOF 7
ENDMDL
MODEL       79
REMARK 921   NORMALIZED FREE ENERGY PREDICTED BY IDOCK:   -5.51 KCAL/MOL
REMARK 922        TOTAL FREE ENERGY PREDICTED BY IDOCK:   -9.26 KCAL/MOL
REMARK 923 INTER-LIGAND FREE ENERGY PREDICTED BY IDOCK:   -8.23 KCAL/MOL
REMARK 924 INTRA-LIGAND FREE ENERGY PREDICTED BY IDOCK:   -1.03 KCAL/MOL
REMARK 927      BINDING AFFINITY PREDICTED BY RF-SCORE:    0.00 PKD
ROOT
HETATM    1  C   UNL     1     -10.579   9.927  67.249  1.00  0.00    -0.252 C  
HETATM    2  S   UNL     1     -11.396  10.913  68.534  1.00  0.00    -0.314 SA 
HETATM    3  C   UNL     1     -10.841  12.482  67.838  1.00  0.00    -0.222 C  
HETATM    4  C   UNL     1      -9.355  12.538  67.501  1.00  0.00    -0.187 C  
HETATM    5  OXT UNL     1      -6.455  12.598  67.435  1.00  0.00    -0.149 OA 
HETATM    6  CA  UNL     1      -8.577  11.434  67.302  1.00  0.00    -0.146 C  
HETATM    7  C   UNL     1      -7.070  11.577  67.159  1.00  0.00    -0.140 C  
HETATM    8  CA  UNL     1     -10.250   8.450  67.665  1.00  0.00    -0.236 C  
HETATM    9  N   UNL     1      -9.152  10.190  67.301  1.00  0.00    -0.138 N  
HETATM   10  O   UNL     1      -6.411  10.528  66.632  1.00  0.00    -0.071 OA 
HETATM   11  C   UNL     1      -8.766   8.899  67.411  1.00  0.00    -0.125 C  
HETATM   12  O   UNL     1      -7.650   8.427  67.388  1.00  0.00    -0.095 OA 
ENDROOT
BRANCH   4  13
HETATM   13  C   UNL     1      -8.865  13.986  67.554  1.00  0.00    -0.199 C  
BRANCH  13  14
HETATM   14  S   UNL     1     -10.038  15.205  68.193  1.00  0.00    -0.224 SA 
BRANCH  14  15
HETATM   15  C   UNL     1      -9.806  16.591  67.209  1.00  0.00    -0.254 A  
HETATM   16  N   UNL     1      -9.517  16.644  65.931  1.00  0.00    -0.501 NA 
HETATM   17  N   UNL     1      -9.395  17.979  65.628  1.00  0.00    -0.181 NA 
HETATM   18  C   UNL     1     -10.193  18.335  69.013  1.00  0.00    -0.192 C  
HETATM   19  N   UNL     1      -9.881  17.866  67.691  1.00  0.00    -0.294 NA 
HETATM   20  N   UNL     1      -9.616  18.733  66.696  1.00  0.00    -0.323 NA 
ENDBRANCH  14  15
ENDBRANCH  13  14
ENDBRANCH   4  13
BRANCH   8  21
HETATM   21  N   UNL     1     -10.584   8.120  69.076  1.00  0.00    -0.341 N  
HETATM   22  O   UNL     1      -9.783   5.983  69.088  1.00  0.00    -0.132 OA 
HETATM   23  H   UNL     1     -11.081   8.823  69.622  1.00  0.00     0.000 HD 
HETATM   24  C   UNL     1     -10.270   6.932  69.698  1.00  0.00    -0.193 C  
BRANCH  24  25
HETATM   25  C   UNL     1     -10.599   6.896  71.209  1.00  0.00    -0.220 C  
BRANCH  25  26
HETATM   26  O   UNL     1     -10.613   5.514  71.615  1.00  0.00    -0.225 OA 
HETATM   27  O   UNL     1      -8.616   5.833  72.722  1.00  0.00    -0.120 OA 
HETATM   28  C   UNL     1      -9.560   5.140  72.385  1.00  0.00    -0.148 C  
ENDBRANCH  25  26
BRANCH  25  29
HETATM   29  C   UNL     1     -11.942   7.554  71.501  1.00  0.00    -0.336 A  
HETATM   30  C   UNL     1     -11.975   8.871  71.977  1.00  0.00    -0.439 A  
HETATM   31  C   UNL     1     -13.191   9.490  72.270  1.00  0.00    -0.507 A  
HETATM   32  C   UNL     1     -14.389   8.807  72.076  1.00  0.00    -0.466 A  
HETATM   33  C   UNL     1     -14.376   7.504  71.588  1.00  0.00    -0.621 A  
HETATM   34  C   UNL     1     -13.161   6.881  71.302  1.00  0.00    -0.237 A  
ENDBRANCH  25  29
ENDBRANCH  24  25
ENDBRANCH   8  21
TORSDOF 7
ENDMDL
MODEL       80
REMARK 921   NORMALIZED FREE ENERGY PREDICTED BY IDOCK:   -5.51 KCAL/MOL
REMARK 922        TOTAL FREE ENERGY PREDICTED BY IDOCK:   -9.25 KCAL/MOL
REMARK 923 INTER-LIGAND FREE ENERGY PREDICTED BY IDOCK:   -7.88 KCAL/MOL
REMARK 924 INTRA-LIGAND FREE ENERGY PREDICTED BY IDOCK:   -1.37 KCAL/MOL
REMARK 927      BINDING AFFINITY PREDICTED BY RF-SCORE:    0.00 PKD
ROOT
HETATM    1  C   UNL     1      -8.964   9.816  69.910  1.00  0.00    -0.229 C  
HETATM    2  S   UNL     1     -10.684   9.890  70.483  1.00  0.00    -0.295 SA 
HETATM    3  C   UNL     1     -10.766   8.119  70.816  1.00  0.00    -0.222 C  
HETATM    4  C   UNL     1     -10.256   7.235  69.683  1.00  0.00    -0.214 C  
HETATM    5  OXT UNL     1      -9.741   5.763  67.236  1.00  0.00    -0.118 OA 
HETATM    6  CA  UNL     1      -9.413   7.667  68.700  1.00  0.00    -0.151 C  
HETATM    7  C   UNL     1      -9.108   6.774  67.508  1.00  0.00    -0.117 C  
HETATM    8  CA  UNL     1      -8.540  10.985  68.954  1.00  0.00    -0.119 C  
HETATM    9  N   UNL     1      -8.898   8.937  68.757  1.00  0.00    -0.137 N  
HETATM   10  O   UNL     1      -8.031   7.101  66.768  1.00  0.00    -0.104 OA 
HETATM   11  C   UNL     1      -8.294   9.818  67.930  1.00  0.00    -0.114 C  
HETATM   12  O   UNL     1      -7.855   9.648  66.814  1.00  0.00    -0.101 OA 
ENDROOT
BRANCH   4  13
HETATM   13  C   UNL     1     -10.929   5.863  69.752  1.00  0.00    -0.382 C  
BRANCH  13  14
HETATM   14  S   UNL     1      -9.987   4.549  70.564  1.00  0.00    -0.167 SA 
BRANCH  14  15
HETATM   15  C   UNL     1     -10.170   4.855  72.242  1.00  0.00    -0.196 A  
HETATM   16  N   UNL     1     -11.150   4.489  73.033  1.00  0.00    -0.231 NA 
HETATM   17  N   UNL     1     -10.849   5.012  74.269  1.00  0.00    -0.316 NA 
HETATM   18  C   UNL     1      -8.024   6.170  72.567  1.00  0.00    -0.104 C  
HETATM   19  N   UNL     1      -9.269   5.576  72.970  1.00  0.00    -0.137 NA 
HETATM   20  N   UNL     1      -9.702   5.677  74.240  1.00  0.00    -0.168 NA 
ENDBRANCH  14  15
ENDBRANCH  13  14
ENDBRANCH   4  13
BRANCH   8  21
HETATM   21  N   UNL     1      -9.640  11.921  68.601  1.00  0.00    -0.357 N  
HETATM   22  O   UNL     1      -8.425  13.344  67.295  1.00  0.00    -0.193 OA 
HETATM   23  H   UNL     1     -10.555  11.756  69.020  1.00  0.00     0.000 HD 
HETATM   24  C   UNL     1      -9.512  12.996  67.749  1.00  0.00    -0.209 C  
BRANCH  24  25
HETATM   25  C   UNL     1     -10.840  13.724  67.436  1.00  0.00    -0.277 C  
BRANCH  25  26
HETATM   26  O   UNL     1     -11.803  13.308  68.424  1.00  0.00    -0.336 OA 
HETATM   27  O   UNL     1     -11.742  15.417  69.352  1.00  0.00    -0.310 OA 
HETATM   28  C   UNL     1     -12.168  14.277  69.301  1.00  0.00    -0.252 C  
ENDBRANCH  25  26
BRANCH  25  29
HETATM   29  C   UNL     1     -11.337  13.397  66.033  1.00  0.00    -0.329 A  
HETATM   30  C   UNL     1     -11.174  12.100  65.529  1.00  0.00    -0.381 A  
HETATM   31  C   UNL     1     -11.604  11.780  64.240  1.00  0.00    -0.361 A  
HETATM   32  C   UNL     1     -12.215  12.746  63.446  1.00  0.00    -0.594 A  
HETATM   33  C   UNL     1     -12.400  14.035  63.937  1.00  0.00    -0.280 A  
HETATM   34  C   UNL     1     -11.965  14.359  65.221  1.00  0.00    -0.382 A  
ENDBRANCH  25  29
ENDBRANCH  24  25
ENDBRANCH   8  21
TORSDOF 7
ENDMDL
MODEL       81
REMARK 921   NORMALIZED FREE ENERGY PREDICTED BY IDOCK:   -5.49 KCAL/MOL
REMARK 922        TOTAL FREE ENERGY PREDICTED BY IDOCK:   -9.23 KCAL/MOL
REMARK 923 INTER-LIGAND FREE ENERGY PREDICTED BY IDOCK:   -8.08 KCAL/MOL
REMARK 924 INTRA-LIGAND FREE ENERGY PREDICTED BY IDOCK:   -1.15 KCAL/MOL
REMARK 927      BINDING AFFINITY PREDICTED BY RF-SCORE:    0.00 PKD
ROOT
HETATM    1  C   UNL     1     -10.062  11.996  67.170  1.00  0.00    -0.201 C  
HETATM    2  S   UNL     1     -11.783  12.417  67.559  1.00  0.00    -0.308 SA 
HETATM    3  C   UNL     1     -11.566  14.159  67.144  1.00  0.00    -0.377 C  
HETATM    4  C   UNL     1     -10.340  14.815  67.770  1.00  0.00    -0.244 C  
HETATM    5  OXT UNL     1      -8.284  15.965  69.464  1.00  0.00    -0.219 OA 
HETATM    6  CA  UNL     1      -9.256  14.121  68.227  1.00  0.00    -0.198 C  
HETATM    7  C   UNL     1      -8.164  14.837  69.007  1.00  0.00    -0.141 C  
HETATM    8  CA  UNL     1      -9.524  10.708  67.887  1.00  0.00    -0.159 C  
HETATM    9  N   UNL     1      -9.190  12.764  68.040  1.00  0.00    -0.203 N  
HETATM   10  O   UNL     1      -6.987  14.194  69.127  1.00  0.00    -0.109 OA 
HETATM   11  C   UNL     1      -8.497  11.711  68.526  1.00  0.00    -0.135 C  
HETATM   12  O   UNL     1      -7.521  11.699  69.243  1.00  0.00    -0.050 OA 
ENDROOT
BRANCH   4  13
HETATM   13  C   UNL     1     -10.573  16.318  67.921  1.00  0.00    -0.318 C  
BRANCH  13  14
HETATM   14  S   UNL     1      -9.988  17.359  66.562  1.00  0.00    -0.322 SA 
BRANCH  14  15
HETATM   15  C   UNL     1      -8.835  18.406  67.280  1.00  0.00    -0.259 A  
HETATM   16  N   UNL     1      -8.971  19.157  68.346  1.00  0.00    -0.337 NA 
HETATM   17  N   UNL     1      -7.782  19.834  68.483  1.00  0.00    -0.319 NA 
HETATM   18  C   UNL     1      -6.949  17.988  65.634  1.00  0.00    -0.141 C  
HETATM   19  N   UNL     1      -7.583  18.596  66.771  1.00  0.00    -0.225 NA 
HETATM   20  N   UNL     1      -6.928  19.498  67.525  1.00  0.00    -0.212 NA 
ENDBRANCH  14  15
ENDBRANCH  13  14
ENDBRANCH   4  13
BRANCH   8  21
HETATM   21  N   UNL     1     -10.485  10.086  68.837  1.00  0.00    -0.200 N  
HETATM   22  O   UNL     1      -9.000   8.756  69.948  1.00  0.00    -0.143 OA 
HETATM   23  H   UNL     1     -11.470  10.332  68.743  1.00  0.00     0.000 HD 
HETATM   24  C   UNL     1     -10.139   9.203  69.836  1.00  0.00    -0.202 C  
BRANCH  24  25
HETATM   25  C   UNL     1     -11.303   8.816  70.777  1.00  0.00    -0.272 C  
BRANCH  25  26
HETATM   26  O   UNL     1     -11.565   9.949  71.628  1.00  0.00    -0.360 OA 
HETATM   27  O   UNL     1     -13.484  10.389  70.429  1.00  0.00    -0.081 OA 
HETATM   28  C   UNL     1     -12.706  10.623  71.337  1.00  0.00    -0.440 C  
ENDBRANCH  25  26
BRANCH  25  29
HETATM   29  C   UNL     1     -10.960   7.588  71.611  1.00  0.00    -0.263 A  
HETATM   30  C   UNL     1     -10.671   7.739  72.974  1.00  0.00    -0.446 A  
HETATM   31  C   UNL     1     -10.336   6.632  73.755  1.00  0.00    -0.373 A  
HETATM   32  C   UNL     1     -10.302   5.360  73.190  1.00  0.00    -0.231 A  
HETATM   33  C   UNL     1     -10.602   5.190  71.842  1.00  0.00    -0.256 A  
HETATM   34  C   UNL     1     -10.930   6.295  71.058  1.00  0.00    -0.340 A  
ENDBRANCH  25  29
ENDBRANCH  24  25
ENDBRANCH   8  21
TORSDOF 7
ENDMDL
MODEL       82
REMARK 921   NORMALIZED FREE ENERGY PREDICTED BY IDOCK:   -5.47 KCAL/MOL
REMARK 922        TOTAL FREE ENERGY PREDICTED BY IDOCK:   -9.20 KCAL/MOL
REMARK 923 INTER-LIGAND FREE ENERGY PREDICTED BY IDOCK:   -8.16 KCAL/MOL
REMARK 924 INTRA-LIGAND FREE ENERGY PREDICTED BY IDOCK:   -1.04 KCAL/MOL
REMARK 927      BINDING AFFINITY PREDICTED BY RF-SCORE:    0.00 PKD
ROOT
HETATM    1  C   UNL     1     -10.654  10.403  67.000  1.00  0.00    -0.245 C  
HETATM    2  S   UNL     1     -11.660  11.005  68.384  1.00  0.00    -0.261 SA 
HETATM    3  C   UNL     1     -11.234  12.732  68.087  1.00  0.00    -0.272 C  
HETATM    4  C   UNL     1      -9.744  12.998  67.905  1.00  0.00    -0.218 C  
HETATM    5  OXT UNL     1      -6.870  13.338  68.115  1.00  0.00    -0.087 OA 
HETATM    6  CA  UNL     1      -8.838  12.041  67.549  1.00  0.00    -0.172 C  
HETATM    7  C   UNL     1      -7.349  12.350  67.576  1.00  0.00    -0.146 C  
HETATM    8  CA  UNL     1     -10.194   8.909  67.123  1.00  0.00    -0.269 C  
HETATM    9  N   UNL     1      -9.272  10.779  67.234  1.00  0.00    -0.147 N  
HETATM   10  O   UNL     1      -6.545  11.507  66.901  1.00  0.00    -0.124 OA 
HETATM   11  C   UNL     1      -8.755   9.537  67.104  1.00  0.00    -0.132 C  
HETATM   12  O   UNL     1      -7.595   9.186  67.083  1.00  0.00    -0.090 OA 
ENDROOT
BRANCH   4  13
HETATM   13  C   UNL     1      -9.420  14.438  68.305  1.00  0.00    -0.207 C  
BRANCH  13  14
HETATM   14  S   UNL     1     -10.836  15.531  68.575  1.00  0.00    -0.287 SA 
BRANCH  14  15
HETATM   15  C   UNL     1     -10.662  16.768  67.400  1.00  0.00    -0.244 A  
HETATM   16  N   UNL     1     -10.496  18.055  67.591  1.00  0.00    -0.396 NA 
HETATM   17  N   UNL     1     -10.452  18.618  66.337  1.00  0.00    -0.422 NA 
HETATM   18  C   UNL     1     -10.843  15.289  65.345  1.00  0.00    -0.387 C  
HETATM   19  N   UNL     1     -10.704  16.530  66.057  1.00  0.00    -0.235 NA 
HETATM   20  N   UNL     1     -10.578  17.694  65.394  1.00  0.00    -0.625 NA 
ENDBRANCH  14  15
ENDBRANCH  13  14
ENDBRANCH   4  13
BRANCH   8  21
HETATM   21  N   UNL     1     -10.586   8.248  68.397  1.00  0.00    -0.381 N  
HETATM   22  O   UNL     1     -11.219   6.240  67.519  1.00  0.00    -0.328 OA 
HETATM   23  H   UNL     1     -10.535   8.801  69.252  1.00  0.00     0.000 HD 
HETATM   24  C   UNL     1     -11.011   6.943  68.504  1.00  0.00    -0.136 C  
BRANCH  24  25
HETATM   25  C   UNL     1     -11.217   6.456  69.958  1.00  0.00    -0.411 C  
BRANCH  25  26
HETATM   26  O   UNL     1     -11.357   7.626  70.788  1.00  0.00    -0.276 OA 
HETATM   27  O   UNL     1     -13.505   6.976  71.316  1.00  0.00    -0.333 OA 
HETATM   28  C   UNL     1     -12.555   7.733  71.416  1.00  0.00    -0.317 C  
ENDBRANCH  25  26
BRANCH  25  29
HETATM   29  C   UNL     1     -10.047   5.602  70.430  1.00  0.00    -0.284 A  
HETATM   30  C   UNL     1      -9.152   6.119  71.375  1.00  0.00    -0.146 A  
HETATM   31  C   UNL     1      -8.062   5.364  71.810  1.00  0.00    -0.118 A  
HETATM   32  C   UNL     1      -7.862   4.076  71.319  1.00  0.00    -0.070 A  
HETATM   33  C   UNL     1      -8.751   3.540  70.392  1.00  0.00    -0.127 A  
HETATM   34  C   UNL     1      -9.836   4.296  69.951  1.00  0.00    -0.267 A  
ENDBRANCH  25  29
ENDBRANCH  24  25
ENDBRANCH   8  21
TORSDOF 7
ENDMDL
MODEL       83
REMARK 921   NORMALIZED FREE ENERGY PREDICTED BY IDOCK:   -5.45 KCAL/MOL
REMARK 922        TOTAL FREE ENERGY PREDICTED BY IDOCK:   -9.17 KCAL/MOL
REMARK 923 INTER-LIGAND FREE ENERGY PREDICTED BY IDOCK:   -8.49 KCAL/MOL
REMARK 924 INTRA-LIGAND FREE ENERGY PREDICTED BY IDOCK:   -0.68 KCAL/MOL
REMARK 927      BINDING AFFINITY PREDICTED BY RF-SCORE:    0.00 PKD
ROOT
HETATM    1  C   UNL     1      -9.224   8.781  71.683  1.00  0.00    -0.263 C  
HETATM    2  S   UNL     1      -8.897   8.804  69.899  1.00  0.00    -0.150 SA 
HETATM    3  C   UNL     1      -9.838  10.320  69.634  1.00  0.00    -0.198 C  
HETATM    4  C   UNL     1     -11.223  10.329  70.271  1.00  0.00    -0.395 C  
HETATM    5  OXT UNL     1     -13.972   9.922  71.104  1.00  0.00    -0.105 OA 
HETATM    6  CA  UNL     1     -11.591   9.514  71.303  1.00  0.00    -0.374 C  
HETATM    7  C   UNL     1     -13.044   9.456  71.750  1.00  0.00    -0.409 C  
HETATM    8  CA  UNL     1      -9.118   7.366  72.351  1.00  0.00    -0.132 C  
HETATM    9  N   UNL     1     -10.659   8.697  71.889  1.00  0.00    -0.314 N  
HETATM   10  O   UNL     1     -13.282   8.917  72.961  1.00  0.00    -0.312 OA 
HETATM   11  C   UNL     1     -10.632   7.610  72.691  1.00  0.00    -0.299 C  
HETATM   12  O   UNL     1     -11.535   7.087  73.307  1.00  0.00    -0.067 OA 
ENDROOT
BRANCH   4  13
HETATM   13  C   UNL     1     -12.144  11.277  69.501  1.00  0.00    -0.317 C  
BRANCH  13  14
HETATM   14  S   UNL     1     -11.705  13.031  69.546  1.00  0.00    -0.295 SA 
BRANCH  14  15
HETATM   15  C   UNL     1     -12.493  13.642  70.941  1.00  0.00    -0.371 A  
HETATM   16  N   UNL     1     -13.312  13.018  71.752  1.00  0.00    -0.411 NA 
HETATM   17  N   UNL     1     -13.701  13.951  72.684  1.00  0.00    -0.709 NA 
HETATM   18  C   UNL     1     -11.560  16.001  70.832  1.00  0.00    -0.418 C  
HETATM   19  N   UNL     1     -12.360  14.933  71.366  1.00  0.00    -0.313 NA 
HETATM   20  N   UNL     1     -13.125  15.123  72.456  1.00  0.00    -0.357 NA 
ENDBRANCH  14  15
ENDBRANCH  13  14
ENDBRANCH   4  13
BRANCH   8  21
HETATM   21  N   UNL     1      -8.848   6.255  71.400  1.00  0.00    -0.138 N  
HETATM   22  O   UNL     1     -10.046   4.635  72.472  1.00  0.00    -0.161 OA 
HETATM   23  H   UNL     1      -8.222   6.444  70.617  1.00  0.00     0.000 HD 
HETATM   24  C   UNL     1      -9.383   4.990  71.501  1.00  0.00    -0.148 C  
BRANCH  24  25
HETATM   25  C   UNL     1      -9.060   4.064  70.304  1.00  0.00    -0.112 C  
BRANCH  25  26
HETATM   26  O   UNL     1      -7.626   3.949  70.222  1.00  0.00    -0.044 OA 
HETATM   27  O   UNL     1      -7.718   2.044  71.517  1.00  0.00    -0.040 OA 
HETATM   28  C   UNL     1      -7.107   2.873  70.866  1.00  0.00    -0.033 C  
ENDBRANCH  25  26
BRANCH  25  29
HETATM   29  C   UNL     1      -9.629   4.617  69.004  1.00  0.00    -0.242 A  
HETATM   30  C   UNL     1      -9.217   4.067  67.782  1.00  0.00    -0.197 A  
HETATM   31  C   UNL     1      -9.710   4.567  66.576  1.00  0.00    -0.220 A  
HETATM   32  C   UNL     1     -10.630   5.613  66.575  1.00  0.00    -0.320 A  
HETATM   33  C   UNL     1     -11.061   6.160  67.779  1.00  0.00    -0.306 A  
HETATM   34  C   UNL     1     -10.566   5.666  68.985  1.00  0.00    -0.316 A  
ENDBRANCH  25  29
ENDBRANCH  24  25
ENDBRANCH   8  21
TORSDOF 7
ENDMDL
MODEL       84
REMARK 921   NORMALIZED FREE ENERGY PREDICTED BY IDOCK:   -5.43 KCAL/MOL
REMARK 922        TOTAL FREE ENERGY PREDICTED BY IDOCK:   -9.14 KCAL/MOL
REMARK 923 INTER-LIGAND FREE ENERGY PREDICTED BY IDOCK:   -7.58 KCAL/MOL
REMARK 924 INTRA-LIGAND FREE ENERGY PREDICTED BY IDOCK:   -1.56 KCAL/MOL
REMARK 927      BINDING AFFINITY PREDICTED BY RF-SCORE:    0.00 PKD
ROOT
HETATM    1  C   UNL     1      -7.657  10.926  67.696  1.00  0.00    -0.096 C  
HETATM    2  S   UNL     1      -7.294  11.197  69.453  1.00  0.00    -0.004 SA 
HETATM    3  C   UNL     1      -7.072   9.439  69.792  1.00  0.00    -0.068 C  
HETATM    4  C   UNL     1      -8.182   8.542  69.254  1.00  0.00    -0.115 C  
HETATM    5  OXT UNL     1     -10.627   7.116  68.616  1.00  0.00    -0.201 OA 
HETATM    6  CA  UNL     1      -9.030   8.902  68.247  1.00  0.00    -0.137 C  
HETATM    7  C   UNL     1     -10.224   8.025  67.903  1.00  0.00    -0.212 C  
HETATM    8  CA  UNL     1      -8.489  12.068  67.014  1.00  0.00    -0.183 C  
HETATM    9  N   UNL     1      -8.841  10.092  67.592  1.00  0.00    -0.122 N  
HETATM   10  O   UNL     1     -10.809   8.240  66.709  1.00  0.00    -0.188 OA 
HETATM   11  C   UNL     1      -9.538  10.921  66.784  1.00  0.00    -0.183 C  
HETATM   12  O   UNL     1     -10.600  10.741  66.231  1.00  0.00    -0.246 OA 
ENDROOT
BRANCH   4  13
HETATM   13  C   UNL     1      -8.272   7.266  70.093  1.00  0.00    -0.134 C  
BRANCH  13  14
HETATM   14  S   UNL     1      -8.791   7.475  71.813  1.00  0.00    -0.116 SA 
BRANCH  14  15
HETATM   15  C   UNL     1     -10.375   8.126  71.714  1.00  0.00    -0.230 A  
HETATM   16  N   UNL     1     -10.733   9.356  71.433  1.00  0.00    -0.352 NA 
HETATM   17  N   UNL     1     -12.105   9.376  71.520  1.00  0.00    -0.354 NA 
HETATM   18  C   UNL     1     -11.636   5.996  72.276  1.00  0.00    -0.307 C  
HETATM   19  N   UNL     1     -11.499   7.390  71.955  1.00  0.00    -0.258 NA 
HETATM   20  N   UNL     1     -12.582   8.180  71.839  1.00  0.00    -0.322 NA 
ENDBRANCH  14  15
ENDBRANCH  13  14
ENDBRANCH   4  13
BRANCH   8  21
HETATM   21  N   UNL     1      -8.920  13.151  67.938  1.00  0.00    -0.190 N  
HETATM   22  O   UNL     1     -10.055  14.417  66.417  1.00  0.00    -0.268 OA 
HETATM   23  H   UNL     1      -8.598  13.104  68.905  1.00  0.00     0.000 HD 
HETATM   24  C   UNL     1      -9.721  14.212  67.581  1.00  0.00    -0.228 C  
BRANCH  24  25
HETATM   25  C   UNL     1     -10.142  15.119  68.762  1.00  0.00    -0.226 C  
BRANCH  25  26
HETATM   26  O   UNL     1     -11.571  15.288  68.688  1.00  0.00    -0.324 OA 
HETATM   27  O   UNL     1     -11.786  14.249  70.734  1.00  0.00    -0.288 OA 
HETATM   28  C   UNL     1     -12.252  14.818  69.762  1.00  0.00    -0.294 C  
ENDBRANCH  25  26
BRANCH  25  29
HETATM   29  C   UNL     1      -9.438  16.469  68.704  1.00  0.00    -0.243 A  
HETATM   30  C   UNL     1      -8.040  16.521  68.765  1.00  0.00    -0.244 A  
HETATM   31  C   UNL     1      -7.372  17.746  68.733  1.00  0.00    -0.271 A  
HETATM   32  C   UNL     1      -8.092  18.933  68.622  1.00  0.00    -0.382 A  
HETATM   33  C   UNL     1      -9.481  18.899  68.544  1.00  0.00    -0.416 A  
HETATM   34  C   UNL     1     -10.150  17.677  68.584  1.00  0.00    -0.377 A  
ENDBRANCH  25  29
ENDBRANCH  24  25
ENDBRANCH   8  21
TORSDOF 7
ENDMDL
MODEL       85
REMARK 921   NORMALIZED FREE ENERGY PREDICTED BY IDOCK:   -5.42 KCAL/MOL
REMARK 922        TOTAL FREE ENERGY PREDICTED BY IDOCK:   -9.14 KCAL/MOL
REMARK 923 INTER-LIGAND FREE ENERGY PREDICTED BY IDOCK:   -8.27 KCAL/MOL
REMARK 924 INTRA-LIGAND FREE ENERGY PREDICTED BY IDOCK:   -0.87 KCAL/MOL
REMARK 927      BINDING AFFINITY PREDICTED BY RF-SCORE:    0.00 PKD
ROOT
HETATM    1  C   UNL     1     -10.195   8.646  69.182  1.00  0.00    -0.208 C  
HETATM    2  S   UNL     1     -10.733   9.236  67.553  1.00  0.00    -0.115 SA 
HETATM    3  C   UNL     1      -9.809   7.966  66.665  1.00  0.00    -0.241 C  
HETATM    4  C   UNL     1      -8.357   7.810  67.106  1.00  0.00    -0.118 C  
HETATM    5  OXT UNL     1      -5.534   8.049  67.732  1.00  0.00    -0.032 OA 
HETATM    6  CA  UNL     1      -7.880   8.227  68.316  1.00  0.00    -0.118 C  
HETATM    7  C   UNL     1      -6.386   8.204  68.596  1.00  0.00    -0.053 C  
HETATM    8  CA  UNL     1     -10.241   9.725  70.319  1.00  0.00    -0.289 C  
HETATM    9  N   UNL     1      -8.747   8.731  69.250  1.00  0.00    -0.134 N  
HETATM   10  O   UNL     1      -6.012   8.293  69.887  1.00  0.00    -0.025 OA 
HETATM   11  C   UNL     1      -8.693   9.462  70.386  1.00  0.00    -0.240 C  
HETATM   12  O   UNL     1      -7.731   9.783  71.048  1.00  0.00    -0.292 OA 
ENDROOT
BRANCH   4  13
HETATM   13  C   UNL     1      -7.522   7.248  65.955  1.00  0.00    -0.080 C  
BRANCH  13  14
HETATM   14  S   UNL     1      -6.812   8.461  64.816  1.00  0.00    -0.072 SA 
BRANCH  14  15
HETATM   15  C   UNL     1      -8.066   9.602  64.557  1.00  0.00    -0.143 A  
HETATM   16  N   UNL     1      -9.010   9.581  63.646  1.00  0.00    -0.215 NA 
HETATM   17  N   UNL     1      -9.735  10.734  63.831  1.00  0.00    -0.285 NA 
HETATM   18  C   UNL     1      -7.444  11.198  66.430  1.00  0.00    -0.103 C  
HETATM   19  N   UNL     1      -8.209  10.735  65.305  1.00  0.00    -0.105 NA 
HETATM   20  N   UNL     1      -9.253  11.445  64.841  1.00  0.00    -0.123 NA 
ENDBRANCH  14  15
ENDBRANCH  13  14
ENDBRANCH   4  13
BRANCH   8  21
HETATM   21  N   UNL     1     -10.638  11.084  69.863  1.00  0.00    -0.443 N  
HETATM   22  O   UNL     1     -12.857  10.944  70.378  1.00  0.00    -0.282 OA 
HETATM   23  H   UNL     1      -9.921  11.666  69.429  1.00  0.00     0.000 HD 
HETATM   24  C   UNL     1     -11.904  11.612  69.983  1.00  0.00    -0.355 C  
BRANCH  24  25
HETATM   25  C   UNL     1     -12.019  13.096  69.563  1.00  0.00    -0.294 C  
BRANCH  25  26
HETATM   26  O   UNL     1     -10.821  13.432  68.836  1.00  0.00    -0.246 OA 
HETATM   27  O   UNL     1     -12.077  13.713  66.923  1.00  0.00    -0.397 OA 
HETATM   28  C   UNL     1     -11.019  13.735  67.528  1.00  0.00    -0.272 C  
ENDBRANCH  25  26
BRANCH  25  29
HETATM   29  C   UNL     1     -12.183  14.006  70.774  1.00  0.00    -0.438 A  
HETATM   30  C   UNL     1     -11.572  15.266  70.778  1.00  0.00    -0.371 A  
HETATM   31  C   UNL     1     -11.692  16.111  71.882  1.00  0.00    -0.575 A  
HETATM   32  C   UNL     1     -12.437  15.714  72.989  1.00  0.00    -0.566 A  
HETATM   33  C   UNL     1     -13.065  14.473  72.996  1.00  0.00    -0.611 A  
HETATM   34  C   UNL     1     -12.940  13.624  71.897  1.00  0.00    -0.432 A  
ENDBRANCH  25  29
ENDBRANCH  24  25
ENDBRANCH   8  21
TORSDOF 7
ENDMDL
MODEL       86
REMARK 921   NORMALIZED FREE ENERGY PREDICTED BY IDOCK:   -5.42 KCAL/MOL
REMARK 922        TOTAL FREE ENERGY PREDICTED BY IDOCK:   -9.13 KCAL/MOL
REMARK 923 INTER-LIGAND FREE ENERGY PREDICTED BY IDOCK:   -7.93 KCAL/MOL
REMARK 924 INTRA-LIGAND FREE ENERGY PREDICTED BY IDOCK:   -1.20 KCAL/MOL
REMARK 927      BINDING AFFINITY PREDICTED BY RF-SCORE:    0.00 PKD
ROOT
HETATM    1  C   UNL     1      -9.247  10.293  68.235  1.00  0.00    -0.139 C  
HETATM    2  S   UNL     1      -8.912   8.521  68.043  1.00  0.00    -0.141 SA 
HETATM    3  C   UNL     1      -8.050   8.742  66.474  1.00  0.00    -0.103 C  
HETATM    4  C   UNL     1      -8.787   9.610  65.459  1.00  0.00    -0.204 C  
HETATM    5  OXT UNL     1     -10.580  10.830  63.532  1.00  0.00    -0.223 OA 
HETATM    6  CA  UNL     1      -9.762  10.506  65.791  1.00  0.00    -0.223 C  
HETATM    7  C   UNL     1     -10.574  11.189  64.701  1.00  0.00    -0.318 C  
HETATM    8  CA  UNL     1     -10.473  10.634  69.154  1.00  0.00    -0.222 C  
HETATM    9  N   UNL     1     -10.052  10.736  67.111  1.00  0.00    -0.197 N  
HETATM   10  O   UNL     1     -11.261  12.290  65.061  1.00  0.00    -0.305 OA 
HETATM   11  C   UNL     1     -11.046  11.285  67.844  1.00  0.00    -0.267 C  
HETATM   12  O   UNL     1     -11.999  11.938  67.480  1.00  0.00    -0.586 OA 
ENDROOT
BRANCH   4  13
HETATM   13  C   UNL     1      -8.362   9.226  64.041  1.00  0.00    -0.178 C  
BRANCH  13  14
HETATM   14  S   UNL     1      -7.016   8.026  63.906  1.00  0.00    -0.073 SA 
BRANCH  14  15
HETATM   15  C   UNL     1      -7.786   6.551  63.488  1.00  0.00    -0.110 A  
HETATM   16  N   UNL     1      -8.322   6.210  62.341  1.00  0.00    -0.085 NA 
HETATM   17  N   UNL     1      -8.842   4.951  62.529  1.00  0.00    -0.123 NA 
HETATM   18  C   UNL     1      -7.523   5.400  65.735  1.00  0.00    -0.081 C  
HETATM   19  N   UNL     1      -7.953   5.522  64.369  1.00  0.00    -0.113 NA 
HETATM   20  N   UNL     1      -8.622   4.523  63.765  1.00  0.00    -0.121 NA 
ENDBRANCH  14  15
ENDBRANCH  13  14
ENDBRANCH   4  13
BRANCH   8  21
HETATM   21  N   UNL     1     -11.215   9.446  69.654  1.00  0.00    -0.416 N  
HETATM   22  O   UNL     1     -10.080   9.177  71.615  1.00  0.00    -0.327 OA 
HETATM   23  H   UNL     1     -11.934   9.048  69.049  1.00  0.00     0.000 HD 
HETATM   24  C   UNL     1     -11.002   8.845  70.874  1.00  0.00    -0.266 C  
BRANCH  24  25
HETATM   25  C   UNL     1     -12.005   7.718  71.214  1.00  0.00    -0.302 C  
BRANCH  25  26
HETATM   26  O   UNL     1     -12.679   8.093  72.432  1.00  0.00    -0.285 OA 
HETATM   27  O   UNL     1     -14.095   9.445  71.215  1.00  0.00    -0.210 OA 
HETATM   28  C   UNL     1     -13.717   8.949  72.262  1.00  0.00    -0.471 C  
ENDBRANCH  25  26
BRANCH  25  29
HETATM   29  C   UNL     1     -11.300   6.378  71.383  1.00  0.00    -0.354 A  
HETATM   30  C   UNL     1     -11.332   5.733  72.627  1.00  0.00    -0.349 A  
HETATM   31  C   UNL     1     -10.679   4.514  72.812  1.00  0.00    -0.258 A  
HETATM   32  C   UNL     1     -10.000   3.916  71.754  1.00  0.00    -0.234 A  
HETATM   33  C   UNL     1      -9.971   4.533  70.508  1.00  0.00    -0.278 A  
HETATM   34  C   UNL     1     -10.617   5.755  70.322  1.00  0.00    -0.369 A  
ENDBRANCH  25  29
ENDBRANCH  24  25
ENDBRANCH   8  21
TORSDOF 7
ENDMDL
MODEL       87
REMARK 921   NORMALIZED FREE ENERGY PREDICTED BY IDOCK:   -5.40 KCAL/MOL
REMARK 922        TOTAL FREE ENERGY PREDICTED BY IDOCK:   -9.11 KCAL/MOL
REMARK 923 INTER-LIGAND FREE ENERGY PREDICTED BY IDOCK:   -8.11 KCAL/MOL
REMARK 924 INTRA-LIGAND FREE ENERGY PREDICTED BY IDOCK:   -1.00 KCAL/MOL
REMARK 927      BINDING AFFINITY PREDICTED BY RF-SCORE:    0.00 PKD
ROOT
HETATM    1  C   UNL     1     -11.652  14.945  65.848  1.00  0.00    -0.228 C  
HETATM    2  S   UNL     1     -11.960  13.535  66.946  1.00  0.00    -0.383 SA 
HETATM    3  C   UNL     1     -12.591  14.572  68.281  1.00  0.00     0.515 C  
HETATM    4  C   UNL     1     -11.717  15.774  68.621  1.00  0.00    -0.353 C  
HETATM    5  OXT UNL     1      -9.669  17.660  69.436  1.00  0.00    -0.055 OA 
HETATM    6  CA  UNL     1     -10.797  16.312  67.768  1.00  0.00    -0.315 C  
HETATM    7  C   UNL     1      -9.839  17.387  68.256  1.00  0.00    -0.310 C  
HETATM    8  CA  UNL     1     -10.568  14.691  64.742  1.00  0.00    -0.353 C  
HETATM    9  N   UNL     1     -10.696  15.831  66.488  1.00  0.00    -0.308 N  
HETATM   10  O   UNL     1      -9.207  18.108  67.310  1.00  0.00    -0.249 OA 
HETATM   11  C   UNL     1      -9.815  15.866  65.463  1.00  0.00    -0.230 C  
HETATM   12  O   UNL     1      -8.818  16.542  65.330  1.00  0.00    -0.143 OA 
ENDROOT
BRANCH   4  13
HETATM   13  C   UNL     1     -11.938  16.182  70.078  1.00  0.00    -0.044 C  
BRANCH  13  14
HETATM   14  S   UNL     1     -11.168  15.126  71.330  1.00  0.00    -0.195 SA 
BRANCH  14  15
HETATM   15  C   UNL     1     -12.408  14.045  71.812  1.00  0.00    -0.180 A  
HETATM   16  N   UNL     1     -12.545  12.776  71.508  1.00  0.00    -0.223 NA 
HETATM   17  N   UNL     1     -13.717  12.372  72.103  1.00  0.00    -0.326 NA 
HETATM   18  C   UNL     1     -13.753  15.692  73.198  1.00  0.00    -0.383 C  
HETATM   19  N   UNL     1     -13.462  14.421  72.593  1.00  0.00    -0.490 NA 
HETATM   20  N   UNL     1     -14.284  13.370  72.768  1.00  0.00    -0.529 NA 
ENDBRANCH  14  15
ENDBRANCH  13  14
ENDBRANCH   4  13
BRANCH   8  21
HETATM   21  N   UNL     1      -9.905  13.362  64.824  1.00  0.00    -0.605 N  
HETATM   22  O   UNL     1     -11.106  12.319  63.189  1.00  0.00    -0.372 OA 
HETATM   23  H   UNL     1      -9.193  13.233  65.543  1.00  0.00     0.000 HD 
HETATM   24  C   UNL     1     -10.184  12.295  63.999  1.00  0.00    -0.373 C  
BRANCH  24  25
HETATM   25  C   UNL     1      -9.253  11.076  64.198  1.00  0.00    -0.151 C  
BRANCH  25  26
HETATM   26  O   UNL     1      -9.702  10.040  63.302  1.00  0.00    -0.197 OA 
HETATM   27  O   UNL     1      -7.532   9.735  62.588  1.00  0.00    -0.111 OA 
HETATM   28  C   UNL     1      -8.717   9.452  62.579  1.00  0.00    -0.234 C  
ENDBRANCH  25  26
BRANCH  25  29
HETATM   29  C   UNL     1      -9.278  10.585  65.640  1.00  0.00    -0.221 A  
HETATM   30  C   UNL     1      -9.978   9.414  65.957  1.00  0.00    -0.352 A  
HETATM   31  C   UNL     1     -10.031   8.953  67.274  1.00  0.00    -0.277 A  
HETATM   32  C   UNL     1      -9.374   9.648  68.286  1.00  0.00    -0.138 A  
HETATM   33  C   UNL     1      -8.661  10.804  67.986  1.00  0.00    -0.128 A  
HETATM   34  C   UNL     1      -8.612  11.270  66.673  1.00  0.00    -0.167 A  
ENDBRANCH  25  29
ENDBRANCH  24  25
ENDBRANCH   8  21
TORSDOF 7
ENDMDL
MODEL       88
REMARK 921   NORMALIZED FREE ENERGY PREDICTED BY IDOCK:   -5.40 KCAL/MOL
REMARK 922        TOTAL FREE ENERGY PREDICTED BY IDOCK:   -9.10 KCAL/MOL
REMARK 923 INTER-LIGAND FREE ENERGY PREDICTED BY IDOCK:   -7.60 KCAL/MOL
REMARK 924 INTRA-LIGAND FREE ENERGY PREDICTED BY IDOCK:   -1.50 KCAL/MOL
REMARK 927      BINDING AFFINITY PREDICTED BY RF-SCORE:    0.00 PKD
ROOT
HETATM    1  C   UNL     1      -7.436  10.147  69.583  1.00  0.00    -0.147 C  
HETATM    2  S   UNL     1      -8.742   9.273  70.488  1.00  0.00    -0.235 SA 
HETATM    3  C   UNL     1      -7.825   7.720  70.533  1.00  0.00    -0.096 C  
HETATM    4  C   UNL     1      -7.245   7.285  69.191  1.00  0.00    -0.085 C  
HETATM    5  OXT UNL     1      -6.700   6.403  66.482  1.00  0.00    -0.053 OA 
HETATM    6  CA  UNL     1      -7.023   8.135  68.146  1.00  0.00    -0.077 C  
HETATM    7  C   UNL     1      -6.622   7.585  66.786  1.00  0.00    -0.057 C  
HETATM    8  CA  UNL     1      -7.924  11.396  68.768  1.00  0.00    -0.122 C  
HETATM    9  N   UNL     1      -7.229   9.481  68.310  1.00  0.00    -0.076 N  
HETATM   10  O   UNL     1      -6.091   8.462  65.913  1.00  0.00    -0.047 OA 
HETATM   11  C   UNL     1      -7.390  10.578  67.538  1.00  0.00    -0.092 C  
HETATM   12  O   UNL     1      -7.228  10.708  66.345  1.00  0.00    -0.120 OA 
ENDROOT
BRANCH   4  13
HETATM   13  C   UNL     1      -7.085   5.764  69.163  1.00  0.00    -0.065 C  
BRANCH  13  14
HETATM   14  S   UNL     1      -8.595   4.796  69.403  1.00  0.00    -0.083 SA 
BRANCH  14  15
HETATM   15  C   UNL     1      -9.591   5.204  68.067  1.00  0.00    -0.136 A  
HETATM   16  N   UNL     1      -9.404   4.929  66.799  1.00  0.00    -0.131 NA 
HETATM   17  N   UNL     1     -10.458   5.507  66.131  1.00  0.00    -0.142 NA 
HETATM   18  C   UNL     1     -11.388   6.436  69.369  1.00  0.00    -0.377 C  
HETATM   19  N   UNL     1     -10.744   5.923  68.191  1.00  0.00    -0.259 NA 
HETATM   20  N   UNL     1     -11.281   6.116  66.973  1.00  0.00    -0.224 NA 
ENDBRANCH  14  15
ENDBRANCH  13  14
ENDBRANCH   4  13
BRANCH   8  21
HETATM   21  N   UNL     1      -9.395  11.614  68.800  1.00  0.00    -0.382 N  
HETATM   22  O   UNL     1      -9.389  13.826  68.238  1.00  0.00    -0.203 OA 
HETATM   23  H   UNL     1      -9.984  10.831  69.085  1.00  0.00     0.000 HD 
HETATM   24  C   UNL     1     -10.019  12.797  68.473  1.00  0.00    -0.164 C  
BRANCH  24  25
HETATM   25  C   UNL     1     -11.563  12.718  68.448  1.00  0.00    -0.325 C  
BRANCH  25  26
HETATM   26  O   UNL     1     -12.034  13.753  67.562  1.00  0.00    -0.372 OA 
HETATM   27  O   UNL     1     -12.120  12.221  65.841  1.00  0.00    -0.609 OA 
HETATM   28  C   UNL     1     -12.286  13.340  66.294  1.00  0.00    -0.377 C  
ENDBRANCH  25  26
BRANCH  25  29
HETATM   29  C   UNL     1     -12.153  12.898  69.841  1.00  0.00    -0.335 A  
HETATM   30  C   UNL     1     -12.487  11.768  70.599  1.00  0.00    -0.364 A  
HETATM   31  C   UNL     1     -13.045  11.906  71.871  1.00  0.00    -0.474 A  
HETATM   32  C   UNL     1     -13.262  13.172  72.408  1.00  0.00    -0.519 A  
HETATM   33  C   UNL     1     -12.921  14.305  71.675  1.00  0.00    -0.420 A  
HETATM   34  C   UNL     1     -12.370  14.170  70.401  1.00  0.00    -0.428 A  
ENDBRANCH  25  29
ENDBRANCH  24  25
ENDBRANCH   8  21
TORSDOF 7
ENDMDL
MODEL       89
REMARK 921   NORMALIZED FREE ENERGY PREDICTED BY IDOCK:   -5.38 KCAL/MOL
REMARK 922        TOTAL FREE ENERGY PREDICTED BY IDOCK:   -9.07 KCAL/MOL
REMARK 923 INTER-LIGAND FREE ENERGY PREDICTED BY IDOCK:   -7.76 KCAL/MOL
REMARK 924 INTRA-LIGAND FREE ENERGY PREDICTED BY IDOCK:   -1.31 KCAL/MOL
REMARK 927      BINDING AFFINITY PREDICTED BY RF-SCORE:    0.00 PKD
ROOT
HETATM    1  C   UNL     1     -10.256  12.522  68.402  1.00  0.00    -0.228 C  
HETATM    2  S   UNL     1     -11.303  12.353  66.931  1.00  0.00    -0.354 SA 
HETATM    3  C   UNL     1     -11.102  10.562  66.858  1.00  0.00    -0.050 C  
HETATM    4  C   UNL     1      -9.661  10.078  66.969  1.00  0.00    -0.212 C  
HETATM    5  OXT UNL     1      -6.849   9.428  66.671  1.00  0.00    -0.078 OA 
HETATM    6  CA  UNL     1      -8.649  10.818  67.509  1.00  0.00    -0.125 C  
HETATM    7  C   UNL     1      -7.210  10.335  67.408  1.00  0.00    -0.092 C  
HETATM    8  CA  UNL     1      -9.610  13.939  68.589  1.00  0.00    -0.142 C  
HETATM    9  N   UNL     1      -8.927  12.031  68.084  1.00  0.00    -0.186 N  
HETATM   10  O   UNL     1      -6.319  10.911  68.237  1.00  0.00    -0.056 OA 
HETATM   11  C   UNL     1      -8.261  13.143  68.466  1.00  0.00    -0.076 C  
HETATM   12  O   UNL     1      -7.067  13.333  68.551  1.00  0.00    -0.092 OA 
ENDROOT
BRANCH   4  13
HETATM   13  C   UNL     1      -9.513   8.723  66.275  1.00  0.00    -0.234 C  
BRANCH  13  14
HETATM   14  S   UNL     1     -10.403   7.338  67.025  1.00  0.00    -0.312 SA 
BRANCH  14  15
HETATM   15  C   UNL     1      -9.542   6.998  68.469  1.00  0.00    -0.137 A  
HETATM   16  N   UNL     1      -8.256   7.113  68.697  1.00  0.00    -0.124 NA 
HETATM   17  N   UNL     1      -8.062   6.680  69.987  1.00  0.00    -0.119 NA 
HETATM   18  C   UNL     1     -11.529   6.247  69.860  1.00  0.00    -0.389 C  
HETATM   19  N   UNL     1     -10.142   6.519  69.598  1.00  0.00    -0.177 NA 
HETATM   20  N   UNL     1      -9.209   6.315  70.545  1.00  0.00    -0.157 NA 
ENDBRANCH  14  15
ENDBRANCH  13  14
ENDBRANCH   4  13
BRANCH   8  21
HETATM   21  N   UNL     1      -9.891  14.894  67.484  1.00  0.00    -0.217 N  
HETATM   22  O   UNL     1     -11.590  16.037  68.491  1.00  0.00    -0.381 OA 
HETATM   23  H   UNL     1      -9.358  14.789  66.621  1.00  0.00     0.000 HD 
HETATM   24  C   UNL     1     -10.819  15.910  67.543  1.00  0.00    -0.305 C  
BRANCH  24  25
HETATM   25  C   UNL     1     -10.814  16.850  66.316  1.00  0.00     0.026 C  
BRANCH  25  26
HETATM   26  O   UNL     1     -10.227  16.124  65.218  1.00  0.00    -0.520 OA 
HETATM   27  O   UNL     1     -12.216  16.288  64.064  1.00  0.00    -0.874 OA 
HETATM   28  C   UNL     1     -11.052  15.940  64.156  1.00  0.00     0.271 C  
ENDBRANCH  25  26
BRANCH  25  29
HETATM   29  C   UNL     1     -10.029  18.126  66.595  1.00  0.00    -0.363 A  
HETATM   30  C   UNL     1      -8.675  18.193  66.243  1.00  0.00    -0.195 A  
HETATM   31  C   UNL     1      -7.929  19.343  66.505  1.00  0.00    -0.309 A  
HETATM   32  C   UNL     1      -8.530  20.446  67.106  1.00  0.00    -0.393 A  
HETATM   33  C   UNL     1      -9.878  20.402  67.448  1.00  0.00    -0.587 A  
HETATM   34  C   UNL     1     -10.623  19.252  67.194  1.00  0.00    -0.575 A  
ENDBRANCH  25  29
ENDBRANCH  24  25
ENDBRANCH   8  21
TORSDOF 7
ENDMDL
MODEL       90
REMARK 921   NORMALIZED FREE ENERGY PREDICTED BY IDOCK:   -5.37 KCAL/MOL
REMARK 922        TOTAL FREE ENERGY PREDICTED BY IDOCK:   -9.06 KCAL/MOL
REMARK 923 INTER-LIGAND FREE ENERGY PREDICTED BY IDOCK:   -8.20 KCAL/MOL
REMARK 924 INTRA-LIGAND FREE ENERGY PREDICTED BY IDOCK:   -0.86 KCAL/MOL
REMARK 927      BINDING AFFINITY PREDICTED BY RF-SCORE:    0.00 PKD
ROOT
HETATM    1  C   UNL     1      -8.943  10.517  67.868  1.00  0.00    -0.137 C  
HETATM    2  S   UNL     1     -10.717  10.574  68.242  1.00  0.00    -0.250 SA 
HETATM    3  C   UNL     1     -11.016  11.977  67.148  1.00  0.00    -0.270 C  
HETATM    4  C   UNL     1     -10.045  13.139  67.324  1.00  0.00    -0.233 C  
HETATM    5  OXT UNL     1      -8.441  15.399  68.185  1.00  0.00    -0.144 OA 
HETATM    6  CA  UNL     1      -8.812  13.021  67.898  1.00  0.00    -0.193 C  
HETATM    7  C   UNL     1      -7.989  14.262  68.204  1.00  0.00    -0.140 C  
HETATM    8  CA  UNL     1      -8.060   9.841  68.974  1.00  0.00    -0.101 C  
HETATM    9  N   UNL     1      -8.347  11.782  68.259  1.00  0.00    -0.154 N  
HETATM   10  O   UNL     1      -6.677  14.075  68.440  1.00  0.00    -0.082 OA 
HETATM   11  C   UNL     1      -7.382  11.257  69.045  1.00  0.00    -0.115 C  
HETATM   12  O   UNL     1      -6.455  11.808  69.597  1.00  0.00    -0.120 OA 
ENDROOT
BRANCH   4  13
HETATM   13  C   UNL     1     -10.713  14.444  66.888  1.00  0.00    -0.292 C  
BRANCH  13  14
HETATM   14  S   UNL     1     -10.697  14.798  65.115  1.00  0.00    -0.443 SA 
BRANCH  14  15
HETATM   15  C   UNL     1     -11.676  13.575  64.417  1.00  0.00    -0.407 A  
HETATM   16  N   UNL     1     -12.972  13.407  64.529  1.00  0.00    -0.567 NA 
HETATM   17  N   UNL     1     -13.265  12.267  63.820  1.00  0.00    -0.641 NA 
HETATM   18  C   UNL     1      -9.824  12.328  63.209  1.00  0.00     0.084 C  
HETATM   19  N   UNL     1     -11.173  12.571  63.641  1.00  0.00    -0.454 NA 
HETATM   20  N   UNL     1     -12.173  11.748  63.275  1.00  0.00    -0.417 NA 
ENDBRANCH  14  15
ENDBRANCH  13  14
ENDBRANCH   4  13
BRANCH   8  21
HETATM   21  N   UNL     1      -8.808   9.429  70.192  1.00  0.00    -0.204 N  
HETATM   22  O   UNL     1      -9.393   7.335  69.500  1.00  0.00    -0.153 OA 
HETATM   23  H   UNL     1      -8.916  10.118  70.936  1.00  0.00     0.000 HD 
HETATM   24  C   UNL     1      -9.366   8.185  70.386  1.00  0.00    -0.158 C  
BRANCH  24  25
HETATM   25  C   UNL     1      -9.963   7.967  71.796  1.00  0.00    -0.177 C  
BRANCH  25  26
HETATM   26  O   UNL     1      -9.942   6.550  72.058  1.00  0.00    -0.171 OA 
HETATM   27  O   UNL     1      -8.603   6.923  73.897  1.00  0.00    -0.130 OA 
HETATM   28  C   UNL     1      -9.234   6.188  73.158  1.00  0.00    -0.132 C  
ENDBRANCH  25  26
BRANCH  25  29
HETATM   29  C   UNL     1     -11.384   8.509  71.889  1.00  0.00    -0.399 A  
HETATM   30  C   UNL     1     -12.446   7.624  72.116  1.00  0.00    -0.249 A  
HETATM   31  C   UNL     1     -13.758   8.092  72.187  1.00  0.00    -0.282 A  
HETATM   32  C   UNL     1     -14.025   9.452  72.049  1.00  0.00    -0.334 A  
HETATM   33  C   UNL     1     -12.980  10.347  71.839  1.00  0.00    -0.555 A  
HETATM   34  C   UNL     1     -11.669   9.880  71.761  1.00  0.00    -0.183 A  
ENDBRANCH  25  29
ENDBRANCH  24  25
ENDBRANCH   8  21
TORSDOF 7
ENDMDL
MODEL       91
REMARK 921   NORMALIZED FREE ENERGY PREDICTED BY IDOCK:   -5.35 KCAL/MOL
REMARK 922        TOTAL FREE ENERGY PREDICTED BY IDOCK:   -9.04 KCAL/MOL
REMARK 923 INTER-LIGAND FREE ENERGY PREDICTED BY IDOCK:   -7.68 KCAL/MOL
REMARK 924 INTRA-LIGAND FREE ENERGY PREDICTED BY IDOCK:   -1.36 KCAL/MOL
REMARK 927      BINDING AFFINITY PREDICTED BY RF-SCORE:    0.00 PKD
ROOT
HETATM    1  C   UNL     1     -10.819   9.934  67.879  1.00  0.00    -0.258 C  
HETATM    2  S   UNL     1      -9.341  10.623  67.085  1.00  0.00    -0.155 SA 
HETATM    3  C   UNL     1      -8.286   9.259  67.614  1.00  0.00    -0.115 C  
HETATM    4  C   UNL     1      -8.402   8.901  69.092  1.00  0.00    -0.124 C  
HETATM    5  OXT UNL     1      -8.396   8.748  71.990  1.00  0.00    -0.324 OA 
HETATM    6  CA  UNL     1      -9.474   9.227  69.872  1.00  0.00    -0.197 C  
HETATM    7  C   UNL     1      -9.423   8.998  71.375  1.00  0.00    -0.264 C  
HETATM    8  CA  UNL     1     -11.929  10.987  68.226  1.00  0.00    -0.039 C  
HETATM    9  N   UNL     1     -10.570   9.824  69.305  1.00  0.00    -0.212 N  
HETATM   10  O   UNL     1     -10.601   9.011  72.028  1.00  0.00    -0.345 OA 
HETATM   11  C   UNL     1     -11.660  10.518  69.701  1.00  0.00    -0.271 C  
HETATM   12  O   UNL     1     -12.094  10.694  70.819  1.00  0.00    -0.311 OA 
ENDROOT
BRANCH   4  13
HETATM   13  C   UNL     1      -7.102   8.256  69.575  1.00  0.00    -0.053 C  
BRANCH  13  14
HETATM   14  S   UNL     1      -6.918   6.486  69.248  1.00  0.00    -0.073 SA 
BRANCH  14  15
HETATM   15  C   UNL     1      -8.259   5.757  70.030  1.00  0.00    -0.115 A  
HETATM   16  N   UNL     1      -8.362   5.372  71.279  1.00  0.00    -0.123 NA 
HETATM   17  N   UNL     1      -9.613   4.814  71.398  1.00  0.00    -0.154 NA 
HETATM   18  C   UNL     1      -9.814   5.706  68.024  1.00  0.00    -0.133 C  
HETATM   19  N   UNL     1      -9.426   5.461  69.386  1.00  0.00    -0.126 NA 
HETATM   20  N   UNL     1     -10.270   4.864  70.247  1.00  0.00    -0.252 NA 
ENDBRANCH  14  15
ENDBRANCH  13  14
ENDBRANCH   4  13
BRANCH   8  21
HETATM   21  N   UNL     1     -11.556  12.395  67.926  1.00  0.00    -0.336 N  
HETATM   22  O   UNL     1     -12.598  12.564  65.904  1.00  0.00    -0.514 OA 
HETATM   23  H   UNL     1     -10.950  12.876  68.591  1.00  0.00     0.000 HD 
HETATM   24  C   UNL     1     -11.970  13.096  66.816  1.00  0.00    -0.373 C  
BRANCH  24  25
HETATM   25  C   UNL     1     -11.562  14.588  66.814  1.00  0.00    -0.376 C  
BRANCH  25  26
HETATM   26  O   UNL     1     -10.296  14.688  66.133  1.00  0.00    -0.280 OA 
HETATM   27  O   UNL     1     -11.317  15.867  64.436  1.00  0.00    -0.435 OA 
HETATM   28  C   UNL     1     -10.335  15.375  64.964  1.00  0.00    -0.329 C  
ENDBRANCH  25  26
BRANCH  25  29
HETATM   29  C   UNL     1     -11.453  15.137  68.231  1.00  0.00    -0.350 A  
HETATM   30  C   UNL     1     -10.251  15.717  68.655  1.00  0.00    -0.212 A  
HETATM   31  C   UNL     1     -10.120  16.211  69.954  1.00  0.00    -0.074 A  
HETATM   32  C   UNL     1     -11.193  16.146  70.840  1.00  0.00    -0.329 A  
HETATM   33  C   UNL     1     -12.400  15.588  70.430  1.00  0.00    -0.451 A  
HETATM   34  C   UNL     1     -12.530  15.087  69.135  1.00  0.00     0.023 A  
ENDBRANCH  25  29
ENDBRANCH  24  25
ENDBRANCH   8  21
TORSDOF 7
ENDMDL
MODEL       92
REMARK 921   NORMALIZED FREE ENERGY PREDICTED BY IDOCK:   -5.34 KCAL/MOL
REMARK 922        TOTAL FREE ENERGY PREDICTED BY IDOCK:   -9.02 KCAL/MOL
REMARK 923 INTER-LIGAND FREE ENERGY PREDICTED BY IDOCK:   -8.25 KCAL/MOL
REMARK 924 INTRA-LIGAND FREE ENERGY PREDICTED BY IDOCK:   -0.77 KCAL/MOL
REMARK 927      BINDING AFFINITY PREDICTED BY RF-SCORE:    0.00 PKD
ROOT
HETATM    1  C   UNL     1      -8.290  11.212  67.103  1.00  0.00    -0.136 C  
HETATM    2  S   UNL     1     -10.072  11.366  66.806  1.00  0.00    -0.223 SA 
HETATM    3  C   UNL     1      -9.962  13.117  66.385  1.00  0.00    -0.282 C  
HETATM    4  C   UNL     1      -9.161  13.960  67.372  1.00  0.00    -0.224 C  
HETATM    5  OXT UNL     1      -8.065  15.430  69.620  1.00  0.00    -0.230 OA 
HETATM    6  CA  UNL     1      -8.240  13.446  68.239  1.00  0.00    -0.160 C  
HETATM    7  C   UNL     1      -7.628  14.329  69.315  1.00  0.00     0.012 C  
HETATM    8  CA  UNL     1      -7.882  10.030  68.051  1.00  0.00    -0.089 C  
HETATM    9  N   UNL     1      -7.920  12.114  68.178  1.00  0.00    -0.142 N  
HETATM   10  O   UNL     1      -6.502  13.877  69.899  1.00  0.00    -0.129 OA 
HETATM   11  C   UNL     1      -7.318  11.185  68.954  1.00  0.00    -0.110 C  
HETATM   12  O   UNL     1      -6.687  11.330  69.977  1.00  0.00    -0.130 OA 
ENDROOT
BRANCH   4  13
HETATM   13  C   UNL     1      -9.642  15.411  67.326  1.00  0.00    -0.211 C  
BRANCH  13  14
HETATM   14  S   UNL     1      -8.749  16.514  66.206  1.00  0.00    -0.318 SA 
BRANCH  14  15
HETATM   15  C   UNL     1      -8.487  17.943  67.117  1.00  0.00    -0.233 A  
HETATM   16  N   UNL     1      -7.571  18.172  68.027  1.00  0.00    -0.236 NA 
HETATM   17  N   UNL     1      -7.809  19.445  68.487  1.00  0.00    -0.344 NA 
HETATM   18  C   UNL     1     -10.384  19.310  66.127  1.00  0.00    -0.494 C  
HETATM   19  N   UNL     1      -9.270  19.055  67.000  1.00  0.00    -0.292 NA 
HETATM   20  N   UNL     1      -8.845  19.993  67.866  1.00  0.00    -0.296 NA 
ENDBRANCH  14  15
ENDBRANCH  13  14
ENDBRANCH   4  13
BRANCH   8  21
HETATM   21  N   UNL     1      -9.030   9.276  68.622  1.00  0.00    -0.132 N  
HETATM   22  O   UNL     1      -8.040   8.648  70.580  1.00  0.00    -0.094 OA 
HETATM   23  H   UNL     1      -9.868   9.184  68.049  1.00  0.00     0.000 HD 
HETATM   24  C   UNL     1      -9.042   8.694  69.870  1.00  0.00    -0.151 C  
BRANCH  24  25
HETATM   25  C   UNL     1     -10.407   8.096  70.282  1.00  0.00    -0.209 C  
BRANCH  25  26
HETATM   26  O   UNL     1     -10.934   7.394  69.138  1.00  0.00    -0.155 OA 
HETATM   27  O   UNL     1     -10.633   5.394  70.244  1.00  0.00    -0.285 OA 
HETATM   28  C   UNL     1     -11.000   6.046  69.283  1.00  0.00    -0.366 C  
ENDBRANCH  25  26
BRANCH  25  29
HETATM   29  C   UNL     1     -11.376   9.180  70.737  1.00  0.00    -0.337 A  
HETATM   30  C   UNL     1     -12.405   8.855  71.630  1.00  0.00    -0.405 A  
HETATM   31  C   UNL     1     -13.316   9.826  72.048  1.00  0.00    -0.547 A  
HETATM   32  C   UNL     1     -13.200  11.137  71.592  1.00  0.00    -0.449 A  
HETATM   33  C   UNL     1     -12.174  11.482  70.718  1.00  0.00    -0.463 A  
HETATM   34  C   UNL     1     -11.267  10.511  70.293  1.00  0.00    -0.391 A  
ENDBRANCH  25  29
ENDBRANCH  24  25
ENDBRANCH   8  21
TORSDOF 7
ENDMDL
MODEL       93
REMARK 921   NORMALIZED FREE ENERGY PREDICTED BY IDOCK:   -5.32 KCAL/MOL
REMARK 922        TOTAL FREE ENERGY PREDICTED BY IDOCK:   -8.99 KCAL/MOL
REMARK 923 INTER-LIGAND FREE ENERGY PREDICTED BY IDOCK:   -7.55 KCAL/MOL
REMARK 924 INTRA-LIGAND FREE ENERGY PREDICTED BY IDOCK:   -1.44 KCAL/MOL
REMARK 927      BINDING AFFINITY PREDICTED BY RF-SCORE:    0.00 PKD
ROOT
HETATM    1  C   UNL     1     -10.275   8.440  69.159  1.00  0.00    -0.211 C  
HETATM    2  S   UNL     1     -10.462   8.795  67.390  1.00  0.00    -0.244 SA 
HETATM    3  C   UNL     1      -9.728   7.226  66.885  1.00  0.00    -0.194 C  
HETATM    4  C   UNL     1      -8.412   6.887  67.576  1.00  0.00    -0.122 C  
HETATM    5  OXT UNL     1      -5.706   6.707  68.607  1.00  0.00    -0.016 OA 
HETATM    6  CA  UNL     1      -8.013   7.433  68.763  1.00  0.00    -0.123 C  
HETATM    7  C   UNL     1      -6.607   7.183  69.284  1.00  0.00    -0.044 C  
HETATM    8  CA  UNL     1     -10.231   9.707  70.082  1.00  0.00    -0.264 C  
HETATM    9  N   UNL     1      -8.863   8.262  69.448  1.00  0.00    -0.145 N  
HETATM   10  O   UNL     1      -6.389   7.448  70.586  1.00  0.00    -0.038 OA 
HETATM   11  C   UNL     1      -8.798   9.175  70.443  1.00  0.00    -0.220 C  
HETATM   12  O   UNL     1      -7.881   9.431  71.192  1.00  0.00    -0.325 OA 
ENDROOT
BRANCH   4  13
HETATM   13  C   UNL     1      -7.578   5.967  66.684  1.00  0.00    -0.095 C  
BRANCH  13  14
HETATM   14  S   UNL     1      -7.163   6.604  65.043  1.00  0.00    -0.078 SA 
BRANCH  14  15
HETATM   15  C   UNL     1      -6.703   8.235  65.312  1.00  0.00    -0.052 A  
HETATM   16  N   UNL     1      -5.662   8.689  65.968  1.00  0.00    -0.046 NA 
HETATM   17  N   UNL     1      -5.765  10.059  65.932  1.00  0.00    -0.063 NA 
HETATM   18  C   UNL     1      -8.634   9.324  64.077  1.00  0.00    -0.186 C  
HETATM   19  N   UNL     1      -7.431   9.298  64.862  1.00  0.00    -0.104 NA 
HETATM   20  N   UNL     1      -6.842  10.440  65.259  1.00  0.00    -0.127 NA 
ENDBRANCH  14  15
ENDBRANCH  13  14
ENDBRANCH   4  13
BRANCH   8  21
HETATM   21  N   UNL     1     -10.266  11.002  69.351  1.00  0.00    -0.418 N  
HETATM   22  O   UNL     1     -12.520  11.103  69.012  1.00  0.00    -0.439 OA 
HETATM   23  H   UNL     1      -9.375  11.456  69.150  1.00  0.00     0.000 HD 
HETATM   24  C   UNL     1     -11.415  11.631  68.925  1.00  0.00    -0.287 C  
BRANCH  24  25
HETATM   25  C   UNL     1     -11.186  13.035  68.318  1.00  0.00    -0.275 C  
BRANCH  25  26
HETATM   26  O   UNL     1     -12.066  13.949  69.001  1.00  0.00    -0.349 OA 
HETATM   27  O   UNL     1     -10.236  15.142  69.736  1.00  0.00    -0.236 OA 
HETATM   28  C   UNL     1     -11.438  14.962  69.649  1.00  0.00    -0.294 C  
ENDBRANCH  25  26
BRANCH  25  29
HETATM   29  C   UNL     1     -11.460  13.046  66.820  1.00  0.00    -0.392 A  
HETATM   30  C   UNL     1     -10.956  12.012  66.019  1.00  0.00    -0.346 A  
HETATM   31  C   UNL     1     -11.179  12.008  64.641  1.00  0.00    -0.380 A  
HETATM   32  C   UNL     1     -11.920  13.027  64.048  1.00  0.00    -0.523 A  
HETATM   33  C   UNL     1     -12.441  14.053  64.831  1.00  0.00    -0.419 A  
HETATM   34  C   UNL     1     -12.215  14.063  66.206  1.00  0.00    -0.493 A  
ENDBRANCH  25  29
ENDBRANCH  24  25
ENDBRANCH   8  21
TORSDOF 7
ENDMDL
MODEL       94
REMARK 921   NORMALIZED FREE ENERGY PREDICTED BY IDOCK:   -5.32 KCAL/MOL
REMARK 922        TOTAL FREE ENERGY PREDICTED BY IDOCK:   -8.98 KCAL/MOL
REMARK 923 INTER-LIGAND FREE ENERGY PREDICTED BY IDOCK:   -7.59 KCAL/MOL
REMARK 924 INTRA-LIGAND FREE ENERGY PREDICTED BY IDOCK:   -1.40 KCAL/MOL
REMARK 927      BINDING AFFINITY PREDICTED BY RF-SCORE:    0.00 PKD
ROOT
HETATM    1  C   UNL     1     -11.314  13.267  67.183  1.00  0.00    -0.317 C  
HETATM    2  S   UNL     1      -9.895  13.674  68.236  1.00  0.00    -0.229 SA 
HETATM    3  C   UNL     1     -10.471  15.354  68.553  1.00  0.00    -0.234 C  
HETATM    4  C   UNL     1     -10.891  16.129  67.309  1.00  0.00    -0.235 C  
HETATM    5  OXT UNL     1     -11.126  17.563  64.798  1.00  0.00    -0.959 OA 
HETATM    6  CA  UNL     1     -11.240  15.540  66.127  1.00  0.00    -0.102 C  
HETATM    7  C   UNL     1     -11.460  16.390  64.886  1.00  0.00     0.030 C  
HETATM    8  CA  UNL     1     -11.061  12.105  66.160  1.00  0.00    -0.312 C  
HETATM    9  N   UNL     1     -11.324  14.174  66.049  1.00  0.00    -0.323 N  
HETATM   10  O   UNL     1     -12.124  15.811  63.867  1.00  0.00    -0.623 OA 
HETATM   11  C   UNL     1     -11.361  13.219  65.093  1.00  0.00    -0.297 C  
HETATM   12  O   UNL     1     -11.496  13.335  63.895  1.00  0.00    -0.394 OA 
ENDROOT
BRANCH   4  13
HETATM   13  C   UNL     1     -10.731  17.630  67.552  1.00  0.00    -0.290 C  
BRANCH  13  14
HETATM   14  S   UNL     1      -9.281  18.136  68.509  1.00  0.00    -0.297 SA 
BRANCH  14  15
HETATM   15  C   UNL     1      -7.943  17.753  67.506  1.00  0.00    -0.212 A  
HETATM   16  N   UNL     1      -7.149  16.711  67.570  1.00  0.00    -0.135 NA 
HETATM   17  N   UNL     1      -6.215  16.890  66.578  1.00  0.00    -0.280 NA 
HETATM   18  C   UNL     1      -8.074  19.793  66.001  1.00  0.00    -0.322 C  
HETATM   19  N   UNL     1      -7.524  18.557  66.485  1.00  0.00    -0.231 NA 
HETATM   20  N   UNL     1      -6.435  18.015  65.910  1.00  0.00    -0.256 NA 
ENDBRANCH  14  15
ENDBRANCH  13  14
ENDBRANCH   4  13
BRANCH   8  21
HETATM   21  N   UNL     1      -9.670  11.578  66.160  1.00  0.00    -0.215 N  
HETATM   22  O   UNL     1     -10.010   9.816  64.751  1.00  0.00    -0.210 OA 
HETATM   23  H   UNL     1      -8.988  12.042  66.760  1.00  0.00     0.000 HD 
HETATM   24  C   UNL     1      -9.237  10.510  65.407  1.00  0.00    -0.192 C  
BRANCH  24  25
HETATM   25  C   UNL     1      -7.713  10.256  65.477  1.00  0.00    -0.149 C  
BRANCH  25  26
HETATM   26  O   UNL     1      -7.493   8.863  65.181  1.00  0.00    -0.093 OA 
HETATM   27  O   UNL     1      -5.896   9.459  63.630  1.00  0.00    -0.084 OA 
HETATM   28  C   UNL     1      -6.537   8.627  64.248  1.00  0.00    -0.071 C  
ENDBRANCH  25  26
BRANCH  25  29
HETATM   29  C   UNL     1      -7.153  10.607  66.851  1.00  0.00    -0.109 A  
HETATM   30  C   UNL     1      -6.071  11.490  66.949  1.00  0.00    -0.146 A  
HETATM   31  C   UNL     1      -5.528  11.814  68.193  1.00  0.00    -0.044 A  
HETATM   32  C   UNL     1      -6.070  11.271  69.356  1.00  0.00    -0.074 A  
HETATM   33  C   UNL     1      -7.155  10.404  69.278  1.00  0.00    -0.090 A  
HETATM   34  C   UNL     1      -7.694  10.074  68.035  1.00  0.00    -0.089 A  
ENDBRANCH  25  29
ENDBRANCH  24  25
ENDBRANCH   8  21
TORSDOF 7
ENDMDL
MODEL       95
REMARK 921   NORMALIZED FREE ENERGY PREDICTED BY IDOCK:   -5.30 KCAL/MOL
REMARK 922        TOTAL FREE ENERGY PREDICTED BY IDOCK:   -8.97 KCAL/MOL
REMARK 923 INTER-LIGAND FREE ENERGY PREDICTED BY IDOCK:   -7.31 KCAL/MOL
REMARK 924 INTRA-LIGAND FREE ENERGY PREDICTED BY IDOCK:   -1.65 KCAL/MOL
REMARK 927      BINDING AFFINITY PREDICTED BY RF-SCORE:    0.00 PKD
ROOT
HETATM    1  C   UNL     1      -7.957   9.624  67.799  1.00  0.00    -0.105 C  
HETATM    2  S   UNL     1      -7.850  10.198  69.517  1.00  0.00    -0.170 SA 
HETATM    3  C   UNL     1      -7.854   8.525  70.192  1.00  0.00    -0.099 C  
HETATM    4  C   UNL     1      -8.946   7.617  69.637  1.00  0.00    -0.140 C  
HETATM    5  OXT UNL     1     -11.385   6.258  68.847  1.00  0.00    -0.373 OA 
HETATM    6  CA  UNL     1      -9.587   7.835  68.451  1.00  0.00    -0.152 C  
HETATM    7  C   UNL     1     -10.791   6.988  68.066  1.00  0.00    -0.163 C  
HETATM    8  CA  UNL     1      -8.557  10.669  66.795  1.00  0.00    -0.129 C  
HETATM    9  N   UNL     1      -9.184   8.864  67.640  1.00  0.00    -0.136 N  
HETATM   10  O   UNL     1     -11.157   7.013  66.770  1.00  0.00    -0.289 OA 
HETATM   11  C   UNL     1      -9.662   9.570  66.592  1.00  0.00    -0.211 C  
HETATM   12  O   UNL     1     -10.636   9.358  65.904  1.00  0.00     0.066 OA 
ENDROOT
BRANCH   4  13
HETATM   13  C   UNL     1      -9.289   6.531  70.658  1.00  0.00    -0.162 C  
BRANCH  13  14
HETATM   14  S   UNL     1      -9.926   7.104  72.251  1.00  0.00    -0.174 SA 
BRANCH  14  15
HETATM   15  C   UNL     1     -11.583   7.441  71.961  1.00  0.00    -0.284 A  
HETATM   16  N   UNL     1     -12.617   6.654  72.136  1.00  0.00    -0.204 NA 
HETATM   17  N   UNL     1     -13.712   7.375  71.723  1.00  0.00    -0.349 NA 
HETATM   18  C   UNL     1     -11.287   9.823  71.134  1.00  0.00    -0.389 C  
HETATM   19  N   UNL     1     -12.024   8.634  71.466  1.00  0.00    -0.290 NA 
HETATM   20  N   UNL     1     -13.360   8.586  71.312  1.00  0.00    -0.203 NA 
ENDBRANCH  14  15
ENDBRANCH  13  14
ENDBRANCH   4  13
BRANCH   8  21
HETATM   21  N   UNL     1      -9.022  11.933  67.426  1.00  0.00    -0.167 N  
HETATM   22  O   UNL     1     -10.334  12.668  65.710  1.00  0.00    -0.268 OA 
HETATM   23  H   UNL     1      -8.647  12.169  68.344  1.00  0.00     0.000 HD 
HETATM   24  C   UNL     1      -9.924  12.806  66.859  1.00  0.00    -0.232 C  
BRANCH  24  25
HETATM   25  C   UNL     1     -10.350  13.970  67.784  1.00  0.00    -0.236 C  
BRANCH  25  26
HETATM   26  O   UNL     1     -11.789  13.949  67.868  1.00  0.00    -0.343 OA 
HETATM   27  O   UNL     1     -11.636  13.317  70.080  1.00  0.00    -0.242 OA 
HETATM   28  C   UNL     1     -12.279  13.622  69.090  1.00  0.00    -0.224 C  
ENDBRANCH  25  26
BRANCH  25  29
HETATM   29  C   UNL     1      -9.865  15.312  67.249  1.00  0.00    -0.220 A  
HETATM   30  C   UNL     1     -10.676  16.446  67.393  1.00  0.00    -0.278 A  
HETATM   31  C   UNL     1     -10.262  17.682  66.896  1.00  0.00    -0.334 A  
HETATM   32  C   UNL     1      -9.027  17.805  66.263  1.00  0.00    -0.200 A  
HETATM   33  C   UNL     1      -8.203  16.693  66.126  1.00  0.00    -0.295 A  
HETATM   34  C   UNL     1      -8.617  15.455  66.615  1.00  0.00    -0.318 A  
ENDBRANCH  25  29
ENDBRANCH  24  25
ENDBRANCH   8  21
TORSDOF 7
ENDMDL
MODEL       96
REMARK 921   NORMALIZED FREE ENERGY PREDICTED BY IDOCK:   -5.29 KCAL/MOL
REMARK 922        TOTAL FREE ENERGY PREDICTED BY IDOCK:   -8.95 KCAL/MOL
REMARK 923 INTER-LIGAND FREE ENERGY PREDICTED BY IDOCK:   -7.75 KCAL/MOL
REMARK 924 INTRA-LIGAND FREE ENERGY PREDICTED BY IDOCK:   -1.21 KCAL/MOL
REMARK 927      BINDING AFFINITY PREDICTED BY RF-SCORE:    0.00 PKD
ROOT
HETATM    1  C   UNL     1     -11.390  10.558  67.657  1.00  0.00    -0.154 C  
HETATM    2  S   UNL     1     -10.971  11.526  69.133  1.00  0.00    -0.205 SA 
HETATM    3  C   UNL     1     -11.818  13.003  68.539  1.00  0.00    -0.325 C  
HETATM    4  C   UNL     1     -11.479  13.399  67.106  1.00  0.00    -0.373 C  
HETATM    5  OXT UNL     1     -10.303  14.247  64.593  1.00  0.00    -0.417 OA 
HETATM    6  CA  UNL     1     -10.960  12.538  66.181  1.00  0.00    -0.284 C  
HETATM    7  C   UNL     1     -10.476  13.061  64.838  1.00  0.00    -0.339 C  
HETATM    8  CA  UNL     1     -10.427   9.353  67.367  1.00  0.00    -0.278 C  
HETATM    9  N   UNL     1     -10.814  11.212  66.496  1.00  0.00    -0.269 N  
HETATM   10  O   UNL     1     -10.303  12.150  63.861  1.00  0.00    -0.348 OA 
HETATM   11  C   UNL     1     -10.144  10.133  66.033  1.00  0.00    -0.248 C  
HETATM   12  O   UNL     1      -9.532   9.996  64.996  1.00  0.00    -0.235 OA 
ENDROOT
BRANCH   4  13
HETATM   13  C   UNL     1     -11.684  14.903  66.919  1.00  0.00    -0.248 C  
BRANCH  13  14
HETATM   14  S   UNL     1     -10.830  15.979  68.096  1.00  0.00    -0.333 SA 
BRANCH  14  15
HETATM   15  C   UNL     1      -9.807  16.958  67.128  1.00  0.00    -0.270 A  
HETATM   16  N   UNL     1     -10.017  18.180  66.700  1.00  0.00    -0.342 NA 
HETATM   17  N   UNL     1      -8.923  18.503  65.933  1.00  0.00    -0.434 NA 
HETATM   18  C   UNL     1      -7.916  15.286  66.860  1.00  0.00    -0.159 C  
HETATM   19  N   UNL     1      -8.601  16.533  66.652  1.00  0.00    -0.226 NA 
HETATM   20  N   UNL     1      -8.053  17.503  65.897  1.00  0.00    -0.555 NA 
ENDBRANCH  14  15
ENDBRANCH  13  14
ENDBRANCH   4  13
BRANCH   8  21
HETATM   21  N   UNL     1      -9.275   9.248  68.302  1.00  0.00    -0.132 N  
HETATM   22  O   UNL     1      -9.607   7.088  68.956  1.00  0.00    -0.142 OA 
HETATM   23  H   UNL     1      -8.709  10.084  68.451  1.00  0.00     0.000 HD 
HETATM   24  C   UNL     1      -8.917   8.104  68.979  1.00  0.00    -0.144 C  
BRANCH  24  25
HETATM   25  C   UNL     1      -7.595   8.220  69.774  1.00  0.00    -0.092 C  
BRANCH  25  26
HETATM   26  O   UNL     1      -6.711   7.189  69.294  1.00  0.00    -0.046 OA 
HETATM   27  O   UNL     1      -5.487   8.783  68.165  1.00  0.00    -0.034 OA 
HETATM   28  C   UNL     1      -5.693   7.635  68.515  1.00  0.00    -0.027 C  
ENDBRANCH  25  26
BRANCH  25  29
HETATM   29  C   UNL     1      -7.832   8.069  71.271  1.00  0.00    -0.094 A  
HETATM   30  C   UNL     1      -6.777   7.662  72.098  1.00  0.00    -0.056 A  
HETATM   31  C   UNL     1      -6.972   7.498  73.470  1.00  0.00    -0.093 A  
HETATM   32  C   UNL     1      -8.218   7.754  74.036  1.00  0.00    -0.268 A  
HETATM   33  C   UNL     1      -9.273   8.175  73.232  1.00  0.00    -0.316 A  
HETATM   34  C   UNL     1      -9.082   8.332  71.860  1.00  0.00    -0.259 A  
ENDBRANCH  25  29
ENDBRANCH  24  25
ENDBRANCH   8  21
TORSDOF 7
ENDMDL
MODEL       97
REMARK 921   NORMALIZED FREE ENERGY PREDICTED BY IDOCK:   -5.29 KCAL/MOL
REMARK 922        TOTAL FREE ENERGY PREDICTED BY IDOCK:   -8.95 KCAL/MOL
REMARK 923 INTER-LIGAND FREE ENERGY PREDICTED BY IDOCK:   -7.70 KCAL/MOL
REMARK 924 INTRA-LIGAND FREE ENERGY PREDICTED BY IDOCK:   -1.25 KCAL/MOL
REMARK 927      BINDING AFFINITY PREDICTED BY RF-SCORE:    0.00 PKD
ROOT
HETATM    1  C   UNL     1      -7.880  11.212  68.859  1.00  0.00    -0.131 C  
HETATM    2  S   UNL     1      -7.190  11.817  67.294  1.00  0.00    -0.149 SA 
HETATM    3  C   UNL     1      -7.804  13.494  67.545  1.00  0.00    -0.178 C  
HETATM    4  C   UNL     1      -9.271  13.582  67.949  1.00  0.00    -0.211 C  
HETATM    5  OXT UNL     1     -12.163  13.532  68.187  1.00  0.00    -0.302 OA 
HETATM    6  CA  UNL     1      -9.970  12.550  68.508  1.00  0.00    -0.165 C  
HETATM    7  C   UNL     1     -11.474  12.663  68.703  1.00  0.00    -0.308 C  
HETATM    8  CA  UNL     1      -8.139   9.665  68.908  1.00  0.00    -0.098 C  
HETATM    9  N   UNL     1      -9.321  11.386  68.829  1.00  0.00    -0.151 N  
HETATM   10  O   UNL     1     -12.040  11.785  69.553  1.00  0.00    -0.295 OA 
HETATM   11  C   UNL     1      -9.633  10.104  69.120  1.00  0.00    -0.212 C  
HETATM   12  O   UNL     1     -10.715   9.611  69.352  1.00  0.00    -0.217 OA 
ENDROOT
BRANCH   4  13
HETATM   13  C   UNL     1      -9.850  14.929  67.515  1.00  0.00    -0.217 C  
BRANCH  13  14
HETATM   14  S   UNL     1      -9.316  15.548  65.902  1.00  0.00    -0.256 SA 
BRANCH  14  15
HETATM   15  C   UNL     1     -10.738  15.552  64.943  1.00  0.00    -0.392 A  
HETATM   16  N   UNL     1     -11.372  16.579  64.432  1.00  0.00    -0.976 NA 
HETATM   17  N   UNL     1     -12.469  16.060  63.786  1.00  0.00    -0.492 NA 
HETATM   18  C   UNL     1     -11.110  13.041  64.908  1.00  0.00    -0.301 C  
HETATM   19  N   UNL     1     -11.414  14.414  64.610  1.00  0.00    -0.388 NA 
HETATM   20  N   UNL     1     -12.503  14.738  63.889  1.00  0.00    -0.779 NA 
ENDBRANCH  14  15
ENDBRANCH  13  14
ENDBRANCH   4  13
BRANCH   8  21
HETATM   21  N   UNL     1      -7.858   8.954  67.633  1.00  0.00    -0.101 N  
HETATM   22  O   UNL     1      -8.353   6.843  68.343  1.00  0.00    -0.119 OA 
HETATM   23  H   UNL     1      -7.502   9.505  66.852  1.00  0.00     0.000 HD 
HETATM   24  C   UNL     1      -8.045   7.605  67.430  1.00  0.00    -0.119 C  
BRANCH  24  25
HETATM   25  C   UNL     1      -7.816   7.141  65.973  1.00  0.00    -0.107 C  
BRANCH  25  26
HETATM   26  O   UNL     1      -8.651   7.953  65.125  1.00  0.00    -0.127 OA 
HETATM   27  O   UNL     1      -6.883   8.233  63.673  1.00  0.00    -0.078 OA 
HETATM   28  C   UNL     1      -8.043   8.409  64.001  1.00  0.00    -0.142 C  
ENDBRANCH  25  26
BRANCH  25  29
HETATM   29  C   UNL     1      -8.152   5.665  65.800  1.00  0.00    -0.114 A  
HETATM   30  C   UNL     1      -7.122   4.715  65.826  1.00  0.00    -0.067 A  
HETATM   31  C   UNL     1      -7.401   3.359  65.652  1.00  0.00    -0.075 A  
HETATM   32  C   UNL     1      -8.713   2.933  65.465  1.00  0.00    -0.125 A  
HETATM   33  C   UNL     1      -9.750   3.860  65.452  1.00  0.00    -0.181 A  
HETATM   34  C   UNL     1      -9.473   5.216  65.619  1.00  0.00    -0.129 A  
ENDBRANCH  25  29
ENDBRANCH  24  25
ENDBRANCH   8  21
TORSDOF 7
ENDMDL
MODEL       98
REMARK 921   NORMALIZED FREE ENERGY PREDICTED BY IDOCK:   -5.27 KCAL/MOL
REMARK 922        TOTAL FREE ENERGY PREDICTED BY IDOCK:   -8.92 KCAL/MOL
REMARK 923 INTER-LIGAND FREE ENERGY PREDICTED BY IDOCK:   -7.83 KCAL/MOL
REMARK 924 INTRA-LIGAND FREE ENERGY PREDICTED BY IDOCK:   -1.09 KCAL/MOL
REMARK 927      BINDING AFFINITY PREDICTED BY RF-SCORE:    0.00 PKD
ROOT
HETATM    1  C   UNL     1      -8.121  10.129  67.769  1.00  0.00    -0.109 C  
HETATM    2  S   UNL     1      -9.061  10.024  69.317  1.00  0.00    -0.210 SA 
HETATM    3  C   UNL     1      -8.359   8.424  69.764  1.00  0.00    -0.125 C  
HETATM    4  C   UNL     1      -8.385   7.384  68.650  1.00  0.00    -0.129 C  
HETATM    5  OXT UNL     1      -9.013   5.440  66.590  1.00  0.00    -0.114 OA 
HETATM    6  CA  UNL     1      -8.497   7.691  67.324  1.00  0.00    -0.121 C  
HETATM    7  C   UNL     1      -8.706   6.587  66.299  1.00  0.00    -0.144 C  
HETATM    8  CA  UNL     1      -8.757  11.060  66.678  1.00  0.00    -0.160 C  
HETATM    9  N   UNL     1      -8.487   9.004  66.929  1.00  0.00    -0.118 N  
HETATM   10  O   UNL     1      -8.465   6.904  65.013  1.00  0.00    -0.094 OA 
HETATM   11  C   UNL     1      -8.822   9.732  65.840  1.00  0.00    -0.150 C  
HETATM   12  O   UNL     1      -9.117   9.358  64.727  1.00  0.00    -0.227 OA 
ENDROOT
BRANCH   4  13
HETATM   13  C   UNL     1      -8.402   5.978  69.252  1.00  0.00    -0.115 C  
BRANCH  13  14
HETATM   14  S   UNL     1      -9.976   5.426  69.952  1.00  0.00    -0.246 SA 
BRANCH  14  15
HETATM   15  C   UNL     1      -9.747   3.758  70.279  1.00  0.00    -0.152 A  
HETATM   16  N   UNL     1      -9.431   2.800  69.442  1.00  0.00    -0.121 NA 
HETATM   17  N   UNL     1      -9.408   1.644  70.185  1.00  0.00    -0.100 NA 
HETATM   18  C   UNL     1     -10.217   3.851  72.772  1.00  0.00    -0.165 C  
HETATM   19  N   UNL     1      -9.900   3.216  71.522  1.00  0.00    -0.158 NA 
HETATM   20  N   UNL     1      -9.693   1.888  71.457  1.00  0.00    -0.141 NA 
ENDBRANCH  14  15
ENDBRANCH  13  14
ENDBRANCH   4  13
BRANCH   8  21
HETATM   21  N   UNL     1     -10.073  11.641  67.055  1.00  0.00    -0.207 N  
HETATM   22  O   UNL     1      -9.375  13.788  67.390  1.00  0.00    -0.210 OA 
HETATM   23  H   UNL     1     -10.869  11.007  67.119  1.00  0.00     0.000 HD 
HETATM   24  C   UNL     1     -10.293  12.974  67.323  1.00  0.00    -0.238 C  
BRANCH  24  25
HETATM   25  C   UNL     1     -11.778  13.342  67.548  1.00  0.00    -0.366 C  
BRANCH  25  26
HETATM   26  O   UNL     1     -12.108  14.391  66.617  1.00  0.00    -0.419 OA 
HETATM   27  O   UNL     1     -12.916  12.812  65.145  1.00  0.00    -0.768 OA 
HETATM   28  C   UNL     1     -12.690  13.965  65.468  1.00  0.00    -0.499 C  
ENDBRANCH  25  26
BRANCH  25  29
HETATM   29  C   UNL     1     -12.027  13.800  68.980  1.00  0.00    -0.399 A  
HETATM   30  C   UNL     1     -12.026  15.169  69.277  1.00  0.00    -0.322 A  
HETATM   31  C   UNL     1     -12.234  15.613  70.583  1.00  0.00    -0.446 A  
HETATM   32  C   UNL     1     -12.461  14.696  71.607  1.00  0.00    -0.410 A  
HETATM   33  C   UNL     1     -12.481  13.333  71.327  1.00  0.00    -0.351 A  
HETATM   34  C   UNL     1     -12.266  12.887  70.024  1.00  0.00    -0.292 A  
ENDBRANCH  25  29
ENDBRANCH  24  25
ENDBRANCH   8  21
TORSDOF 7
ENDMDL
MODEL       99
REMARK 921   NORMALIZED FREE ENERGY PREDICTED BY IDOCK:   -5.21 KCAL/MOL
REMARK 922        TOTAL FREE ENERGY PREDICTED BY IDOCK:   -8.83 KCAL/MOL
REMARK 923 INTER-LIGAND FREE ENERGY PREDICTED BY IDOCK:   -7.52 KCAL/MOL
REMARK 924 INTRA-LIGAND FREE ENERGY PREDICTED BY IDOCK:   -1.32 KCAL/MOL
REMARK 927      BINDING AFFINITY PREDICTED BY RF-SCORE:    0.00 PKD
ROOT
HETATM    1  C   UNL     1      -9.059  10.584  68.695  1.00  0.00    -0.158 C  
HETATM    2  S   UNL     1     -10.548  10.308  67.697  1.00  0.00    -0.283 SA 
HETATM    3  C   UNL     1     -10.448   8.513  67.845  1.00  0.00    -0.201 C  
HETATM    4  C   UNL     1      -9.072   7.925  67.549  1.00  0.00    -0.141 C  
HETATM    5  OXT UNL     1      -6.553   7.001  66.446  1.00  0.00    -0.049 OA 
HETATM    6  CA  UNL     1      -7.911   8.642  67.602  1.00  0.00    -0.107 C  
HETATM    7  C   UNL     1      -6.611   8.028  67.108  1.00  0.00    -0.057 C  
HETATM    8  CA  UNL     1      -8.338  11.953  68.433  1.00  0.00    -0.157 C  
HETATM    9  N   UNL     1      -7.935   9.942  68.037  1.00  0.00    -0.100 N  
HETATM   10  O   UNL     1      -5.471   8.632  67.496  1.00  0.00    -0.037 OA 
HETATM   11  C   UNL     1      -7.140  11.034  67.998  1.00  0.00    -0.077 C  
HETATM   12  O   UNL     1      -5.982  11.130  67.654  1.00  0.00    -0.046 OA 
ENDROOT
BRANCH   4  13
HETATM   13  C   UNL     1      -9.216   6.481  67.067  1.00  0.00    -0.134 C  
BRANCH  13  14
HETATM   14  S   UNL     1     -10.635   5.561  67.709  1.00  0.00    -0.100 SA 
BRANCH  14  15
HETATM   15  C   UNL     1     -10.182   5.119  69.303  1.00  0.00    -0.206 A  
HETATM   16  N   UNL     1      -9.259   4.267  69.681  1.00  0.00    -0.120 NA 
HETATM   17  N   UNL     1      -9.315   4.238  71.054  1.00  0.00    -0.140 NA 
HETATM   18  C   UNL     1     -11.837   6.601  70.532  1.00  0.00    -0.370 C  
HETATM   19  N   UNL     1     -10.790   5.623  70.417  1.00  0.00    -0.285 NA 
HETATM   20  N   UNL     1     -10.248   5.062  71.512  1.00  0.00    -0.205 NA 
ENDBRANCH  14  15
ENDBRANCH  13  14
ENDBRANCH   4  13
BRANCH   8  21
HETATM   21  N   UNL     1      -8.943  12.769  67.347  1.00  0.00    -0.186 N  
HETATM   22  O   UNL     1      -9.838  14.408  68.658  1.00  0.00    -0.227 OA 
HETATM   23  H   UNL     1      -8.870  12.416  66.393  1.00  0.00     0.000 HD 
HETATM   24  C   UNL     1      -9.595  13.967  67.538  1.00  0.00    -0.229 C  
BRANCH  24  25
HETATM   25  C   UNL     1     -10.004  14.686  66.231  1.00  0.00    -0.290 C  
BRANCH  25  26
HETATM   26  O   UNL     1     -10.790  15.836  66.598  1.00  0.00    -0.310 OA 
HETATM   27  O   UNL     1      -9.124  17.214  65.800  1.00  0.00    -0.525 OA 
HETATM   28  C   UNL     1     -10.220  17.030  66.299  1.00  0.00    -0.329 C  
ENDBRANCH  25  26
BRANCH  25  29
HETATM   29  C   UNL     1     -10.798  13.764  65.314  1.00  0.00    -0.326 A  
HETATM   30  C   UNL     1     -12.147  13.509  65.593  1.00  0.00    -0.467 A  
HETATM   31  C   UNL     1     -12.892  12.654  64.779  1.00  0.00    -0.349 A  
HETATM   32  C   UNL     1     -12.304  12.057  63.668  1.00  0.00    -0.648 A  
HETATM   33  C   UNL     1     -10.970  12.312  63.366  1.00  0.00    -0.467 A  
HETATM   34  C   UNL     1     -10.222  13.160  64.182  1.00  0.00    -0.189 A  
ENDBRANCH  25  29
ENDBRANCH  24  25
ENDBRANCH   8  21
TORSDOF 7
ENDMDL
MODEL      100
REMARK 921   NORMALIZED FREE ENERGY PREDICTED BY IDOCK:   -5.20 KCAL/MOL
REMARK 922        TOTAL FREE ENERGY PREDICTED BY IDOCK:   -8.82 KCAL/MOL
REMARK 923 INTER-LIGAND FREE ENERGY PREDICTED BY IDOCK:   -7.60 KCAL/MOL
REMARK 924 INTRA-LIGAND FREE ENERGY PREDICTED BY IDOCK:   -1.22 KCAL/MOL
REMARK 927      BINDING AFFINITY PREDICTED BY RF-SCORE:    0.00 PKD
ROOT
HETATM    1  C   UNL     1      -8.821  12.690  66.582  1.00  0.00    -0.126 C  
HETATM    2  S   UNL     1      -7.397  13.076  67.637  1.00  0.00    -0.152 SA 
HETATM    3  C   UNL     1      -7.378  11.440  68.398  1.00  0.00    -0.095 C  
HETATM    4  C   UNL     1      -8.734  10.955  68.898  1.00  0.00    -0.144 C  
HETATM    5  OXT UNL     1     -11.269  10.474  70.225  1.00  0.00    -0.295 OA 
HETATM    6  CA  UNL     1      -9.929  11.446  68.455  1.00  0.00    -0.204 C  
HETATM    7  C   UNL     1     -11.223  11.041  69.142  1.00  0.00    -0.255 C  
HETATM    8  CA  UNL     1      -9.640  13.939  66.102  1.00  0.00    -0.229 C  
HETATM    9  N   UNL     1      -9.950  12.358  67.431  1.00  0.00    -0.201 N  
HETATM   10  O   UNL     1     -12.365  11.271  68.465  1.00  0.00    -0.543 OA 
HETATM   11  C   UNL     1     -10.810  13.251  66.894  1.00  0.00    -0.276 C  
HETATM   12  O   UNL     1     -11.994  13.400  67.104  1.00  0.00    -0.375 OA 
ENDROOT
BRANCH   4  13
HETATM   13  C   UNL     1      -8.540   9.955  70.039  1.00  0.00    -0.167 C  
BRANCH  13  14
HETATM   14  S   UNL     1      -7.594   8.465  69.645  1.00  0.00    -0.091 SA 
BRANCH  14  15
HETATM   15  C   UNL     1      -8.215   7.942  68.134  1.00  0.00    -0.123 A  
HETATM   16  N   UNL     1      -7.607   7.906  66.972  1.00  0.00    -0.098 NA 
HETATM   17  N   UNL     1      -8.541   7.449  66.073  1.00  0.00    -0.147 NA 
HETATM   18  C   UNL     1     -10.544   7.330  68.936  1.00  0.00    -0.191 C  
HETATM   19  N   UNL     1      -9.496   7.500  67.968  1.00  0.00    -0.142 NA 
HETATM   20  N   UNL     1      -9.698   7.198  66.672  1.00  0.00    -0.184 NA 
ENDBRANCH  14  15
ENDBRANCH  13  14
ENDBRANCH   4  13
BRANCH   8  21
HETATM   21  N   UNL     1      -9.168  15.235  66.659  1.00  0.00    -0.254 N  
HETATM   22  O   UNL     1     -10.106  16.602  65.092  1.00  0.00    -0.539 OA 
HETATM   23  H   UNL     1      -8.564  15.205  67.481  1.00  0.00     0.000 HD 
HETATM   24  C   UNL     1      -9.488  16.472  66.145  1.00  0.00    -0.315 C  
BRANCH  24  25
HETATM   25  C   UNL     1      -8.989  17.664  66.995  1.00  0.00    -0.250 C  
BRANCH  25  26
HETATM   26  O   UNL     1     -10.040  18.650  67.014  1.00  0.00    -0.326 OA 
HETATM   27  O   UNL     1     -10.210  18.404  69.300  1.00  0.00    -0.265 OA 
HETATM   28  C   UNL     1     -10.535  18.925  68.247  1.00  0.00    -0.257 C  
ENDBRANCH  25  26
BRANCH  25  29
HETATM   29  C   UNL     1      -7.708  18.258  66.422  1.00  0.00    -0.289 A  
HETATM   30  C   UNL     1      -6.666  17.405  66.034  1.00  0.00    -0.199 A  
HETATM   31  C   UNL     1      -5.476  17.925  65.523  1.00  0.00    -0.141 A  
HETATM   32  C   UNL     1      -5.317  19.301  65.380  1.00  0.00    -0.188 A  
HETATM   33  C   UNL     1      -6.347  20.161  65.746  1.00  0.00    -0.244 A  
HETATM   34  C   UNL     1      -7.535  19.645  66.263  1.00  0.00    -0.300 A  
ENDBRANCH  25  29
ENDBRANCH  24  25
ENDBRANCH   8  21
TORSDOF 7
ENDMDL
MODEL      101
REMARK 921   NORMALIZED FREE ENERGY PREDICTED BY IDOCK:   -5.19 KCAL/MOL
REMARK 922        TOTAL FREE ENERGY PREDICTED BY IDOCK:   -8.80 KCAL/MOL
REMARK 923 INTER-LIGAND FREE ENERGY PREDICTED BY IDOCK:   -8.07 KCAL/MOL
REMARK 924 INTRA-LIGAND FREE ENERGY PREDICTED BY IDOCK:   -0.73 KCAL/MOL
REMARK 927      BINDING AFFINITY PREDICTED BY RF-SCORE:    0.00 PKD
ROOT
HETATM    1  C   UNL     1     -12.240  14.609  68.432  1.00  0.00    -0.094 C  
HETATM    2  S   UNL     1     -11.332  14.821  69.987  1.00  0.00    -0.250 SA 
HETATM    3  C   UNL     1     -10.858  16.519  69.607  1.00  0.00    -0.322 C  
HETATM    4  C   UNL     1     -10.270  16.720  68.215  1.00  0.00    -0.295 C  
HETATM    5  OXT UNL     1      -8.719  16.767  65.763  1.00  0.00    -0.496 OA 
HETATM    6  CA  UNL     1     -10.467  15.857  67.174  1.00  0.00    -0.313 C  
HETATM    7  C   UNL     1      -9.691  16.034  65.878  1.00  0.00    -0.343 C  
HETATM    8  CA  UNL     1     -12.397  13.121  67.961  1.00  0.00     0.162 C  
HETATM    9  N   UNL     1     -11.316  14.791  67.327  1.00  0.00    -0.347 N  
HETATM   10  O   UNL     1     -10.166  15.387  64.797  1.00  0.00    -0.301 OA 
HETATM   11  C   UNL     1     -11.582  13.618  66.713  1.00  0.00    -0.364 C  
HETATM   12  O   UNL     1     -11.197  13.207  65.640  1.00  0.00    -0.281 OA 
ENDROOT
BRANCH   4  13
HETATM   13  C   UNL     1      -9.343  17.936  68.211  1.00  0.00    -0.286 C  
BRANCH  13  14
HETATM   14  S   UNL     1      -7.603  17.616  68.586  1.00  0.00    -0.266 SA 
BRANCH  14  15
HETATM   15  C   UNL     1      -6.845  19.151  68.478  1.00  0.00    -0.277 A  
HETATM   16  N   UNL     1      -6.504  19.961  69.452  1.00  0.00    -0.336 NA 
HETATM   17  N   UNL     1      -5.971  21.073  68.846  1.00  0.00    -0.267 NA 
HETATM   18  C   UNL     1      -6.662  19.245  65.948  1.00  0.00    -0.248 C  
HETATM   19  N   UNL     1      -6.516  19.738  67.290  1.00  0.00    -0.193 NA 
HETATM   20  N   UNL     1      -5.974  20.946  67.525  1.00  0.00    -0.250 NA 
ENDBRANCH  14  15
ENDBRANCH  13  14
ENDBRANCH   4  13
BRANCH   8  21
HETATM   21  N   UNL     1     -11.703  12.127  68.822  1.00  0.00    -0.306 N  
HETATM   22  O   UNL     1     -11.630  10.414  67.316  1.00  0.00    -0.240 OA 
HETATM   23  H   UNL     1     -11.497  12.396  69.784  1.00  0.00     0.000 HD 
HETATM   24  C   UNL     1     -11.318  10.869  68.413  1.00  0.00    -0.304 C  
BRANCH  24  25
HETATM   25  C   UNL     1     -10.484  10.087  69.455  1.00  0.00    -0.240 C  
BRANCH  25  26
HETATM   26  O   UNL     1     -10.940  10.489  70.762  1.00  0.00    -0.182 OA 
HETATM   27  O   UNL     1     -11.891   8.410  71.055  1.00  0.00    -0.282 OA 
HETATM   28  C   UNL     1     -11.613   9.530  71.446  1.00  0.00    -0.395 C  
ENDBRANCH  25  26
BRANCH  25  29
HETATM   29  C   UNL     1      -8.994  10.366  69.298  1.00  0.00    -0.176 A  
HETATM   30  C   UNL     1      -8.560  11.253  68.305  1.00  0.00    -0.153 A  
HETATM   31  C   UNL     1      -7.199  11.511  68.129  1.00  0.00    -0.080 A  
HETATM   32  C   UNL     1      -6.258  10.898  68.952  1.00  0.00    -0.041 A  
HETATM   33  C   UNL     1      -6.673  10.027  69.954  1.00  0.00    -0.099 A  
HETATM   34  C   UNL     1      -8.031   9.762  70.127  1.00  0.00    -0.201 A  
ENDBRANCH  25  29
ENDBRANCH  24  25
ENDBRANCH   8  21
TORSDOF 7
ENDMDL
MODEL      102
REMARK 921   NORMALIZED FREE ENERGY PREDICTED BY IDOCK:   -5.18 KCAL/MOL
REMARK 922        TOTAL FREE ENERGY PREDICTED BY IDOCK:   -8.79 KCAL/MOL
REMARK 923 INTER-LIGAND FREE ENERGY PREDICTED BY IDOCK:   -8.78 KCAL/MOL
REMARK 924 INTRA-LIGAND FREE ENERGY PREDICTED BY IDOCK:   -0.01 KCAL/MOL
REMARK 927      BINDING AFFINITY PREDICTED BY RF-SCORE:    0.00 PKD
ROOT
HETATM    1  C   UNL     1      -6.842  15.253  67.221  1.00  0.00    -0.073 C  
HETATM    2  S   UNL     1      -8.075  16.223  66.312  1.00  0.00    -0.103 SA 
HETATM    3  C   UNL     1      -7.017  17.681  66.213  1.00  0.00    -0.291 C  
HETATM    4  C   UNL     1      -6.377  18.094  67.534  1.00  0.00    -0.183 C  
HETATM    5  OXT UNL     1      -5.706  18.987  70.212  1.00  0.00    -0.240 OA 
HETATM    6  CA  UNL     1      -6.218  17.253  68.598  1.00  0.00    -0.169 C  
HETATM    7  C   UNL     1      -5.745  17.796  69.938  1.00  0.00    -0.249 C  
HETATM    8  CA  UNL     1      -7.432  14.077  68.075  1.00  0.00    -0.141 C  
HETATM    9  N   UNL     1      -6.552  15.929  68.473  1.00  0.00    -0.116 N  
HETATM   10  O   UNL     1      -5.284  16.895  70.826  1.00  0.00    -0.229 OA 
HETATM   11  C   UNL     1      -6.803  14.871  69.276  1.00  0.00    -0.148 C  
HETATM   12  O   UNL     1      -6.634  14.756  70.470  1.00  0.00    -0.132 OA 
ENDROOT
BRANCH   4  13
HETATM   13  C   UNL     1      -6.074  19.592  67.520  1.00  0.00    -0.193 C  
BRANCH  13  14
HETATM   14  S   UNL     1      -7.456  20.684  67.106  1.00  0.00    -0.302 SA 
BRANCH  14  15
HETATM   15  C   UNL     1      -8.844  19.878  67.710  1.00  0.00    -0.321 A  
HETATM   16  N   UNL     1      -9.046  19.393  68.911  1.00  0.00    -0.360 NA 
HETATM   17  N   UNL     1     -10.291  18.812  68.878  1.00  0.00    -0.194 NA 
HETATM   18  C   UNL     1     -10.223  19.970  65.580  1.00  0.00    -0.258 C  
HETATM   19  N   UNL     1      -9.947  19.621  66.947  1.00  0.00    -0.369 NA 
HETATM   20  N   UNL     1     -10.849  18.946  67.682  1.00  0.00    -0.398 NA 
ENDBRANCH  14  15
ENDBRANCH  13  14
ENDBRANCH   4  13
BRANCH   8  21
HETATM   21  N   UNL     1      -8.917  13.997  68.070  1.00  0.00    -0.174 N  
HETATM   22  O   UNL     1      -9.312  15.539  69.705  1.00  0.00    -0.275 OA 
HETATM   23  H   UNL     1      -9.352  13.315  67.449  1.00  0.00     0.000 HD 
HETATM   24  C   UNL     1      -9.746  14.779  68.843  1.00  0.00    -0.215 C  
BRANCH  24  25
HETATM   25  C   UNL     1     -11.253  14.601  68.542  1.00  0.00    -0.271 C  
BRANCH  25  26
HETATM   26  O   UNL     1     -11.802  13.758  69.575  1.00  0.00    -0.296 OA 
HETATM   27  O   UNL     1     -12.592  15.630  70.664  1.00  0.00    -0.437 OA 
HETATM   28  C   UNL     1     -12.460  14.424  70.557  1.00  0.00    -0.350 C  
ENDBRANCH  25  26
BRANCH  25  29
HETATM   29  C   UNL     1     -11.477  13.981  67.169  1.00  0.00    -0.373 A  
HETATM   30  C   UNL     1     -11.593  14.813  66.048  1.00  0.00    -0.286 A  
HETATM   31  C   UNL     1     -11.817  14.271  64.781  1.00  0.00    -0.436 A  
HETATM   32  C   UNL     1     -11.912  12.891  64.617  1.00  0.00    -0.445 A  
HETATM   33  C   UNL     1     -11.783  12.049  65.717  1.00  0.00    -0.313 A  
HETATM   34  C   UNL     1     -11.567  12.589  66.984  1.00  0.00    -0.437 A  
ENDBRANCH  25  29
ENDBRANCH  24  25
ENDBRANCH   8  21
TORSDOF 7
ENDMDL
MODEL      103
REMARK 921   NORMALIZED FREE ENERGY PREDICTED BY IDOCK:   -5.17 KCAL/MOL
REMARK 922        TOTAL FREE ENERGY PREDICTED BY IDOCK:   -8.79 KCAL/MOL
REMARK 923 INTER-LIGAND FREE ENERGY PREDICTED BY IDOCK:   -7.45 KCAL/MOL
REMARK 924 INTRA-LIGAND FREE ENERGY PREDICTED BY IDOCK:   -1.33 KCAL/MOL
REMARK 927      BINDING AFFINITY PREDICTED BY RF-SCORE:    0.00 PKD
ROOT
HETATM    1  C   UNL     1      -7.589   8.497  68.605  1.00  0.00    -0.098 C  
HETATM    2  S   UNL     1      -7.997   9.498  70.061  1.00  0.00    -0.172 SA 
HETATM    3  C   UNL     1      -7.248   8.328  71.212  1.00  0.00    -0.073 C  
HETATM    4  C   UNL     1      -7.660   6.875  71.002  1.00  0.00    -0.087 C  
HETATM    5  OXT UNL     1      -8.973   4.299  70.759  1.00  0.00    -0.092 OA 
HETATM    6  CA  UNL     1      -8.172   6.391  69.833  1.00  0.00    -0.126 C  
HETATM    7  C   UNL     1      -8.732   4.978  69.771  1.00  0.00    -0.091 C  
HETATM    8  CA  UNL     1      -8.502   8.754  67.355  1.00  0.00    -0.116 C  
HETATM    9  N   UNL     1      -8.241   7.206  68.732  1.00  0.00    -0.121 N  
HETATM   10  O   UNL     1      -8.897   4.447  68.544  1.00  0.00    -0.097 OA 
HETATM   11  C   UNL     1      -8.874   7.239  67.539  1.00  0.00    -0.119 C  
HETATM   12  O   UNL     1      -9.518   6.374  66.987  1.00  0.00    -0.130 OA 
ENDROOT
BRANCH   4  13
HETATM   13  C   UNL     1      -7.537   6.105  72.317  1.00  0.00    -0.096 C  
BRANCH  13  14
HETATM   14  S   UNL     1      -8.523   6.723  73.702  1.00  0.00    -0.125 SA 
BRANCH  14  15
HETATM   15  C   UNL     1     -10.051   7.095  73.018  1.00  0.00    -0.228 A  
HETATM   16  N   UNL     1     -10.459   8.230  72.505  1.00  0.00    -0.333 NA 
HETATM   17  N   UNL     1     -11.767   8.026  72.133  1.00  0.00    -0.322 NA 
HETATM   18  C   UNL     1     -11.119   4.817  73.357  1.00  0.00    -0.344 C  
HETATM   19  N   UNL     1     -11.076   6.195  72.952  1.00  0.00    -0.259 NA 
HETATM   20  N   UNL     1     -12.152   6.786  72.402  1.00  0.00    -0.152 NA 
ENDBRANCH  14  15
ENDBRANCH  13  14
ENDBRANCH   4  13
BRANCH   8  21
HETATM   21  N   UNL     1      -9.611   9.717  67.591  1.00  0.00    -0.143 N  
HETATM   22  O   UNL     1      -8.595  11.571  66.731  1.00  0.00    -0.160 OA 
HETATM   23  H   UNL     1     -10.441   9.373  68.072  1.00  0.00     0.000 HD 
HETATM   24  C   UNL     1      -9.596  11.039  67.205  1.00  0.00    -0.165 C  
BRANCH  24  25
HETATM   25  C   UNL     1     -10.930  11.786  67.438  1.00  0.00    -0.262 C  
BRANCH  25  26
HETATM   26  O   UNL     1     -11.887  10.821  67.917  1.00  0.00    -0.553 OA 
HETATM   27  O   UNL     1     -11.784  11.778  70.012  1.00  0.00    -0.320 OA 
HETATM   28  C   UNL     1     -12.227  10.962  69.223  1.00  0.00    -0.169 C  
ENDBRANCH  25  26
BRANCH  25  29
HETATM   29  C   UNL     1     -11.429  12.446  66.159  1.00  0.00    -0.430 A  
HETATM   30  C   UNL     1     -11.861  13.778  66.194  1.00  0.00    -0.424 A  
HETATM   31  C   UNL     1     -12.339  14.401  65.040  1.00  0.00    -0.401 A  
HETATM   32  C   UNL     1     -12.377  13.705  63.834  1.00  0.00    -0.375 A  
HETATM   33  C   UNL     1     -11.937  12.387  63.777  1.00  0.00    -0.600 A  
HETATM   34  C   UNL     1     -11.465  11.761  64.931  1.00  0.00    -0.269 A  
ENDBRANCH  25  29
ENDBRANCH  24  25
ENDBRANCH   8  21
TORSDOF 7
ENDMDL
MODEL      104
REMARK 921   NORMALIZED FREE ENERGY PREDICTED BY IDOCK:   -5.16 KCAL/MOL
REMARK 922        TOTAL FREE ENERGY PREDICTED BY IDOCK:   -8.76 KCAL/MOL
REMARK 923 INTER-LIGAND FREE ENERGY PREDICTED BY IDOCK:   -7.50 KCAL/MOL
REMARK 924 INTRA-LIGAND FREE ENERGY PREDICTED BY IDOCK:   -1.26 KCAL/MOL
REMARK 927      BINDING AFFINITY PREDICTED BY RF-SCORE:    0.00 PKD
ROOT
HETATM    1  C   UNL     1      -8.836  11.010  68.550  1.00  0.00    -0.159 C  
HETATM    2  S   UNL     1     -10.623  11.244  68.748  1.00  0.00    -0.210 SA 
HETATM    3  C   UNL     1     -10.899   9.543  69.279  1.00  0.00    -0.191 C  
HETATM    4  C   UNL     1     -10.245   8.486  68.395  1.00  0.00    -0.236 C  
HETATM    5  OXT UNL     1      -9.375   6.666  66.310  1.00  0.00    -0.162 OA 
HETATM    6  CA  UNL     1      -9.198   8.738  67.556  1.00  0.00    -0.136 C  
HETATM    7  C   UNL     1      -8.733   7.674  66.574  1.00  0.00    -0.149 C  
HETATM    8  CA  UNL     1      -8.148  12.014  67.558  1.00  0.00    -0.159 C  
HETATM    9  N   UNL     1      -8.611   9.977  67.555  1.00  0.00    -0.122 N  
HETATM   10  O   UNL     1      -7.512   7.844  66.032  1.00  0.00    -0.075 OA 
HETATM   11  C   UNL     1      -7.794  10.706  66.763  1.00  0.00    -0.126 C  
HETATM   12  O   UNL     1      -7.160  10.362  65.789  1.00  0.00    -0.129 OA 
ENDROOT
BRANCH   4  13
HETATM   13  C   UNL     1     -11.018   7.171  68.499  1.00  0.00    -0.027 C  
BRANCH  13  14
HETATM   14  S   UNL     1     -10.788   6.226  70.025  1.00  0.00    -0.359 SA 
BRANCH  14  15
HETATM   15  C   UNL     1      -9.112   6.349  70.365  1.00  0.00    -0.155 A  
HETATM   16  N   UNL     1      -8.116   5.719  69.790  1.00  0.00    -0.102 NA 
HETATM   17  N   UNL     1      -6.981   6.131  70.447  1.00  0.00    -0.057 NA 
HETATM   18  C   UNL     1      -9.286   8.052  72.240  1.00  0.00    -0.197 C  
HETATM   19  N   UNL     1      -8.608   7.151  71.349  1.00  0.00    -0.117 NA 
HETATM   20  N   UNL     1      -7.272   7.005  71.401  1.00  0.00    -0.077 NA 
ENDBRANCH  14  15
ENDBRANCH  13  14
ENDBRANCH   4  13
BRANCH   8  21
HETATM   21  N   UNL     1      -9.087  12.943  66.874  1.00  0.00    -0.224 N  
HETATM   22  O   UNL     1      -7.810  14.829  67.018  1.00  0.00    -0.186 OA 
HETATM   23  H   UNL     1      -9.992  12.573  66.586  1.00  0.00     0.000 HD 
HETATM   24  C   UNL     1      -8.820  14.266  66.602  1.00  0.00    -0.139 C  
BRANCH  24  25
HETATM   25  C   UNL     1      -9.902  14.973  65.754  1.00  0.00    -0.353 C  
BRANCH  25  26
HETATM   26  O   UNL     1     -10.665  15.814  66.641  1.00  0.00    -0.314 OA 
HETATM   27  O   UNL     1      -9.766  17.678  65.626  1.00  0.00    -0.525 OA 
HETATM   28  C   UNL     1     -10.502  17.146  66.437  1.00  0.00    -0.255 C  
ENDBRANCH  25  26
BRANCH  25  29
HETATM   29  C   UNL     1     -10.809  13.967  65.057  1.00  0.00    -0.389 A  
HETATM   30  C   UNL     1     -12.179  13.955  65.351  1.00  0.00    -0.463 A  
HETATM   31  C   UNL     1     -13.028  13.031  64.740  1.00  0.00    -0.207 A  
HETATM   32  C   UNL     1     -12.523  12.118  63.818  1.00  0.00    -0.620 A  
HETATM   33  C   UNL     1     -11.168  12.126  63.502  1.00  0.00    -0.536 A  
HETATM   34  C   UNL     1     -10.316  13.044  64.116  1.00  0.00    -0.345 A  
ENDBRANCH  25  29
ENDBRANCH  24  25
ENDBRANCH   8  21
TORSDOF 7
ENDMDL
MODEL      105
REMARK 921   NORMALIZED FREE ENERGY PREDICTED BY IDOCK:   -5.14 KCAL/MOL
REMARK 922        TOTAL FREE ENERGY PREDICTED BY IDOCK:   -8.74 KCAL/MOL
REMARK 923 INTER-LIGAND FREE ENERGY PREDICTED BY IDOCK:   -7.76 KCAL/MOL
REMARK 924 INTRA-LIGAND FREE ENERGY PREDICTED BY IDOCK:   -0.99 KCAL/MOL
REMARK 927      BINDING AFFINITY PREDICTED BY RF-SCORE:    0.00 PKD
ROOT
HETATM    1  C   UNL     1     -10.581   9.277  68.205  1.00  0.00    -0.189 C  
HETATM    2  S   UNL     1     -11.161  10.098  69.715  1.00  0.00    -0.272 SA 
HETATM    3  C   UNL     1     -11.122  11.741  68.969  1.00  0.00    -0.246 C  
HETATM    4  C   UNL     1      -9.830  12.074  68.231  1.00  0.00    -0.204 C  
HETATM    5  OXT UNL     1      -7.131  12.676  67.354  1.00  0.00    -0.142 OA 
HETATM    6  CA  UNL     1      -8.955  11.134  67.767  1.00  0.00    -0.139 C  
HETATM    7  C   UNL     1      -7.603  11.556  67.212  1.00  0.00    -0.143 C  
HETATM    8  CA  UNL     1      -9.885   7.891  68.438  1.00  0.00    -0.173 C  
HETATM    9  N   UNL     1      -9.271   9.804  67.866  1.00  0.00    -0.125 N  
HETATM   10  O   UNL     1      -6.944  10.647  66.469  1.00  0.00    -0.109 OA 
HETATM   11  C   UNL     1      -8.643   8.609  67.799  1.00  0.00    -0.136 C  
HETATM   12  O   UNL     1      -7.514   8.354  67.439  1.00  0.00    -0.091 OA 
ENDROOT
BRANCH   4  13
HETATM   13  C   UNL     1      -9.616  13.588  68.215  1.00  0.00    -0.218 C  
BRANCH  13  14
HETATM   14  S   UNL     1     -10.894  14.568  67.391  1.00  0.00    -0.298 SA 
BRANCH  14  15
HETATM   15  C   UNL     1     -10.092  16.001  66.895  1.00  0.00    -0.265 A  
HETATM   16  N   UNL     1      -9.472  16.237  65.764  1.00  0.00    -0.477 NA 
HETATM   17  N   UNL     1      -8.966  17.511  65.872  1.00  0.00    -0.520 NA 
HETATM   18  C   UNL     1     -10.520  17.354  69.000  1.00  0.00    -0.285 C  
HETATM   19  N   UNL     1      -9.990  17.108  67.686  1.00  0.00    -0.274 NA 
HETATM   20  N   UNL     1      -9.277  18.050  67.043  1.00  0.00    -0.259 NA 
ENDBRANCH  14  15
ENDBRANCH  13  14
ENDBRANCH   4  13
BRANCH   8  21
HETATM   21  N   UNL     1      -9.736   7.510  69.868  1.00  0.00    -0.171 N  
HETATM   22  O   UNL     1     -11.690   6.350  70.082  1.00  0.00    -0.422 OA 
HETATM   23  H   UNL     1      -8.920   7.861  70.369  1.00  0.00     0.000 HD 
HETATM   24  C   UNL     1     -10.621   6.717  70.564  1.00  0.00    -0.229 C  
BRANCH  24  25
HETATM   25  C   UNL     1     -10.161   6.351  71.995  1.00  0.00    -0.194 C  
BRANCH  25  26
HETATM   26  O   UNL     1      -8.789   6.771  72.127  1.00  0.00    -0.133 OA 
HETATM   27  O   UNL     1      -9.284   7.691  74.183  1.00  0.00    -0.240 OA 
HETATM   28  C   UNL     1      -8.504   7.413  73.288  1.00  0.00    -0.136 C  
ENDBRANCH  25  26
BRANCH  25  29
HETATM   29  C   UNL     1     -10.292   4.856  72.256  1.00  0.00    -0.267 A  
HETATM   30  C   UNL     1     -11.037   4.410  73.355  1.00  0.00    -0.394 A  
HETATM   31  C   UNL     1     -11.156   3.046  73.627  1.00  0.00    -0.323 A  
HETATM   32  C   UNL     1     -10.546   2.111  72.795  1.00  0.00    -0.221 A  
HETATM   33  C   UNL     1      -9.816   2.535  71.690  1.00  0.00    -0.216 A  
HETATM   34  C   UNL     1      -9.689   3.897  71.420  1.00  0.00    -0.246 A  
ENDBRANCH  25  29
ENDBRANCH  24  25
ENDBRANCH   8  21
TORSDOF 7
ENDMDL
MODEL      106
REMARK 921   NORMALIZED FREE ENERGY PREDICTED BY IDOCK:   -5.14 KCAL/MOL
REMARK 922        TOTAL FREE ENERGY PREDICTED BY IDOCK:   -8.73 KCAL/MOL
REMARK 923 INTER-LIGAND FREE ENERGY PREDICTED BY IDOCK:   -7.52 KCAL/MOL
REMARK 924 INTRA-LIGAND FREE ENERGY PREDICTED BY IDOCK:   -1.21 KCAL/MOL
REMARK 927      BINDING AFFINITY PREDICTED BY RF-SCORE:    0.00 PKD
ROOT
HETATM    1  C   UNL     1     -11.793  14.622  67.653  1.00  0.00    -0.337 C  
HETATM    2  S   UNL     1     -10.359  13.763  66.951  1.00  0.00    -0.268 SA 
HETATM    3  C   UNL     1     -11.086  12.128  67.183  1.00  0.00    -0.291 C  
HETATM    4  C   UNL     1     -11.664  11.880  68.572  1.00  0.00    -0.388 C  
HETATM    5  OXT UNL     1     -12.210  11.453  71.389  1.00  0.00    -0.213 OA 
HETATM    6  CA  UNL     1     -12.025  12.874  69.435  1.00  0.00    -0.269 C  
HETATM    7  C   UNL     1     -12.413  12.540  70.867  1.00  0.00    -0.269 C  
HETATM    8  CA  UNL     1     -11.487  16.050  68.226  1.00  0.00    -0.291 C  
HETATM    9  N   UNL     1     -11.972  14.182  69.025  1.00  0.00    -0.341 N  
HETATM   10  O   UNL     1     -13.077  13.492  71.550  1.00  0.00    -0.351 OA 
HETATM   11  C   UNL     1     -11.970  15.414  69.579  1.00  0.00    -0.334 C  
HETATM   12  O   UNL     1     -12.194  15.741  70.724  1.00  0.00    -0.391 OA 
ENDROOT
BRANCH   4  13
HETATM   13  C   UNL     1     -11.646  10.383  68.883  1.00  0.00    -0.139 C  
BRANCH  13  14
HETATM   14  S   UNL     1     -10.105   9.725  69.563  1.00  0.00    -0.233 SA 
BRANCH  14  15
HETATM   15  C   UNL     1      -9.252   9.118  68.203  1.00  0.00    -0.131 A  
HETATM   16  N   UNL     1      -9.719   8.425  67.193  1.00  0.00    -0.173 NA 
HETATM   17  N   UNL     1      -8.634   8.148  66.395  1.00  0.00    -0.132 NA 
HETATM   18  C   UNL     1      -6.957   9.992  68.846  1.00  0.00    -0.062 C  
HETATM   19  N   UNL     1      -7.908   9.287  68.031  1.00  0.00    -0.092 NA 
HETATM   20  N   UNL     1      -7.524   8.671  66.899  1.00  0.00    -0.083 NA 
ENDBRANCH  14  15
ENDBRANCH  13  14
ENDBRANCH   4  13
BRANCH   8  21
HETATM   21  N   UNL     1     -10.051  16.437  68.180  1.00  0.00    -0.244 N  
HETATM   22  O   UNL     1     -10.293  18.596  68.876  1.00  0.00    -0.299 OA 
HETATM   23  H   UNL     1      -9.386  15.744  67.837  1.00  0.00     0.000 HD 
HETATM   24  C   UNL     1      -9.557  17.662  68.567  1.00  0.00    -0.315 C  
BRANCH  24  25
HETATM   25  C   UNL     1      -8.013  17.759  68.557  1.00  0.00    -0.294 C  
BRANCH  25  26
HETATM   26  O   UNL     1      -7.633  18.470  67.363  1.00  0.00    -0.218 OA 
HETATM   27  O   UNL     1      -6.816  20.189  68.663  1.00  0.00    -0.304 OA 
HETATM   28  C   UNL     1      -7.026  19.663  67.584  1.00  0.00    -0.240 C  
ENDBRANCH  25  26
BRANCH  25  29
HETATM   29  C   UNL     1      -7.369  16.379  68.588  1.00  0.00    -0.186 A  
HETATM   30  C   UNL     1      -7.069  15.785  69.821  1.00  0.00    -0.077 A  
HETATM   31  C   UNL     1      -6.462  14.530  69.876  1.00  0.00    -0.161 A  
HETATM   32  C   UNL     1      -6.162  13.845  68.701  1.00  0.00    -0.089 A  
HETATM   33  C   UNL     1      -6.468  14.412  67.468  1.00  0.00    -0.066 A  
HETATM   34  C   UNL     1      -7.068  15.670  67.411  1.00  0.00    -0.241 A  
ENDBRANCH  25  29
ENDBRANCH  24  25
ENDBRANCH   8  21
TORSDOF 7
ENDMDL
MODEL      107
REMARK 921   NORMALIZED FREE ENERGY PREDICTED BY IDOCK:   -5.11 KCAL/MOL
REMARK 922        TOTAL FREE ENERGY PREDICTED BY IDOCK:   -8.70 KCAL/MOL
REMARK 923 INTER-LIGAND FREE ENERGY PREDICTED BY IDOCK:   -7.33 KCAL/MOL
REMARK 924 INTRA-LIGAND FREE ENERGY PREDICTED BY IDOCK:   -1.37 KCAL/MOL
REMARK 927      BINDING AFFINITY PREDICTED BY RF-SCORE:    0.00 PKD
ROOT
HETATM    1  C   UNL     1     -10.065   8.530  68.954  1.00  0.00    -0.203 C  
HETATM    2  S   UNL     1     -10.211   8.749  67.159  1.00  0.00    -0.290 SA 
HETATM    3  C   UNL     1      -9.416   7.172  66.791  1.00  0.00    -0.169 C  
HETATM    4  C   UNL     1      -8.112   6.926  67.541  1.00  0.00    -0.116 C  
HETATM    5  OXT UNL     1      -5.433   6.906  68.657  1.00  0.00    -0.016 OA 
HETATM    6  CA  UNL     1      -7.765   7.569  68.695  1.00  0.00    -0.119 C  
HETATM    7  C   UNL     1      -6.367   7.402  69.272  1.00  0.00    -0.036 C  
HETATM    8  CA  UNL     1     -10.087   9.862  69.782  1.00  0.00    -0.242 C  
HETATM    9  N   UNL     1      -8.659   8.418  69.294  1.00  0.00    -0.129 N  
HETATM   10  O   UNL     1      -6.197   7.767  70.557  1.00  0.00    -0.036 OA 
HETATM   11  C   UNL     1      -8.650   9.403  70.220  1.00  0.00    -0.221 C  
HETATM   12  O   UNL     1      -7.764   9.741  70.974  1.00  0.00    -0.292 OA 
ENDROOT
BRANCH   4  13
HETATM   13  C   UNL     1      -7.224   5.970  66.743  1.00  0.00    -0.071 C  
BRANCH  13  14
HETATM   14  S   UNL     1      -7.755   4.241  66.691  1.00  0.00    -0.094 SA 
BRANCH  14  15
HETATM   15  C   UNL     1      -8.310   3.908  68.279  1.00  0.00    -0.091 A  
HETATM   16  N   UNL     1      -9.544   3.889  68.723  1.00  0.00    -0.148 NA 
HETATM   17  N   UNL     1      -9.456   3.611  70.066  1.00  0.00    -0.183 NA 
HETATM   18  C   UNL     1      -6.038   3.511  69.339  1.00  0.00    -0.027 C  
HETATM   19  N   UNL     1      -7.470   3.631  69.319  1.00  0.00    -0.052 NA 
HETATM   20  N   UNL     1      -8.193   3.452  70.439  1.00  0.00    -0.052 NA 
ENDBRANCH  14  15
ENDBRANCH  13  14
ENDBRANCH   4  13
BRANCH   8  21
HETATM   21  N   UNL     1     -10.138  11.098  68.957  1.00  0.00    -0.326 N  
HETATM   22  O   UNL     1     -12.408  11.259  68.785  1.00  0.00    -0.518 OA 
HETATM   23  H   UNL     1      -9.252  11.502  68.654  1.00  0.00     0.000 HD 
HETATM   24  C   UNL     1     -11.296  11.737  68.572  1.00  0.00    -0.273 C  
BRANCH  24  25
HETATM   25  C   UNL     1     -11.071  13.082  67.842  1.00  0.00    -0.255 C  
BRANCH  25  26
HETATM   26  O   UNL     1     -12.010  14.030  68.386  1.00  0.00    -0.349 OA 
HETATM   27  O   UNL     1     -10.430  15.696  68.172  1.00  0.00    -0.248 OA 
HETATM   28  C   UNL     1     -11.545  15.302  68.469  1.00  0.00    -0.352 C  
ENDBRANCH  25  26
BRANCH  25  29
HETATM   29  C   UNL     1     -11.265  12.937  66.338  1.00  0.00    -0.337 A  
HETATM   30  C   UNL     1     -10.185  12.542  65.538  1.00  0.00    -0.295 A  
HETATM   31  C   UNL     1     -10.332  12.420  64.156  1.00  0.00    -0.409 A  
HETATM   32  C   UNL     1     -11.563  12.676  63.557  1.00  0.00    -0.584 A  
HETATM   33  C   UNL     1     -12.650  13.055  64.338  1.00  0.00    -0.356 A  
HETATM   34  C   UNL     1     -12.504  13.184  65.719  1.00  0.00    -0.441 A  
ENDBRANCH  25  29
ENDBRANCH  24  25
ENDBRANCH   8  21
TORSDOF 7
ENDMDL
MODEL      108
REMARK 921   NORMALIZED FREE ENERGY PREDICTED BY IDOCK:   -5.10 KCAL/MOL
REMARK 922        TOTAL FREE ENERGY PREDICTED BY IDOCK:   -8.68 KCAL/MOL
REMARK 923 INTER-LIGAND FREE ENERGY PREDICTED BY IDOCK:   -7.60 KCAL/MOL
REMARK 924 INTRA-LIGAND FREE ENERGY PREDICTED BY IDOCK:   -1.09 KCAL/MOL
REMARK 927      BINDING AFFINITY PREDICTED BY RF-SCORE:    0.00 PKD
ROOT
HETATM    1  C   UNL     1      -9.428  11.073  66.803  1.00  0.00    -0.182 C  
HETATM    2  S   UNL     1      -7.636  11.223  67.044  1.00  0.00    -0.149 SA 
HETATM    3  C   UNL     1      -7.495   9.604  67.828  1.00  0.00    -0.087 C  
HETATM    4  C   UNL     1      -8.511   9.343  68.936  1.00  0.00    -0.122 C  
HETATM    5  OXT UNL     1     -10.162   9.274  71.320  1.00  0.00    -0.303 OA 
HETATM    6  CA  UNL     1      -9.689  10.020  69.063  1.00  0.00    -0.199 C  
HETATM    7  C   UNL     1     -10.551   9.828  70.301  1.00  0.00    -0.292 C  
HETATM    8  CA  UNL     1     -10.188  12.439  66.668  1.00  0.00    -0.224 C  
HETATM    9  N   UNL     1     -10.059  10.926  68.102  1.00  0.00    -0.168 N  
HETATM   10  O   UNL     1     -11.830  10.240  70.217  1.00  0.00    -0.265 OA 
HETATM   11  C   UNL     1     -10.933  11.947  67.961  1.00  0.00    -0.224 C  
HETATM   12  O   UNL     1     -11.844  12.284  68.685  1.00  0.00    -0.310 OA 
ENDROOT
BRANCH   4  13
HETATM   13  C   UNL     1      -7.948   8.323  69.927  1.00  0.00    -0.108 C  
BRANCH  13  14
HETATM   14  S   UNL     1      -8.600   6.641  69.800  1.00  0.00    -0.137 SA 
BRANCH  14  15
HETATM   15  C   UNL     1      -8.391   6.215  68.152  1.00  0.00    -0.114 A  
HETATM   16  N   UNL     1      -7.361   5.632  67.586  1.00  0.00    -0.076 NA 
HETATM   17  N   UNL     1      -7.665   5.549  66.248  1.00  0.00    -0.098 NA 
HETATM   18  C   UNL     1     -10.625   7.075  67.310  1.00  0.00    -0.325 C  
HETATM   19  N   UNL     1      -9.325   6.475  67.191  1.00  0.00    -0.123 NA 
HETATM   20  N   UNL     1      -8.862   6.062  65.997  1.00  0.00    -0.152 NA 
ENDBRANCH  14  15
ENDBRANCH  13  14
ENDBRANCH   4  13
BRANCH   8  21
HETATM   21  N   UNL     1      -9.330  13.641  66.844  1.00  0.00    -0.250 N  
HETATM   22  O   UNL     1     -10.996  15.196  66.939  1.00  0.00    -0.317 OA 
HETATM   23  H   UNL     1      -8.319  13.507  66.828  1.00  0.00     0.000 HD 
HETATM   24  C   UNL     1      -9.802  14.921  67.027  1.00  0.00    -0.237 C  
BRANCH  24  25
HETATM   25  C   UNL     1      -8.706  15.968  67.331  1.00  0.00    -0.180 C  
BRANCH  25  26
HETATM   26  O   UNL     1      -8.047  15.563  68.546  1.00  0.00    -0.135 OA 
HETATM   27  O   UNL     1      -6.202  14.926  67.318  1.00  0.00    -0.311 OA 
HETATM   28  C   UNL     1      -6.791  15.079  68.375  1.00  0.00    -0.110 C  
ENDBRANCH  25  26
BRANCH  25  29
HETATM   29  C   UNL     1      -9.296  17.365  67.481  1.00  0.00    -0.233 A  
HETATM   30  C   UNL     1      -9.423  17.925  68.759  1.00  0.00    -0.264 A  
HETATM   31  C   UNL     1      -9.977  19.195  68.925  1.00  0.00    -0.481 A  
HETATM   32  C   UNL     1     -10.397  19.927  67.817  1.00  0.00    -0.548 A  
HETATM   33  C   UNL     1     -10.263  19.393  66.540  1.00  0.00    -0.544 A  
HETATM   34  C   UNL     1      -9.716  18.121  66.371  1.00  0.00    -0.329 A  
ENDBRANCH  25  29
ENDBRANCH  24  25
ENDBRANCH   8  21
TORSDOF 7
ENDMDL
MODEL      109
REMARK 921   NORMALIZED FREE ENERGY PREDICTED BY IDOCK:   -5.07 KCAL/MOL
REMARK 922        TOTAL FREE ENERGY PREDICTED BY IDOCK:   -8.64 KCAL/MOL
REMARK 923 INTER-LIGAND FREE ENERGY PREDICTED BY IDOCK:   -7.37 KCAL/MOL
REMARK 924 INTRA-LIGAND FREE ENERGY PREDICTED BY IDOCK:   -1.27 KCAL/MOL
REMARK 927      BINDING AFFINITY PREDICTED BY RF-SCORE:    0.00 PKD
ROOT
HETATM    1  C   UNL     1      -7.597   9.667  66.819  1.00  0.00    -0.098 C  
HETATM    2  S   UNL     1      -8.453   9.473  68.407  1.00  0.00    -0.119 SA 
HETATM    3  C   UNL     1      -7.554   7.968  68.833  1.00  0.00    -0.099 C  
HETATM    4  C   UNL     1      -7.508   6.919  67.728  1.00  0.00    -0.098 C  
HETATM    5  OXT UNL     1      -7.995   4.894  65.708  1.00  0.00    -0.104 OA 
HETATM    6  CA  UNL     1      -7.709   7.197  66.406  1.00  0.00    -0.100 C  
HETATM    7  C   UNL     1      -7.833   6.065  65.398  1.00  0.00    -0.104 C  
HETATM    8  CA  UNL     1      -8.380  10.507  65.750  1.00  0.00    -0.166 C  
HETATM    9  N   UNL     1      -7.866   8.498  66.002  1.00  0.00    -0.096 N  
HETATM   10  O   UNL     1      -7.685   6.393  64.100  1.00  0.00    -0.093 OA 
HETATM   11  C   UNL     1      -8.327   9.171  64.924  1.00  0.00    -0.162 C  
HETATM   12  O   UNL     1      -8.624   8.753  63.827  1.00  0.00    -0.152 OA 
ENDROOT
BRANCH   4  13
HETATM   13  C   UNL     1      -7.339   5.527  68.338  1.00  0.00    -0.076 C  
BRANCH  13  14
HETATM   14  S   UNL     1      -8.854   4.568  68.575  1.00  0.00    -0.108 SA 
BRANCH  14  15
HETATM   15  C   UNL     1      -9.941   5.652  69.341  1.00  0.00    -0.197 A  
HETATM   16  N   UNL     1     -10.013   5.970  70.611  1.00  0.00    -0.180 NA 
HETATM   17  N   UNL     1     -11.071   6.841  70.720  1.00  0.00    -0.260 NA 
HETATM   18  C   UNL     1     -11.235   6.331  67.266  1.00  0.00    -0.158 C  
HETATM   19  N   UNL     1     -10.920   6.323  68.668  1.00  0.00    -0.331 NA 
HETATM   20  N   UNL     1     -11.631   7.063  69.539  1.00  0.00    -0.026 NA 
ENDBRANCH  14  15
ENDBRANCH  13  14
ENDBRANCH   4  13
BRANCH   8  21
HETATM   21  N   UNL     1      -9.736  10.939  66.180  1.00  0.00    -0.202 N  
HETATM   22  O   UNL     1      -9.239  13.121  66.619  1.00  0.00    -0.246 OA 
HETATM   23  H   UNL     1     -10.467  10.229  66.222  1.00  0.00     0.000 HD 
HETATM   24  C   UNL     1     -10.076  12.228  66.523  1.00  0.00    -0.215 C  
BRANCH  24  25
HETATM   25  C   UNL     1     -11.584  12.440  66.792  1.00  0.00    -0.379 C  
BRANCH  25  26
HETATM   26  O   UNL     1     -11.951  13.709  66.216  1.00  0.00    -0.375 OA 
HETATM   27  O   UNL     1     -12.635  12.626  64.299  1.00  0.00    -0.593 OA 
HETATM   28  C   UNL     1     -12.481  13.632  64.969  1.00  0.00    -0.414 C  
ENDBRANCH  25  26
BRANCH  25  29
HETATM   29  C   UNL     1     -11.892  12.420  68.284  1.00  0.00    -0.364 A  
HETATM   30  C   UNL     1     -12.038  13.631  68.974  1.00  0.00    -0.348 A  
HETATM   31  C   UNL     1     -12.303  13.640  70.344  1.00  0.00    -0.415 A  
HETATM   32  C   UNL     1     -12.439  12.441  71.039  1.00  0.00    -0.353 A  
HETATM   33  C   UNL     1     -12.313  11.229  70.367  1.00  0.00    -0.415 A  
HETATM   34  C   UNL     1     -12.042  11.218  68.999  1.00  0.00    -0.325 A  
ENDBRANCH  25  29
ENDBRANCH  24  25
ENDBRANCH   8  21
TORSDOF 7
ENDMDL
MODEL      110
REMARK 921   NORMALIZED FREE ENERGY PREDICTED BY IDOCK:   -5.07 KCAL/MOL
REMARK 922        TOTAL FREE ENERGY PREDICTED BY IDOCK:   -8.64 KCAL/MOL
REMARK 923 INTER-LIGAND FREE ENERGY PREDICTED BY IDOCK:   -7.64 KCAL/MOL
REMARK 924 INTRA-LIGAND FREE ENERGY PREDICTED BY IDOCK:   -1.00 KCAL/MOL
REMARK 927      BINDING AFFINITY PREDICTED BY RF-SCORE:    0.00 PKD
ROOT
HETATM    1  C   UNL     1     -10.564   9.679  67.600  1.00  0.00    -0.275 C  
HETATM    2  S   UNL     1     -11.225  10.510  69.070  1.00  0.00    -0.257 SA 
HETATM    3  C   UNL     1     -10.985  12.160  68.381  1.00  0.00    -0.235 C  
HETATM    4  C   UNL     1      -9.605  12.404  67.782  1.00  0.00    -0.202 C  
HETATM    5  OXT UNL     1      -6.793  12.807  67.189  1.00  0.00    -0.122 OA 
HETATM    6  CA  UNL     1      -8.763  11.408  67.377  1.00  0.00    -0.145 C  
HETATM    7  C   UNL     1      -7.335  11.733  66.968  1.00  0.00    -0.133 C  
HETATM    8  CA  UNL     1     -10.004   8.236  67.858  1.00  0.00    -0.183 C  
HETATM    9  N   UNL     1      -9.190  10.105  67.405  1.00  0.00    -0.141 N  
HETATM   10  O   UNL     1      -6.678  10.790  66.266  1.00  0.00    -0.120 OA 
HETATM   11  C   UNL     1      -8.653   8.866  67.364  1.00  0.00    -0.119 C  
HETATM   12  O   UNL     1      -7.517   8.530  67.108  1.00  0.00    -0.083 OA 
ENDROOT
BRANCH   4  13
HETATM   13  C   UNL     1      -9.273  13.896  67.831  1.00  0.00    -0.198 C  
BRANCH  13  14
HETATM   14  S   UNL     1     -10.680  15.024  67.976  1.00  0.00    -0.269 SA 
BRANCH  14  15
HETATM   15  C   UNL     1     -10.844  15.719  66.417  1.00  0.00    -0.226 A  
HETATM   16  N   UNL     1     -11.111  15.119  65.282  1.00  0.00    -0.368 NA 
HETATM   17  N   UNL     1     -11.095  16.104  64.323  1.00  0.00    -0.661 NA 
HETATM   18  C   UNL     1     -10.406  18.127  67.089  1.00  0.00    -0.379 C  
HETATM   19  N   UNL     1     -10.683  17.053  66.175  1.00  0.00    -0.174 NA 
HETATM   20  N   UNL     1     -10.834  17.288  64.859  1.00  0.00    -0.793 NA 
ENDBRANCH  14  15
ENDBRANCH  13  14
ENDBRANCH   4  13
BRANCH   8  21
HETATM   21  N   UNL     1     -10.028   7.813  69.284  1.00  0.00    -0.178 N  
HETATM   22  O   UNL     1     -11.777   6.354  69.142  1.00  0.00    -0.217 OA 
HETATM   23  H   UNL     1      -9.370   8.261  69.921  1.00  0.00     0.000 HD 
HETATM   24  C   UNL     1     -10.873   6.858  69.804  1.00  0.00    -0.259 C  
BRANCH  24  25
HETATM   25  C   UNL     1     -10.596   6.499  71.282  1.00  0.00    -0.227 C  
BRANCH  25  26
HETATM   26  O   UNL     1     -10.181   7.707  71.950  1.00  0.00    -0.188 OA 
HETATM   27  O   UNL     1     -12.393   8.266  72.282  1.00  0.00    -0.345 OA 
HETATM   28  C   UNL     1     -11.200   8.476  72.410  1.00  0.00    -0.329 C  
ENDBRANCH  25  26
BRANCH  25  29
HETATM   29  C   UNL     1      -9.521   5.425  71.402  1.00  0.00    -0.188 A  
HETATM   30  C   UNL     1      -9.615   4.265  70.622  1.00  0.00    -0.260 A  
HETATM   31  C   UNL     1      -8.654   3.259  70.726  1.00  0.00    -0.115 A  
HETATM   32  C   UNL     1      -7.579   3.406  71.598  1.00  0.00    -0.052 A  
HETATM   33  C   UNL     1      -7.461   4.558  72.369  1.00  0.00    -0.082 A  
HETATM   34  C   UNL     1      -8.424   5.561  72.272  1.00  0.00    -0.122 A  
ENDBRANCH  25  29
ENDBRANCH  24  25
ENDBRANCH   8  21
TORSDOF 7
ENDMDL
MODEL      111
REMARK 921   NORMALIZED FREE ENERGY PREDICTED BY IDOCK:   -5.07 KCAL/MOL
REMARK 922        TOTAL FREE ENERGY PREDICTED BY IDOCK:   -8.63 KCAL/MOL
REMARK 923 INTER-LIGAND FREE ENERGY PREDICTED BY IDOCK:   -7.58 KCAL/MOL
REMARK 924 INTRA-LIGAND FREE ENERGY PREDICTED BY IDOCK:   -1.05 KCAL/MOL
REMARK 927      BINDING AFFINITY PREDICTED BY RF-SCORE:    0.00 PKD
ROOT
HETATM    1  C   UNL     1      -9.070  14.500  66.353  1.00  0.00    -0.185 C  
HETATM    2  S   UNL     1     -10.873  14.625  66.201  1.00  0.00    -0.329 SA 
HETATM    3  C   UNL     1     -10.844  16.419  66.015  1.00  0.00    -0.093 C  
HETATM    4  C   UNL     1      -9.998  17.152  67.051  1.00  0.00    -0.287 C  
HETATM    5  OXT UNL     1      -8.785  18.350  69.399  1.00  0.00     0.173 OA 
HETATM    6  CA  UNL     1      -9.002  16.563  67.776  1.00  0.00    -0.202 C  
HETATM    7  C   UNL     1      -8.340  17.317  68.918  1.00  0.00    -0.174 C  
HETATM    8  CA  UNL     1      -8.563  13.218  67.102  1.00  0.00    -0.193 C  
HETATM    9  N   UNL     1      -8.650  15.264  67.514  1.00  0.00    -0.168 N  
HETATM   10  O   UNL     1      -7.162  16.834  69.359  1.00  0.00    -0.221 OA 
HETATM   11  C   UNL     1      -7.967  14.263  68.113  1.00  0.00    -0.140 C  
HETATM   12  O   UNL     1      -7.269  14.294  69.103  1.00  0.00    -0.119 OA 
ENDROOT
BRANCH   4  13
HETATM   13  C   UNL     1     -10.521  18.577  67.235  1.00  0.00    -0.419 C  
BRANCH  13  14
HETATM   14  S   UNL     1      -9.942  19.804  66.038  1.00  0.00    -0.413 SA 
BRANCH  14  15
HETATM   15  C   UNL     1      -8.405  20.292  66.623  1.00  0.00    -0.235 A  
HETATM   16  N   UNL     1      -8.117  21.297  67.415  1.00  0.00    -0.099 NA 
HETATM   17  N   UNL     1      -6.749  21.287  67.552  1.00  0.00    -0.527 NA 
HETATM   18  C   UNL     1      -7.034  18.494  65.469  1.00  0.00    -0.152 C  
HETATM   19  N   UNL     1      -7.244  19.657  66.287  1.00  0.00    -0.248 NA 
HETATM   20  N   UNL     1      -6.208  20.289  66.866  1.00  0.00    -0.182 NA 
ENDBRANCH  14  15
ENDBRANCH  13  14
ENDBRANCH   4  13
BRANCH   8  21
HETATM   21  N   UNL     1      -9.645  12.352  67.642  1.00  0.00    -0.188 N  
HETATM   22  O   UNL     1      -8.376  11.159  69.117  1.00  0.00    -0.097 OA 
HETATM   23  H   UNL     1     -10.575  12.448  67.236  1.00  0.00     0.000 HD 
HETATM   24  C   UNL     1      -9.480  11.430  68.652  1.00  0.00    -0.163 C  
BRANCH  24  25
HETATM   25  C   UNL     1     -10.792  10.764  69.127  1.00  0.00    -0.237 C  
BRANCH  25  26
HETATM   26  O   UNL     1     -11.503  10.325  67.953  1.00  0.00    -0.346 OA 
HETATM   27  O   UNL     1     -10.278   8.372  67.959  1.00  0.00    -0.194 OA 
HETATM   28  C   UNL     1     -11.144   9.097  67.501  1.00  0.00     0.262 C  
ENDBRANCH  25  26
BRANCH  25  29
HETATM   29  C   UNL     1     -11.645  11.731  69.939  1.00  0.00    -0.351 A  
HETATM   30  C   UNL     1     -11.711  13.078  69.560  1.00  0.00    -0.381 A  
HETATM   31  C   UNL     1     -12.471  13.987  70.297  1.00  0.00    -0.403 A  
HETATM   32  C   UNL     1     -13.186  13.560  71.413  1.00  0.00    -0.348 A  
HETATM   33  C   UNL     1     -13.144  12.223  71.795  1.00  0.00    -0.449 A  
HETATM   34  C   UNL     1     -12.380  11.314  71.064  1.00  0.00    -0.472 A  
ENDBRANCH  25  29
ENDBRANCH  24  25
ENDBRANCH   8  21
TORSDOF 7
ENDMDL
MODEL      112
REMARK 921   NORMALIZED FREE ENERGY PREDICTED BY IDOCK:   -5.06 KCAL/MOL
REMARK 922        TOTAL FREE ENERGY PREDICTED BY IDOCK:   -8.62 KCAL/MOL
REMARK 923 INTER-LIGAND FREE ENERGY PREDICTED BY IDOCK:   -7.40 KCAL/MOL
REMARK 924 INTRA-LIGAND FREE ENERGY PREDICTED BY IDOCK:   -1.23 KCAL/MOL
REMARK 927      BINDING AFFINITY PREDICTED BY RF-SCORE:    0.00 PKD
ROOT
HETATM    1  C   UNL     1     -11.931  13.389  66.711  1.00  0.00    -0.394 C  
HETATM    2  S   UNL     1     -10.388  13.244  65.769  1.00  0.00    -0.290 SA 
HETATM    3  C   UNL     1     -10.471  11.444  65.699  1.00  0.00    -0.262 C  
HETATM    4  C   UNL     1     -10.748  10.767  67.037  1.00  0.00    -0.320 C  
HETATM    5  OXT UNL     1     -10.756   9.691  69.731  1.00  0.00    -0.220 OA 
HETATM    6  CA  UNL     1     -11.320  11.397  68.104  1.00  0.00    -0.304 C  
HETATM    7  C   UNL     1     -11.386  10.703  69.456  1.00  0.00    -0.277 C  
HETATM    8  CA  UNL     1     -12.068  14.708  67.549  1.00  0.00    -0.178 C  
HETATM    9  N   UNL     1     -11.773  12.684  67.970  1.00  0.00    -0.341 N  
HETATM   10  O   UNL     1     -12.246  11.214  70.357  1.00  0.00    -0.318 OA 
HETATM   11  C   UNL     1     -12.128  13.717  68.766  1.00  0.00    -0.297 C  
HETATM   12  O   UNL     1     -12.306  13.738  69.964  1.00  0.00    -0.330 OA 
ENDROOT
BRANCH   4  13
HETATM   13  C   UNL     1     -10.176   9.349  67.030  1.00  0.00    -0.255 C  
BRANCH  13  14
HETATM   14  S   UNL     1      -8.374   9.214  66.941  1.00  0.00    -0.120 SA 
BRANCH  14  15
HETATM   15  C   UNL     1      -7.937   8.287  68.316  1.00  0.00    -0.119 A  
HETATM   16  N   UNL     1      -7.924   6.982  68.448  1.00  0.00    -0.121 NA 
HETATM   17  N   UNL     1      -7.541   6.740  69.746  1.00  0.00    -0.102 NA 
HETATM   18  C   UNL     1      -7.386  10.231  69.853  1.00  0.00    -0.160 C  
HETATM   19  N   UNL     1      -7.554   8.848  69.500  1.00  0.00    -0.078 NA 
HETATM   20  N   UNL     1      -7.313   7.874  70.396  1.00  0.00    -0.067 NA 
ENDBRANCH  14  15
ENDBRANCH  13  14
ENDBRANCH   4  13
BRANCH   8  21
HETATM   21  N   UNL     1     -10.872  15.592  67.504  1.00  0.00    -0.313 N  
HETATM   22  O   UNL     1     -11.208  16.664  69.490  1.00  0.00    -0.235 OA 
HETATM   23  H   UNL     1     -10.286  15.553  66.670  1.00  0.00     0.000 HD 
HETATM   24  C   UNL     1     -10.500  16.459  68.507  1.00  0.00    -0.291 C  
BRANCH  24  25
HETATM   25  C   UNL     1      -9.139  17.156  68.275  1.00  0.00    -0.259 C  
BRANCH  25  26
HETATM   26  O   UNL     1      -8.974  17.320  66.853  1.00  0.00    -0.225 OA 
HETATM   27  O   UNL     1      -9.301  19.589  67.091  1.00  0.00    -0.307 OA 
HETATM   28  C   UNL     1      -9.064  18.602  66.417  1.00  0.00    -0.284 C  
ENDBRANCH  25  26
BRANCH  25  29
HETATM   29  C   UNL     1      -7.991  16.341  68.857  1.00  0.00    -0.230 A  
HETATM   30  C   UNL     1      -8.116  14.949  68.961  1.00  0.00    -0.165 A  
HETATM   31  C   UNL     1      -7.086  14.182  69.506  1.00  0.00    -0.003 A  
HETATM   32  C   UNL     1      -5.912  14.792  69.941  1.00  0.00    -0.132 A  
HETATM   33  C   UNL     1      -5.764  16.171  69.830  1.00  0.00    -0.172 A  
HETATM   34  C   UNL     1      -6.795  16.941  69.292  1.00  0.00    -0.228 A  
ENDBRANCH  25  29
ENDBRANCH  24  25
ENDBRANCH   8  21
TORSDOF 7
ENDMDL
MODEL      113
REMARK 921   NORMALIZED FREE ENERGY PREDICTED BY IDOCK:   -5.06 KCAL/MOL
REMARK 922        TOTAL FREE ENERGY PREDICTED BY IDOCK:   -8.62 KCAL/MOL
REMARK 923 INTER-LIGAND FREE ENERGY PREDICTED BY IDOCK:   -6.95 KCAL/MOL
REMARK 924 INTRA-LIGAND FREE ENERGY PREDICTED BY IDOCK:   -1.67 KCAL/MOL
REMARK 927      BINDING AFFINITY PREDICTED BY RF-SCORE:    0.00 PKD
ROOT
HETATM    1  C   UNL     1     -11.008   8.227  72.018  1.00  0.00    -0.306 C  
HETATM    2  S   UNL     1     -11.949   6.951  71.136  1.00  0.00    -0.378 SA 
HETATM    3  C   UNL     1     -11.564   5.672  72.349  1.00  0.00    -0.221 C  
HETATM    4  C   UNL     1     -10.088   5.573  72.722  1.00  0.00    -0.208 C  
HETATM    5  OXT UNL     1      -7.213   5.222  72.878  1.00  0.00    -0.086 OA 
HETATM    6  CA  UNL     1      -9.189   6.585  72.544  1.00  0.00    -0.135 C  
HETATM    7  C   UNL     1      -7.705   6.336  72.766  1.00  0.00    -0.104 C  
HETATM    8  CA  UNL     1     -10.522   9.420  71.122  1.00  0.00    -0.322 C  
HETATM    9  N   UNL     1      -9.621   7.807  72.097  1.00  0.00    -0.166 N  
HETATM   10  O   UNL     1      -6.925   7.424  72.912  1.00  0.00    -0.067 OA 
HETATM   11  C   UNL     1      -9.094   8.927  71.555  1.00  0.00    -0.229 C  
HETATM   12  O   UNL     1      -7.933   9.252  71.440  1.00  0.00    -0.335 OA 
ENDROOT
BRANCH   4  13
HETATM   13  C   UNL     1      -9.765   4.154  73.189  1.00  0.00    -0.125 C  
BRANCH  13  14
HETATM   14  S   UNL     1     -10.017   2.836  71.976  1.00  0.00    -0.122 SA 
BRANCH  14  15
HETATM   15  C   UNL     1      -8.633   2.903  70.965  1.00  0.00    -0.064 A  
HETATM   16  N   UNL     1      -7.498   2.260  71.095  1.00  0.00    -0.033 NA 
HETATM   17  N   UNL     1      -6.704   2.687  70.057  1.00  0.00    -0.033 NA 
HETATM   18  C   UNL     1      -9.542   4.576  69.286  1.00  0.00    -0.188 C  
HETATM   19  N   UNL     1      -8.557   3.702  69.861  1.00  0.00    -0.059 NA 
HETATM   20  N   UNL     1      -7.342   3.568  69.298  1.00  0.00    -0.049 NA 
ENDBRANCH  14  15
ENDBRANCH  13  14
ENDBRANCH   4  13
BRANCH   8  21
HETATM   21  N   UNL     1     -10.837   9.272  69.676  1.00  0.00    -0.277 N  
HETATM   22  O   UNL     1      -9.468  10.921  68.894  1.00  0.00    -0.188 OA 
HETATM   23  H   UNL     1     -11.546   8.588  69.414  1.00  0.00     0.000 HD 
HETATM   24  C   UNL     1     -10.240   9.994  68.667  1.00  0.00    -0.180 C  
BRANCH  24  25
HETATM   25  C   UNL     1     -10.641   9.547  67.241  1.00  0.00    -0.248 C  
BRANCH  25  26
HETATM   26  O   UNL     1      -9.650   8.603  66.790  1.00  0.00    -0.171 OA 
HETATM   27  O   UNL     1     -11.160   6.889  67.107  1.00  0.00    -0.370 OA 
HETATM   28  C   UNL     1     -10.071   7.313  66.762  1.00  0.00    -0.221 C  
ENDBRANCH  25  26
BRANCH  25  29
HETATM   29  C   UNL     1     -10.723  10.733  66.289  1.00  0.00    -0.205 A  
HETATM   30  C   UNL     1      -9.997  10.707  65.090  1.00  0.00    -0.366 A  
HETATM   31  C   UNL     1     -10.041  11.788  64.209  1.00  0.00    -0.326 A  
HETATM   32  C   UNL     1     -10.821  12.902  64.506  1.00  0.00    -0.385 A  
HETATM   33  C   UNL     1     -11.561  12.939  65.684  1.00  0.00    -0.401 A  
HETATM   34  C   UNL     1     -11.513  11.863  66.569  1.00  0.00    -0.381 A  
ENDBRANCH  25  29
ENDBRANCH  24  25
ENDBRANCH   8  21
TORSDOF 7
ENDMDL
MODEL      114
REMARK 921   NORMALIZED FREE ENERGY PREDICTED BY IDOCK:   -5.04 KCAL/MOL
REMARK 922        TOTAL FREE ENERGY PREDICTED BY IDOCK:   -8.60 KCAL/MOL
REMARK 923 INTER-LIGAND FREE ENERGY PREDICTED BY IDOCK:   -7.58 KCAL/MOL
REMARK 924 INTRA-LIGAND FREE ENERGY PREDICTED BY IDOCK:   -1.02 KCAL/MOL
REMARK 927      BINDING AFFINITY PREDICTED BY RF-SCORE:    0.00 PKD
ROOT
HETATM    1  C   UNL     1      -7.293  10.450  66.535  1.00  0.00    -0.119 C  
HETATM    2  S   UNL     1      -7.882  11.008  68.157  1.00  0.00    -0.122 SA 
HETATM    3  C   UNL     1      -7.141   9.614  69.029  1.00  0.00    -0.066 C  
HETATM    4  C   UNL     1      -7.433   8.250  68.412  1.00  0.00    -0.096 C  
HETATM    5  OXT UNL     1      -8.537   5.770  67.389  1.00  0.00    -0.108 OA 
HETATM    6  CA  UNL     1      -7.817   8.068  67.115  1.00  0.00    -0.105 C  
HETATM    7  C   UNL     1      -8.269   6.697  66.637  1.00  0.00    -0.112 C  
HETATM    8  CA  UNL     1      -8.123  10.984  65.315  1.00  0.00     0.158 C  
HETATM    9  N   UNL     1      -7.859   9.141  66.262  1.00  0.00    -0.102 N  
HETATM   10  O   UNL     1      -8.302   6.501  65.305  1.00  0.00    -0.142 OA 
HETATM   11  C   UNL     1      -8.399   9.458  65.065  1.00  0.00    -0.150 C  
HETATM   12  O   UNL     1      -8.936   8.739  64.250  1.00  0.00    -0.013 OA 
ENDROOT
BRANCH   4  13
HETATM   13  C   UNL     1      -7.357   7.166  69.488  1.00  0.00    -0.089 C  
BRANCH  13  14
HETATM   14  S   UNL     1      -8.813   6.984  70.545  1.00  0.00    -0.155 SA 
BRANCH  14  15
HETATM   15  C   UNL     1      -8.361   7.697  72.038  1.00  0.00    -0.110 A  
HETATM   16  N   UNL     1      -7.205   8.216  72.375  1.00  0.00    -0.095 NA 
HETATM   17  N   UNL     1      -7.340   8.615  73.683  1.00  0.00    -0.371 NA 
HETATM   18  C   UNL     1     -10.579   7.382  73.231  1.00  0.00    -0.392 C  
HETATM   19  N   UNL     1      -9.205   7.784  73.107  1.00  0.00    -0.214 NA 
HETATM   20  N   UNL     1      -8.558   8.354  74.139  1.00  0.00    -0.151 NA 
ENDBRANCH  14  15
ENDBRANCH  13  14
ENDBRANCH   4  13
BRANCH   8  21
HETATM   21  N   UNL     1      -9.312  11.795  65.689  1.00  0.00    -0.358 N  
HETATM   22  O   UNL     1     -10.609  11.287  63.882  1.00  0.00    -0.348 OA 
HETATM   23  H   UNL     1      -9.252  12.361  66.535  1.00  0.00     0.000 HD 
HETATM   24  C   UNL     1     -10.488  11.837  64.974  1.00  0.00    -0.285 C  
BRANCH  24  25
HETATM   25  C   UNL     1     -11.619  12.643  65.653  1.00  0.00    -0.377 C  
BRANCH  25  26
HETATM   26  O   UNL     1     -11.339  14.041  65.444  1.00  0.00    -0.304 OA 
HETATM   27  O   UNL     1     -12.752  14.038  63.623  1.00  0.00    -0.778 OA 
HETATM   28  C   UNL     1     -11.999  14.600  64.398  1.00  0.00    -0.437 C  
ENDBRANCH  25  26
BRANCH  25  29
HETATM   29  C   UNL     1     -11.708  12.332  67.142  1.00  0.00    -0.396 A  
HETATM   30  C   UNL     1     -11.890  13.378  68.056  1.00  0.00    -0.392 A  
HETATM   31  C   UNL     1     -11.956  13.121  69.426  1.00  0.00    -0.347 A  
HETATM   32  C   UNL     1     -11.857  11.815  69.899  1.00  0.00    -0.423 A  
HETATM   33  C   UNL     1     -11.692  10.762  69.005  1.00  0.00    -0.357 A  
HETATM   34  C   UNL     1     -11.619  11.017  67.636  1.00  0.00    -0.228 A  
ENDBRANCH  25  29
ENDBRANCH  24  25
ENDBRANCH   8  21
TORSDOF 7
ENDMDL
MODEL      115
REMARK 921   NORMALIZED FREE ENERGY PREDICTED BY IDOCK:   -5.03 KCAL/MOL
REMARK 922        TOTAL FREE ENERGY PREDICTED BY IDOCK:   -8.59 KCAL/MOL
REMARK 923 INTER-LIGAND FREE ENERGY PREDICTED BY IDOCK:   -7.65 KCAL/MOL
REMARK 924 INTRA-LIGAND FREE ENERGY PREDICTED BY IDOCK:   -0.93 KCAL/MOL
REMARK 927      BINDING AFFINITY PREDICTED BY RF-SCORE:    0.00 PKD
ROOT
HETATM    1  C   UNL     1      -8.693  11.301  68.527  1.00  0.00    -0.156 C  
HETATM    2  S   UNL     1     -10.502  11.426  68.575  1.00  0.00    -0.210 SA 
HETATM    3  C   UNL     1     -10.729   9.650  68.792  1.00  0.00    -0.206 C  
HETATM    4  C   UNL     1      -9.935   8.783  67.820  1.00  0.00    -0.243 C  
HETATM    5  OXT UNL     1      -8.768   7.375  65.567  1.00  0.00    -0.122 OA 
HETATM    6  CA  UNL     1      -8.829   9.214  67.145  1.00  0.00    -0.119 C  
HETATM    7  C   UNL     1      -8.213   8.349  66.057  1.00  0.00    -0.112 C  
HETATM    8  CA  UNL     1      -7.973  12.483  67.789  1.00  0.00    -0.163 C  
HETATM    9  N   UNL     1      -8.317  10.459  67.406  1.00  0.00    -0.121 N  
HETATM   10  O   UNL     1      -6.958   8.657  65.679  1.00  0.00    -0.073 OA 
HETATM   11  C   UNL     1      -7.471  11.342  66.832  1.00  0.00    -0.147 C  
HETATM   12  O   UNL     1      -6.729  11.192  65.886  1.00  0.00    -0.035 OA 
ENDROOT
BRANCH   4  13
HETATM   13  C   UNL     1     -10.638   7.439  67.628  1.00  0.00    -0.239 C  
BRANCH  13  14
HETATM   14  S   UNL     1     -10.205   6.135  68.804  1.00  0.00    -0.206 SA 
BRANCH  14  15
HETATM   15  C   UNL     1     -11.302   6.339  70.106  1.00  0.00    -0.406 A  
HETATM   16  N   UNL     1     -12.398   7.058  70.142  1.00  0.00     0.057 NA 
HETATM   17  N   UNL     1     -12.894   6.924  71.417  1.00  0.00    -0.349 NA 
HETATM   18  C   UNL     1     -10.096   4.860  71.780  1.00  0.00    -0.202 C  
HETATM   19  N   UNL     1     -11.127   5.754  71.327  1.00  0.00    -0.238 NA 
HETATM   20  N   UNL     1     -12.124   6.129  72.148  1.00  0.00    -0.289 NA 
ENDBRANCH  14  15
ENDBRANCH  13  14
ENDBRANCH   4  13
BRANCH   8  21
HETATM   21  N   UNL     1      -8.893  13.475  67.172  1.00  0.00    -0.221 N  
HETATM   22  O   UNL     1      -8.876  15.004  68.865  1.00  0.00    -0.185 OA 
HETATM   23  H   UNL     1      -9.307  13.240  66.270  1.00  0.00     0.000 HD 
HETATM   24  C   UNL     1      -9.227  14.688  67.731  1.00  0.00    -0.196 C  
BRANCH  24  25
HETATM   25  C   UNL     1     -10.087  15.596  66.820  1.00  0.00    -0.272 C  
BRANCH  25  26
HETATM   26  O   UNL     1      -9.800  15.233  65.456  1.00  0.00    -0.341 OA 
HETATM   27  O   UNL     1     -11.998  14.594  65.179  1.00  0.00    -0.368 OA 
HETATM   28  C   UNL     1     -10.867  14.765  64.759  1.00  0.00    -0.376 C  
ENDBRANCH  25  26
BRANCH  25  29
HETATM   29  C   UNL     1      -9.783  17.070  67.058  1.00  0.00    -0.264 A  
HETATM   30  C   UNL     1     -10.720  17.867  67.729  1.00  0.00    -0.339 A  
HETATM   31  C   UNL     1     -10.474  19.224  67.943  1.00  0.00    -0.514 A  
HETATM   32  C   UNL     1      -9.283  19.798  67.503  1.00  0.00    -0.428 A  
HETATM   33  C   UNL     1      -8.336  19.017  66.849  1.00  0.00    -0.289 A  
HETATM   34  C   UNL     1      -8.582  17.663  66.628  1.00  0.00    -0.282 A  
ENDBRANCH  25  29
ENDBRANCH  24  25
ENDBRANCH   8  21
TORSDOF 7
ENDMDL
MODEL      116
REMARK 921   NORMALIZED FREE ENERGY PREDICTED BY IDOCK:   -5.02 KCAL/MOL
REMARK 922        TOTAL FREE ENERGY PREDICTED BY IDOCK:   -8.57 KCAL/MOL
REMARK 923 INTER-LIGAND FREE ENERGY PREDICTED BY IDOCK:   -7.38 KCAL/MOL
REMARK 924 INTRA-LIGAND FREE ENERGY PREDICTED BY IDOCK:   -1.19 KCAL/MOL
REMARK 927      BINDING AFFINITY PREDICTED BY RF-SCORE:    0.00 PKD
ROOT
HETATM    1  C   UNL     1     -11.950  11.438  68.033  1.00  0.00    -0.090 C  
HETATM    2  S   UNL     1     -11.480  12.330  69.541  1.00  0.00    -0.212 SA 
HETATM    3  C   UNL     1     -12.086  13.913  68.925  1.00  0.00    -0.319 C  
HETATM    4  C   UNL     1     -11.624  14.268  67.516  1.00  0.00    -0.390 C  
HETATM    5  OXT UNL     1     -10.215  14.962  65.076  1.00  0.00    -0.380 OA 
HETATM    6  CA  UNL     1     -11.180  13.350  66.607  1.00  0.00    -0.309 C  
HETATM    7  C   UNL     1     -10.561  13.810  65.297  1.00  0.00    -0.353 C  
HETATM    8  CA  UNL     1     -11.147  10.115  67.776  1.00  0.00    -0.227 C  
HETATM    9  N   UNL     1     -11.232  12.014  66.911  1.00  0.00    -0.301 N  
HETATM   10  O   UNL     1     -10.464  12.889  64.318  1.00  0.00    -0.380 OA 
HETATM   11  C   UNL     1     -10.692  10.857  66.468  1.00  0.00    -0.209 C  
HETATM   12  O   UNL     1     -10.053  10.643  65.462  1.00  0.00    -0.255 OA 
ENDROOT
BRANCH   4  13
HETATM   13  C   UNL     1     -11.611  15.786  67.339  1.00  0.00     0.088 C  
BRANCH  13  14
HETATM   14  S   UNL     1     -10.104  16.640  67.859  1.00  0.00    -0.280 SA 
BRANCH  14  15
HETATM   15  C   UNL     1     -10.116  18.117  66.986  1.00  0.00    -0.351 A  
HETATM   16  N   UNL     1     -10.639  18.362  65.809  1.00  0.00    -0.579 NA 
HETATM   17  N   UNL     1     -10.347  19.677  65.535  1.00  0.00    -0.430 NA 
HETATM   18  C   UNL     1      -8.843  19.507  68.685  1.00  0.00    -0.339 C  
HETATM   19  N   UNL     1      -9.524  19.258  67.445  1.00  0.00    -0.303 NA 
HETATM   20  N   UNL     1      -9.666  20.232  66.528  1.00  0.00    -0.409 NA 
ENDBRANCH  14  15
ENDBRANCH  13  14
ENDBRANCH   4  13
BRANCH   8  21
HETATM   21  N   UNL     1     -10.069   9.847  68.766  1.00  0.00    -0.166 N  
HETATM   22  O   UNL     1      -9.417   7.812  67.966  1.00  0.00    -0.143 OA 
HETATM   23  H   UNL     1      -9.931  10.530  69.510  1.00  0.00     0.000 HD 
HETATM   24  C   UNL     1      -9.246   8.744  68.748  1.00  0.00    -0.141 C  
BRANCH  24  25
HETATM   25  C   UNL     1      -8.114   8.776  69.801  1.00  0.00    -0.111 C  
BRANCH  25  26
HETATM   26  O   UNL     1      -8.725   9.003  71.086  1.00  0.00    -0.202 OA 
HETATM   27  O   UNL     1      -8.256   6.825  71.678  1.00  0.00    -0.109 OA 
HETATM   28  C   UNL     1      -8.700   7.933  71.921  1.00  0.00    -0.129 C  
ENDBRANCH  25  26
BRANCH  25  29
HETATM   29  C   UNL     1      -7.097   9.869  69.492  1.00  0.00    -0.082 A  
HETATM   30  C   UNL     1      -6.676  10.064  68.170  1.00  0.00    -0.059 A  
HETATM   31  C   UNL     1      -5.733  11.046  67.863  1.00  0.00    -0.042 A  
HETATM   32  C   UNL     1      -5.211  11.854  68.869  1.00  0.00    -0.050 A  
HETATM   33  C   UNL     1      -5.630  11.685  70.185  1.00  0.00    -0.127 A  
HETATM   34  C   UNL     1      -6.567  10.700  70.495  1.00  0.00     0.013 A  
ENDBRANCH  25  29
ENDBRANCH  24  25
ENDBRANCH   8  21
TORSDOF 7
ENDMDL
MODEL      117
REMARK 921   NORMALIZED FREE ENERGY PREDICTED BY IDOCK:   -5.02 KCAL/MOL
REMARK 922        TOTAL FREE ENERGY PREDICTED BY IDOCK:   -8.56 KCAL/MOL
REMARK 923 INTER-LIGAND FREE ENERGY PREDICTED BY IDOCK:   -7.69 KCAL/MOL
REMARK 924 INTRA-LIGAND FREE ENERGY PREDICTED BY IDOCK:   -0.87 KCAL/MOL
REMARK 927      BINDING AFFINITY PREDICTED BY RF-SCORE:    0.00 PKD
ROOT
HETATM    1  C   UNL     1     -10.188   8.375  69.366  1.00  0.00    -0.208 C  
HETATM    2  S   UNL     1     -10.532   8.453  67.587  1.00  0.00    -0.212 SA 
HETATM    3  C   UNL     1      -9.862   6.808  67.273  1.00  0.00    -0.145 C  
HETATM    4  C   UNL     1      -8.492   6.549  67.891  1.00  0.00    -0.118 C  
HETATM    5  OXT UNL     1      -5.706   6.467  68.696  1.00  0.00    -0.015 OA 
HETATM    6  CA  UNL     1      -7.982   7.264  68.937  1.00  0.00    -0.123 C  
HETATM    7  C   UNL     1      -6.537   7.065  69.365  1.00  0.00    -0.045 C  
HETATM    8  CA  UNL     1     -10.049   9.771  70.069  1.00  0.00    -0.257 C  
HETATM    9  N   UNL     1      -8.758   8.211  69.555  1.00  0.00    -0.141 N  
HETATM   10  O   UNL     1      -6.199   7.525  70.585  1.00  0.00    -0.034 OA 
HETATM   11  C   UNL     1      -8.594   9.267  70.382  1.00  0.00    -0.219 C  
HETATM   12  O   UNL     1      -7.610   9.614  70.998  1.00  0.00    -0.326 OA 
ENDROOT
BRANCH   4  13
HETATM   13  C   UNL     1      -7.752   5.481  67.086  1.00  0.00    -0.100 C  
BRANCH  13  14
HETATM   14  S   UNL     1      -8.471   3.821  67.108  1.00  0.00    -0.103 SA 
BRANCH  14  15
HETATM   15  C   UNL     1      -9.169   3.629  65.553  1.00  0.00    -0.155 A  
HETATM   16  N   UNL     1     -10.285   4.141  65.092  1.00  0.00    -0.225 NA 
HETATM   17  N   UNL     1     -10.421   3.655  63.813  1.00  0.00    -0.249 NA 
HETATM   18  C   UNL     1      -7.383   2.108  64.583  1.00  0.00    -0.058 C  
HETATM   19  N   UNL     1      -8.611   2.854  64.577  1.00  0.00    -0.094 NA 
HETATM   20  N   UNL     1      -9.404   2.869  63.490  1.00  0.00    -0.096 NA 
ENDBRANCH  14  15
ENDBRANCH  13  14
ENDBRANCH   4  13
BRANCH   8  21
HETATM   21  N   UNL     1     -10.136  10.935  69.149  1.00  0.00    -0.312 N  
HETATM   22  O   UNL     1     -12.407  11.157  69.151  1.00  0.00    -0.438 OA 
HETATM   23  H   UNL     1      -9.268  11.283  68.741  1.00  0.00     0.000 HD 
HETATM   24  C   UNL     1     -11.305  11.578  68.808  1.00  0.00    -0.265 C  
BRANCH  24  25
HETATM   25  C   UNL     1     -11.107  12.849  67.949  1.00  0.00    -0.252 C  
BRANCH  25  26
HETATM   26  O   UNL     1     -12.074  13.822  68.390  1.00  0.00    -0.368 OA 
HETATM   27  O   UNL     1     -10.512  15.491  68.090  1.00  0.00    -0.249 OA 
HETATM   28  C   UNL     1     -11.629  15.104  68.386  1.00  0.00    -0.337 C  
ENDBRANCH  25  26
BRANCH  25  29
HETATM   29  C   UNL     1     -11.284  12.552  66.465  1.00  0.00    -0.356 A  
HETATM   30  C   UNL     1     -10.309  11.805  65.791  1.00  0.00    -0.293 A  
HETATM   31  C   UNL     1     -10.439  11.535  64.428  1.00  0.00    -0.380 A  
HETATM   32  C   UNL     1     -11.550  11.993  63.725  1.00  0.00    -0.565 A  
HETATM   33  C   UNL     1     -12.536  12.723  64.383  1.00  0.00    -0.476 A  
HETATM   34  C   UNL     1     -12.405  13.000  65.743  1.00  0.00    -0.477 A  
ENDBRANCH  25  29
ENDBRANCH  24  25
ENDBRANCH   8  21
TORSDOF 7
ENDMDL
MODEL      118
REMARK 921   NORMALIZED FREE ENERGY PREDICTED BY IDOCK:   -5.01 KCAL/MOL
REMARK 922        TOTAL FREE ENERGY PREDICTED BY IDOCK:   -8.55 KCAL/MOL
REMARK 923 INTER-LIGAND FREE ENERGY PREDICTED BY IDOCK:   -7.09 KCAL/MOL
REMARK 924 INTRA-LIGAND FREE ENERGY PREDICTED BY IDOCK:   -1.46 KCAL/MOL
REMARK 927      BINDING AFFINITY PREDICTED BY RF-SCORE:    0.00 PKD
ROOT
HETATM    1  C   UNL     1      -7.984  12.171  67.562  1.00  0.00    -0.163 C  
HETATM    2  S   UNL     1      -7.233  12.642  69.145  1.00  0.00     0.162 SA 
HETATM    3  C   UNL     1      -6.971  10.932  69.656  1.00  0.00    -0.128 C  
HETATM    4  C   UNL     1      -8.189  10.027  69.497  1.00  0.00    -0.173 C  
HETATM    5  OXT UNL     1     -10.739   8.647  69.605  1.00  0.00    -0.229 OA 
HETATM    6  CA  UNL     1      -9.234  10.298  68.662  1.00  0.00    -0.159 C  
HETATM    7  C   UNL     1     -10.490   9.441  68.708  1.00  0.00    -0.212 C  
HETATM    8  CA  UNL     1      -8.927  13.257  66.935  1.00  0.00    -0.207 C  
HETATM    9  N   UNL     1      -9.175  11.386  67.831  1.00  0.00    -0.159 N  
HETATM   10  O   UNL     1     -11.323   9.533  67.654  1.00  0.00     0.061 OA 
HETATM   11  C   UNL     1     -10.021  12.140  67.094  1.00  0.00    -0.200 C  
HETATM   12  O   UNL     1     -11.183  11.942  66.816  1.00  0.00    -0.294 OA 
ENDROOT
BRANCH   4  13
HETATM   13  C   UNL     1      -8.111   8.871  70.496  1.00  0.00    -0.135 C  
BRANCH  13  14
HETATM   14  S   UNL     1      -7.201   7.405  69.953  1.00  0.00    -0.083 SA 
BRANCH  14  15
HETATM   15  C   UNL     1      -8.414   6.281  69.501  1.00  0.00    -0.129 A  
HETATM   16  N   UNL     1      -9.032   5.403  70.254  1.00  0.00    -0.133 NA 
HETATM   17  N   UNL     1      -9.879   4.719  69.415  1.00  0.00    -0.203 NA 
HETATM   18  C   UNL     1      -8.535   6.908  67.044  1.00  0.00    -0.121 C  
HETATM   19  N   UNL     1      -8.878   6.160  68.223  1.00  0.00    -0.114 NA 
HETATM   20  N   UNL     1      -9.792   5.174  68.172  1.00  0.00    -0.147 NA 
ENDBRANCH  14  15
ENDBRANCH  13  14
ENDBRANCH   4  13
BRANCH   8  21
HETATM   21  N   UNL     1      -9.121  14.465  67.780  1.00  0.00    -0.186 N  
HETATM   22  O   UNL     1     -10.812  15.413  66.575  1.00  0.00    -0.309 OA 
HETATM   23  H   UNL     1      -8.492  14.595  68.572  1.00  0.00     0.000 HD 
HETATM   24  C   UNL     1     -10.090  15.421  67.569  1.00  0.00    -0.233 C  
BRANCH  24  25
HETATM   25  C   UNL     1     -10.173  16.500  68.674  1.00  0.00    -0.264 C  
BRANCH  25  26
HETATM   26  O   UNL     1     -11.535  16.534  69.143  1.00  0.00    -0.237 OA 
HETATM   27  O   UNL     1     -10.911  15.321  71.002  1.00  0.00    -0.295 OA 
HETATM   28  C   UNL     1     -11.739  15.916  70.334  1.00  0.00    -0.354 C  
ENDBRANCH  25  26
BRANCH  25  29
HETATM   29  C   UNL     1      -9.752  17.867  68.150  1.00  0.00    -0.320 A  
HETATM   30  C   UNL     1     -10.712  18.708  67.572  1.00  0.00    -0.447 A  
HETATM   31  C   UNL     1     -10.349  19.958  67.067  1.00  0.00    -0.592 A  
HETATM   32  C   UNL     1      -9.028  20.389  67.148  1.00  0.00    -0.453 A  
HETATM   33  C   UNL     1      -8.065  19.573  67.733  1.00  0.00    -0.331 A  
HETATM   34  C   UNL     1      -8.423  18.321  68.232  1.00  0.00    -0.309 A  
ENDBRANCH  25  29
ENDBRANCH  24  25
ENDBRANCH   8  21
TORSDOF 7
ENDMDL
MODEL      119
REMARK 921   NORMALIZED FREE ENERGY PREDICTED BY IDOCK:   -4.97 KCAL/MOL
REMARK 922        TOTAL FREE ENERGY PREDICTED BY IDOCK:   -8.49 KCAL/MOL
REMARK 923 INTER-LIGAND FREE ENERGY PREDICTED BY IDOCK:   -7.63 KCAL/MOL
REMARK 924 INTRA-LIGAND FREE ENERGY PREDICTED BY IDOCK:   -0.86 KCAL/MOL
REMARK 927      BINDING AFFINITY PREDICTED BY RF-SCORE:    0.00 PKD
ROOT
HETATM    1  C   UNL     1      -9.029  11.544  68.449  1.00  0.00    -0.173 C  
HETATM    2  S   UNL     1     -10.800  11.524  68.059  1.00  0.00    -0.230 SA 
HETATM    3  C   UNL     1     -10.888   9.723  68.035  1.00  0.00    -0.223 C  
HETATM    4  C   UNL     1      -9.801   9.043  67.210  1.00  0.00    -0.252 C  
HETATM    5  OXT UNL     1      -7.991   8.011  65.190  1.00  0.00    -0.112 OA 
HETATM    6  CA  UNL     1      -8.616   9.635  66.878  1.00  0.00    -0.128 C  
HETATM    7  C   UNL     1      -7.673   8.958  65.896  1.00  0.00    -0.098 C  
HETATM    8  CA  UNL     1      -8.280  12.858  68.033  1.00  0.00    -0.168 C  
HETATM    9  N   UNL     1      -8.312  10.874  67.379  1.00  0.00    -0.116 N  
HETATM   10  O   UNL     1      -6.402   9.403  65.874  1.00  0.00    -0.065 OA 
HETATM   11  C   UNL     1      -7.449  11.883  67.123  1.00  0.00    -0.146 C  
HETATM   12  O   UNL     1      -6.492  11.905  66.381  1.00  0.00     0.026 OA 
ENDROOT
BRANCH   4  13
HETATM   13  C   UNL     1     -10.295   7.682  66.718  1.00  0.00    -0.273 C  
BRANCH  13  14
HETATM   14  S   UNL     1     -10.619   6.440  67.993  1.00  0.00    -0.286 SA 
BRANCH  14  15
HETATM   15  C   UNL     1      -9.997   4.979  67.346  1.00  0.00    -0.177 A  
HETATM   16  N   UNL     1      -9.919   4.613  66.089  1.00  0.00    -0.223 NA 
HETATM   17  N   UNL     1      -9.385   3.346  66.098  1.00  0.00    -0.162 NA 
HETATM   18  C   UNL     1      -9.356   3.896  69.550  1.00  0.00    -0.176 C  
HETATM   19  N   UNL     1      -9.507   3.969  68.123  1.00  0.00    -0.165 NA 
HETATM   20  N   UNL     1      -9.131   2.944  67.336  1.00  0.00    -0.165 NA 
ENDBRANCH  14  15
ENDBRANCH  13  14
ENDBRANCH   4  13
BRANCH   8  21
HETATM   21  N   UNL     1      -9.124  13.844  67.308  1.00  0.00    -0.217 N  
HETATM   22  O   UNL     1      -9.218  15.430  68.946  1.00  0.00    -0.189 OA 
HETATM   23  H   UNL     1      -9.465  13.585  66.382  1.00  0.00     0.000 HD 
HETATM   24  C   UNL     1      -9.478  15.082  67.797  1.00  0.00    -0.195 C  
BRANCH  24  25
HETATM   25  C   UNL     1     -10.239  15.973  66.787  1.00  0.00    -0.274 C  
BRANCH  25  26
HETATM   26  O   UNL     1      -9.991  15.442  65.471  1.00  0.00    -0.337 OA 
HETATM   27  O   UNL     1     -12.106  14.526  65.455  1.00  0.00    -0.365 OA 
HETATM   28  C   UNL     1     -11.030  14.758  64.931  1.00  0.00    -0.412 C  
ENDBRANCH  25  26
BRANCH  25  29
HETATM   29  C   UNL     1      -9.786  17.425  66.874  1.00  0.00    -0.289 A  
HETATM   30  C   UNL     1     -10.636  18.379  67.449  1.00  0.00    -0.445 A  
HETATM   31  C   UNL     1     -10.252  19.718  67.525  1.00  0.00    -0.572 A  
HETATM   32  C   UNL     1      -9.009  20.119  67.041  1.00  0.00    -0.453 A  
HETATM   33  C   UNL     1      -8.146  19.182  66.482  1.00  0.00    -0.309 A  
HETATM   34  C   UNL     1      -8.530  17.844  66.399  1.00  0.00    -0.263 A  
ENDBRANCH  25  29
ENDBRANCH  24  25
ENDBRANCH   8  21
TORSDOF 7
ENDMDL
MODEL      120
REMARK 921   NORMALIZED FREE ENERGY PREDICTED BY IDOCK:   -4.96 KCAL/MOL
REMARK 922        TOTAL FREE ENERGY PREDICTED BY IDOCK:   -8.48 KCAL/MOL
REMARK 923 INTER-LIGAND FREE ENERGY PREDICTED BY IDOCK:   -7.31 KCAL/MOL
REMARK 924 INTRA-LIGAND FREE ENERGY PREDICTED BY IDOCK:   -1.17 KCAL/MOL
REMARK 927      BINDING AFFINITY PREDICTED BY RF-SCORE:    0.00 PKD
ROOT
HETATM    1  C   UNL     1      -9.698   9.498  67.487  1.00  0.00    -0.155 C  
HETATM    2  S   UNL     1     -10.641  10.374  68.765  1.00  0.00    -0.223 SA 
HETATM    3  C   UNL     1     -10.612  11.940  67.869  1.00  0.00    -0.201 C  
HETATM    4  C   UNL     1      -9.237  12.353  67.355  1.00  0.00    -0.184 C  
HETATM    5  OXT UNL     1      -6.487  13.181  66.941  1.00  0.00     0.002 OA 
HETATM    6  CA  UNL     1      -8.202  11.483  67.166  1.00  0.00    -0.161 C  
HETATM    7  C   UNL     1      -6.814  12.008  66.833  1.00  0.00    -0.035 C  
HETATM    8  CA  UNL     1      -8.933   8.225  67.993  1.00  0.00    -0.138 C  
HETATM    9  N   UNL     1      -8.403  10.139  67.346  1.00  0.00    -0.118 N  
HETATM   10  O   UNL     1      -5.937  11.119  66.329  1.00  0.00    -0.137 OA 
HETATM   11  C   UNL     1      -7.663   9.022  67.525  1.00  0.00    -0.096 C  
HETATM   12  O   UNL     1      -6.467   8.868  67.413  1.00  0.00    -0.056 OA 
ENDROOT
BRANCH   4  13
HETATM   13  C   UNL     1      -9.169  13.875  67.217  1.00  0.00    -0.235 C  
BRANCH  13  14
HETATM   14  S   UNL     1     -10.727  14.768  67.434  1.00  0.00    -0.287 SA 
BRANCH  14  15
HETATM   15  C   UNL     1     -11.162  15.274  65.854  1.00  0.00    -0.237 A  
HETATM   16  N   UNL     1     -10.748  16.329  65.194  1.00  0.00    -0.604 NA 
HETATM   17  N   UNL     1     -11.420  16.309  63.995  1.00  0.00    -0.984 NA 
HETATM   18  C   UNL     1     -12.771  13.379  65.339  1.00  0.00    -0.426 C  
HETATM   19  N   UNL     1     -12.060  14.600  65.077  1.00  0.00    -0.375 NA 
HETATM   20  N   UNL     1     -12.223  15.257  63.914  1.00  0.00    -0.534 NA 
ENDBRANCH  14  15
ENDBRANCH  13  14
ENDBRANCH   4  13
BRANCH   8  21
HETATM   21  N   UNL     1      -9.035   7.988  69.458  1.00  0.00    -0.147 N  
HETATM   22  O   UNL     1      -7.744   6.109  69.555  1.00  0.00    -0.094 OA 
HETATM   23  H   UNL     1      -9.630   8.615  69.998  1.00  0.00     0.000 HD 
HETATM   24  C   UNL     1      -8.383   6.983  70.136  1.00  0.00    -0.138 C  
BRANCH  24  25
HETATM   25  C   UNL     1      -8.541   7.043  71.673  1.00  0.00    -0.116 C  
BRANCH  25  26
HETATM   26  O   UNL     1      -7.220   7.152  72.239  1.00  0.00    -0.071 OA 
HETATM   27  O   UNL     1      -8.007   8.714  73.741  1.00  0.00    -0.407 OA 
HETATM   28  C   UNL     1      -7.121   8.016  73.281  1.00  0.00    -0.112 C  
ENDBRANCH  25  26
BRANCH  25  29
HETATM   29  C   UNL     1      -9.253   5.807  72.209  1.00  0.00    -0.151 A  
HETATM   30  C   UNL     1     -10.654   5.767  72.215  1.00  0.00    -0.264 A  
HETATM   31  C   UNL     1     -11.330   4.654  72.717  1.00  0.00    -0.128 A  
HETATM   32  C   UNL     1     -10.616   3.562  73.203  1.00  0.00    -0.269 A  
HETATM   33  C   UNL     1      -9.225   3.578  73.189  1.00  0.00    -0.114 A  
HETATM   34  C   UNL     1      -8.547   4.692  72.695  1.00  0.00    -0.115 A  
ENDBRANCH  25  29
ENDBRANCH  24  25
ENDBRANCH   8  21
TORSDOF 7
ENDMDL
MODEL      121
REMARK 921   NORMALIZED FREE ENERGY PREDICTED BY IDOCK:   -4.95 KCAL/MOL
REMARK 922        TOTAL FREE ENERGY PREDICTED BY IDOCK:   -8.47 KCAL/MOL
REMARK 923 INTER-LIGAND FREE ENERGY PREDICTED BY IDOCK:   -7.16 KCAL/MOL
REMARK 924 INTRA-LIGAND FREE ENERGY PREDICTED BY IDOCK:   -1.31 KCAL/MOL
REMARK 927      BINDING AFFINITY PREDICTED BY RF-SCORE:    0.00 PKD
ROOT
HETATM    1  C   UNL     1      -8.057  10.293  67.726  1.00  0.00    -0.103 C  
HETATM    2  S   UNL     1      -8.689  11.165  69.185  1.00  0.00     0.169 SA 
HETATM    3  C   UNL     1      -8.326   9.794  70.300  1.00  0.00    -0.138 C  
HETATM    4  C   UNL     1      -8.811   8.433  69.813  1.00  0.00    -0.134 C  
HETATM    5  OXT UNL     1     -10.264   6.073  68.953  1.00  0.00    -0.164 OA 
HETATM    6  CA  UNL     1      -9.089   8.146  68.508  1.00  0.00    -0.136 C  
HETATM    7  C   UNL     1      -9.747   6.825  68.139  1.00  0.00    -0.129 C  
HETATM    8  CA  UNL     1      -8.639  10.794  66.358  1.00  0.00    -0.158 C  
HETATM    9  N   UNL     1      -8.835   9.081  67.538  1.00  0.00    -0.123 N  
HETATM   10  O   UNL     1      -9.681   6.458  66.845  1.00  0.00    -0.141 OA 
HETATM   11  C   UNL     1      -9.179   9.322  66.253  1.00  0.00    -0.186 C  
HETATM   12  O   UNL     1      -9.759   8.606  65.466  1.00  0.00    -0.015 OA 
ENDROOT
BRANCH   4  13
HETATM   13  C   UNL     1      -9.056   7.511  71.008  1.00  0.00    -0.148 C  
BRANCH  13  14
HETATM   14  S   UNL     1      -9.878   8.255  72.438  1.00  0.00    -0.313 SA 
BRANCH  14  15
HETATM   15  C   UNL     1     -11.315   8.946  71.804  1.00  0.00    -0.361 A  
HETATM   16  N   UNL     1     -11.554  10.201  71.512  1.00  0.00    -0.254 NA 
HETATM   17  N   UNL     1     -12.858  10.244  71.077  1.00  0.00    -0.375 NA 
HETATM   18  C   UNL     1     -12.671   6.804  71.670  1.00  0.00    -0.312 C  
HETATM   19  N   UNL     1     -12.438   8.216  71.540  1.00  0.00    -0.303 NA 
HETATM   20  N   UNL     1     -13.406   9.036  71.091  1.00  0.00    -0.181 NA 
ENDBRANCH  14  15
ENDBRANCH  13  14
ENDBRANCH   4  13
BRANCH   8  21
HETATM   21  N   UNL     1      -9.681  11.848  66.482  1.00  0.00    -0.205 N  
HETATM   22  O   UNL     1      -8.284  13.651  66.555  1.00  0.00     0.243 OA 
HETATM   23  H   UNL     1     -10.653  11.547  66.552  1.00  0.00     0.000 HD 
HETATM   24  C   UNL     1      -9.426  13.201  66.510  1.00  0.00    -0.243 C  
BRANCH  24  25
HETATM   25  C   UNL     1     -10.693  14.089  66.498  1.00  0.00    -0.281 C  
BRANCH  25  26
HETATM   26  O   UNL     1     -11.071  14.284  65.121  1.00  0.00    -0.318 OA 
HETATM   27  O   UNL     1     -12.715  12.685  65.360  1.00  0.00    -0.635 OA 
HETATM   28  C   UNL     1     -12.113  13.520  64.707  1.00  0.00    -0.404 C  
ENDBRANCH  25  26
BRANCH  25  29
HETATM   29  C   UNL     1     -10.441  15.428  67.179  1.00  0.00    -0.290 A  
HETATM   30  C   UNL     1     -10.334  16.588  66.401  1.00  0.00    -0.316 A  
HETATM   31  C   UNL     1     -10.085  17.824  66.999  1.00  0.00    -0.337 A  
HETATM   32  C   UNL     1      -9.955  17.920  68.383  1.00  0.00    -0.367 A  
HETATM   33  C   UNL     1     -10.075  16.780  69.172  1.00  0.00    -0.280 A  
HETATM   34  C   UNL     1     -10.316  15.543  68.576  1.00  0.00    -0.225 A  
ENDBRANCH  25  29
ENDBRANCH  24  25
ENDBRANCH   8  21
TORSDOF 7
ENDMDL
MODEL      122
REMARK 921   NORMALIZED FREE ENERGY PREDICTED BY IDOCK:   -4.95 KCAL/MOL
REMARK 922        TOTAL FREE ENERGY PREDICTED BY IDOCK:   -8.47 KCAL/MOL
REMARK 923 INTER-LIGAND FREE ENERGY PREDICTED BY IDOCK:   -7.83 KCAL/MOL
REMARK 924 INTRA-LIGAND FREE ENERGY PREDICTED BY IDOCK:   -0.64 KCAL/MOL
REMARK 927      BINDING AFFINITY PREDICTED BY RF-SCORE:    0.00 PKD
ROOT
HETATM    1  C   UNL     1      -6.520  14.752  67.680  1.00  0.00    -0.139 C  
HETATM    2  S   UNL     1      -7.832  15.468  66.652  1.00  0.00     0.124 SA 
HETATM    3  C   UNL     1      -6.932  17.008  66.381  1.00  0.00    -0.232 C  
HETATM    4  C   UNL     1      -6.362  17.643  67.645  1.00  0.00    -0.173 C  
HETATM    5  OXT UNL     1      -5.838  18.922  70.196  1.00  0.00    -0.249 OA 
HETATM    6  CA  UNL     1      -6.135  16.960  68.804  1.00  0.00    -0.153 C  
HETATM    7  C   UNL     1      -5.746  17.709  70.069  1.00  0.00    -0.246 C  
HETATM    8  CA  UNL     1      -6.998  13.632  68.668  1.00  0.00    -0.103 C  
HETATM    9  N   UNL     1      -6.326  15.602  68.841  1.00  0.00    -0.111 N  
HETATM   10  O   UNL     1      -5.209  16.976  71.064  1.00  0.00    -0.231 OA 
HETATM   11  C   UNL     1      -6.479  14.629  69.766  1.00  0.00    -0.159 C  
HETATM   12  O   UNL     1      -6.320  14.678  70.966  1.00  0.00    -0.057 OA 
ENDROOT
BRANCH   4  13
HETATM   13  C   UNL     1      -6.219  19.153  67.448  1.00  0.00    -0.186 C  
BRANCH  13  14
HETATM   14  S   UNL     1      -7.299  19.905  66.207  1.00  0.00    -0.301 SA 
BRANCH  14  15
HETATM   15  C   UNL     1      -8.855  19.264  66.538  1.00  0.00    -0.346 A  
HETATM   16  N   UNL     1      -9.690  18.685  65.709  1.00  0.00    -0.402 NA 
HETATM   17  N   UNL     1     -10.810  18.389  66.450  1.00  0.00    -0.128 NA 
HETATM   18  C   UNL     1      -8.915  19.825  69.013  1.00  0.00    -0.057 C  
HETATM   19  N   UNL     1      -9.433  19.313  67.773  1.00  0.00    -0.308 NA 
HETATM   20  N   UNL     1     -10.662  18.770  67.712  1.00  0.00    -0.386 NA 
ENDBRANCH  14  15
ENDBRANCH  13  14
ENDBRANCH   4  13
BRANCH   8  21
HETATM   21  N   UNL     1      -8.467  13.395  68.665  1.00  0.00    -0.344 N  
HETATM   22  O   UNL     1      -8.430  11.255  67.874  1.00  0.00    -0.125 OA 
HETATM   23  H   UNL     1      -9.072  14.171  68.934  1.00  0.00     0.000 HD 
HETATM   24  C   UNL     1      -9.067  12.203  68.326  1.00  0.00    -0.191 C  
BRANCH  24  25
HETATM   25  C   UNL     1     -10.598  12.175  68.545  1.00  0.00    -0.233 C  
BRANCH  25  26
HETATM   26  O   UNL     1     -10.958  10.825  68.898  1.00  0.00    -0.206 OA 
HETATM   27  O   UNL     1     -12.096  11.624  70.737  1.00  0.00    -0.364 OA 
HETATM   28  C   UNL     1     -11.727  10.718  70.011  1.00  0.00    -0.336 C  
ENDBRANCH  25  26
BRANCH  25  29
HETATM   29  C   UNL     1     -11.347  12.620  67.296  1.00  0.00    -0.372 A  
HETATM   30  C   UNL     1     -11.459  11.743  66.210  1.00  0.00    -0.296 A  
HETATM   31  C   UNL     1     -12.125  12.134  65.047  1.00  0.00    -0.311 A  
HETATM   32  C   UNL     1     -12.701  13.399  64.961  1.00  0.00    -0.420 A  
HETATM   33  C   UNL     1     -12.613  14.277  66.036  1.00  0.00    -0.335 A  
HETATM   34  C   UNL     1     -11.942  13.892  67.196  1.00  0.00    -0.455 A  
ENDBRANCH  25  29
ENDBRANCH  24  25
ENDBRANCH   8  21
TORSDOF 7
ENDMDL
MODEL      123
REMARK 921   NORMALIZED FREE ENERGY PREDICTED BY IDOCK:   -4.92 KCAL/MOL
REMARK 922        TOTAL FREE ENERGY PREDICTED BY IDOCK:   -8.43 KCAL/MOL
REMARK 923 INTER-LIGAND FREE ENERGY PREDICTED BY IDOCK:   -7.34 KCAL/MOL
REMARK 924 INTRA-LIGAND FREE ENERGY PREDICTED BY IDOCK:   -1.10 KCAL/MOL
REMARK 927      BINDING AFFINITY PREDICTED BY RF-SCORE:    0.00 PKD
ROOT
HETATM    1  C   UNL     1     -10.132   9.923  66.788  1.00  0.00    -0.230 C  
HETATM    2  S   UNL     1     -10.898  10.480  68.335  1.00  0.00    -0.260 SA 
HETATM    3  C   UNL     1     -10.549  12.220  68.011  1.00  0.00    -0.216 C  
HETATM    4  C   UNL     1      -9.114  12.513  67.588  1.00  0.00    -0.187 C  
HETATM    5  OXT UNL     1      -6.250  12.894  67.321  1.00  0.00    -0.251 OA 
HETATM    6  CA  UNL     1      -8.269  11.578  67.063  1.00  0.00    -0.167 C  
HETATM    7  C   UNL     1      -6.801  11.910  66.847  1.00  0.00    -0.075 C  
HETATM    8  CA  UNL     1      -9.640   8.434  66.798  1.00  0.00    -0.219 C  
HETATM    9  N   UNL     1      -8.734  10.316  66.796  1.00  0.00    -0.126 N  
HETATM   10  O   UNL     1      -6.111  11.094  66.027  1.00  0.00    -0.129 OA 
HETATM   11  C   UNL     1      -8.231   9.086  66.552  1.00  0.00    -0.114 C  
HETATM   12  O   UNL     1      -7.088   8.754  66.329  1.00  0.00    -0.080 OA 
ENDROOT
BRANCH   4  13
HETATM   13  C   UNL     1      -8.745  13.949  67.962  1.00  0.00    -0.183 C  
BRANCH  13  14
HETATM   14  S   UNL     1      -8.956  15.193  66.664  1.00  0.00    -0.289 SA 
BRANCH  14  15
HETATM   15  C   UNL     1      -9.374  16.630  67.502  1.00  0.00    -0.219 A  
HETATM   16  N   UNL     1     -10.569  17.101  67.764  1.00  0.00    -0.364 NA 
HETATM   17  N   UNL     1     -10.368  18.294  68.417  1.00  0.00    -0.367 NA 
HETATM   18  C   UNL     1      -7.010  17.421  67.984  1.00  0.00    -0.186 C  
HETATM   19  N   UNL     1      -8.445  17.501  67.995  1.00  0.00    -0.235 NA 
HETATM   20  N   UNL     1      -9.074  18.546  68.562  1.00  0.00    -0.326 NA 
ENDBRANCH  14  15
ENDBRANCH  13  14
ENDBRANCH   4  13
BRANCH   8  21
HETATM   21  N   UNL     1      -9.803   7.741  68.104  1.00  0.00    -0.161 N  
HETATM   22  O   UNL     1      -9.389   5.617  67.378  1.00  0.00    -0.112 OA 
HETATM   23  H   UNL     1     -10.081   8.304  68.907  1.00  0.00     0.000 HD 
HETATM   24  C   UNL     1      -9.605   6.393  68.306  1.00  0.00    -0.123 C  
BRANCH  24  25
HETATM   25  C   UNL     1      -9.698   5.949  69.784  1.00  0.00    -0.160 C  
BRANCH  25  26
HETATM   26  O   UNL     1     -10.196   4.597  69.798  1.00  0.00    -0.234 OA 
HETATM   27  O   UNL     1      -8.316   3.932  70.955  1.00  0.00    -0.066 OA 
HETATM   28  C   UNL     1      -9.397   3.707  70.440  1.00  0.00    -0.168 C  
ENDBRANCH  25  26
BRANCH  25  29
HETATM   29  C   UNL     1     -10.616   6.866  70.584  1.00  0.00    -0.248 A  
HETATM   30  C   UNL     1     -11.996   6.627  70.587  1.00  0.00    -0.404 A  
HETATM   31  C   UNL     1     -12.860   7.463  71.297  1.00  0.00    -0.365 A  
HETATM   32  C   UNL     1     -12.354   8.537  72.025  1.00  0.00    -0.423 A  
HETATM   33  C   UNL     1     -10.984   8.779  72.046  1.00  0.00    -0.438 A  
HETATM   34  C   UNL     1     -10.120   7.950  71.332  1.00  0.00    -0.212 A  
ENDBRANCH  25  29
ENDBRANCH  24  25
ENDBRANCH   8  21
TORSDOF 7
ENDMDL
MODEL      124
REMARK 921   NORMALIZED FREE ENERGY PREDICTED BY IDOCK:   -4.91 KCAL/MOL
REMARK 922        TOTAL FREE ENERGY PREDICTED BY IDOCK:   -8.42 KCAL/MOL
REMARK 923 INTER-LIGAND FREE ENERGY PREDICTED BY IDOCK:   -7.14 KCAL/MOL
REMARK 924 INTRA-LIGAND FREE ENERGY PREDICTED BY IDOCK:   -1.28 KCAL/MOL
REMARK 927      BINDING AFFINITY PREDICTED BY RF-SCORE:    0.00 PKD
ROOT
HETATM    1  C   UNL     1      -8.481   9.358  70.021  1.00  0.00    -0.190 C  
HETATM    2  S   UNL     1      -8.305   8.909  68.273  1.00  0.00    -0.126 SA 
HETATM    3  C   UNL     1      -8.824  10.534  67.688  1.00  0.00    -0.131 C  
HETATM    4  C   UNL     1     -10.100  11.065  68.332  1.00  0.00    -0.194 C  
HETATM    5  OXT UNL     1     -12.782  11.627  69.286  1.00  0.00     0.041 OA 
HETATM    6  CA  UNL     1     -10.589  10.624  69.529  1.00  0.00    -0.230 C  
HETATM    7  C   UNL     1     -11.962  11.070  70.004  1.00  0.00    -0.351 C  
HETATM    8  CA  UNL     1      -8.704   8.146  70.991  1.00  0.00    -0.139 C  
HETATM    9  N   UNL     1      -9.865   9.724  70.267  1.00  0.00    -0.260 N  
HETATM   10  O   UNL     1     -12.238  10.890  71.310  1.00  0.00    -0.341 OA 
HETATM   11  C   UNL     1     -10.065   8.869  71.295  1.00  0.00    -0.295 C  
HETATM   12  O   UNL     1     -11.022   8.763  72.030  1.00  0.00    -0.339 OA 
ENDROOT
BRANCH   4  13
HETATM   13  C   UNL     1     -10.793  12.045  67.384  1.00  0.00    -0.242 C  
BRANCH  13  14
HETATM   14  S   UNL     1      -9.968  12.345  65.802  1.00  0.00    -0.239 SA 
BRANCH  14  15
HETATM   15  C   UNL     1     -10.810  13.674  65.118  1.00  0.00    -0.334 A  
HETATM   16  N   UNL     1     -10.536  14.952  65.220  1.00  0.00    -0.374 NA 
HETATM   17  N   UNL     1     -11.528  15.605  64.528  1.00  0.00    -0.374 NA 
HETATM   18  C   UNL     1     -12.624  12.337  63.948  1.00  0.00    -0.440 C  
HETATM   19  N   UNL     1     -11.939  13.531  64.364  1.00  0.00    -0.403 NA 
HETATM   20  N   UNL     1     -12.390  14.746  64.002  1.00  0.00    -0.755 NA 
ENDBRANCH  14  15
ENDBRANCH  13  14
ENDBRANCH   4  13
BRANCH   8  21
HETATM   21  N   UNL     1      -8.819   6.828  70.313  1.00  0.00    -0.151 N  
HETATM   22  O   UNL     1      -6.789   5.987  70.930  1.00  0.00    -0.058 OA 
HETATM   23  H   UNL     1      -9.654   6.654  69.754  1.00  0.00     0.000 HD 
HETATM   24  C   UNL     1      -7.878   5.825  70.384  1.00  0.00    -0.104 C  
BRANCH  24  25
HETATM   25  C   UNL     1      -8.304   4.501  69.708  1.00  0.00    -0.062 C  
BRANCH  25  26
HETATM   26  O   UNL     1      -7.220   3.565  69.870  1.00  0.00    -0.041 OA 
HETATM   27  O   UNL     1      -8.744   1.902  70.346  1.00  0.00    -0.054 OA 
HETATM   28  C   UNL     1      -7.606   2.299  70.169  1.00  0.00    -0.043 C  
ENDBRANCH  25  26
BRANCH  25  29
HETATM   29  C   UNL     1      -8.619   4.706  68.232  1.00  0.00    -0.105 A  
HETATM   30  C   UNL     1      -7.619   5.181  67.373  1.00  0.00    -0.088 A  
HETATM   31  C   UNL     1      -7.887   5.394  66.020  1.00  0.00    -0.103 A  
HETATM   32  C   UNL     1      -9.152   5.122  65.505  1.00  0.00    -0.157 A  
HETATM   33  C   UNL     1     -10.152   4.634  66.340  1.00  0.00    -0.289 A  
HETATM   34  C   UNL     1      -9.889   4.427  67.694  1.00  0.00    -0.168 A  
ENDBRANCH  25  29
ENDBRANCH  24  25
ENDBRANCH   8  21
TORSDOF 7
ENDMDL
MODEL      125
REMARK 921   NORMALIZED FREE ENERGY PREDICTED BY IDOCK:   -4.91 KCAL/MOL
REMARK 922        TOTAL FREE ENERGY PREDICTED BY IDOCK:   -8.42 KCAL/MOL
REMARK 923 INTER-LIGAND FREE ENERGY PREDICTED BY IDOCK:   -7.22 KCAL/MOL
REMARK 924 INTRA-LIGAND FREE ENERGY PREDICTED BY IDOCK:   -1.20 KCAL/MOL
REMARK 927      BINDING AFFINITY PREDICTED BY RF-SCORE:    0.00 PKD
ROOT
HETATM    1  C   UNL     1      -9.535  11.636  67.090  1.00  0.00    -0.176 C  
HETATM    2  S   UNL     1     -10.588  11.571  65.614  1.00  0.00    -0.269 SA 
HETATM    3  C   UNL     1     -10.017   9.925  65.145  1.00  0.00    -0.208 C  
HETATM    4  C   UNL     1      -8.503   9.750  65.150  1.00  0.00    -0.157 C  
HETATM    5  OXT UNL     1      -5.633   9.803  64.724  1.00  0.00    -0.063 OA 
HETATM    6  CA  UNL     1      -7.646  10.555  65.845  1.00  0.00    -0.148 C  
HETATM    7  C   UNL     1      -6.144  10.428  65.643  1.00  0.00    -0.123 C  
HETATM    8  CA  UNL     1      -9.195  13.084  67.590  1.00  0.00    -0.200 C  
HETATM    9  N   UNL     1      -8.148  11.525  66.675  1.00  0.00    -0.158 N  
HETATM   10  O   UNL     1      -5.359  10.987  66.583  1.00  0.00    -0.064 OA 
HETATM   11  C   UNL     1      -7.715  12.644  67.297  1.00  0.00    -0.140 C  
HETATM   12  O   UNL     1      -6.586  13.063  67.426  1.00  0.00    -0.164 OA 
ENDROOT
BRANCH   4  13
HETATM   13  C   UNL     1      -8.103   8.644  64.173  1.00  0.00    -0.162 C  
BRANCH  13  14
HETATM   14  S   UNL     1      -8.234   6.948  64.787  1.00  0.00     0.011 SA 
BRANCH  14  15
HETATM   15  C   UNL     1      -8.123   7.092  66.493  1.00  0.00    -0.114 A  
HETATM   16  N   UNL     1      -7.048   7.244  67.228  1.00  0.00    -0.088 NA 
HETATM   17  N   UNL     1      -7.485   7.266  68.531  1.00  0.00    -0.103 NA 
HETATM   18  C   UNL     1     -10.605   6.908  66.995  1.00  0.00    -0.333 C  
HETATM   19  N   UNL     1      -9.210   7.039  67.317  1.00  0.00    -0.126 NA 
HETATM   20  N   UNL     1      -8.804   7.142  68.595  1.00  0.00    -0.127 NA 
ENDBRANCH  14  15
ENDBRANCH  13  14
ENDBRANCH   4  13
BRANCH   8  21
HETATM   21  N   UNL     1      -9.720  14.173  66.724  1.00  0.00    -0.267 N  
HETATM   22  O   UNL     1     -10.846  15.331  68.336  1.00  0.00    -0.242 OA 
HETATM   23  H   UNL     1      -9.522  14.121  65.725  1.00  0.00     0.000 HD 
HETATM   24  C   UNL     1     -10.455  15.247  67.174  1.00  0.00    -0.280 C  
BRANCH  24  25
HETATM   25  C   UNL     1     -10.755  16.312  66.095  1.00  0.00    -0.197 C  
BRANCH  25  26
HETATM   26  O   UNL     1     -10.478  15.717  64.812  1.00  0.00    -0.490 OA 
HETATM   27  O   UNL     1     -12.666  15.004  64.684  1.00  0.00    -0.356 OA 
HETATM   28  C   UNL     1     -11.543  15.116  64.225  1.00  0.00    -0.184 C  
ENDBRANCH  25  26
BRANCH  25  29
HETATM   29  C   UNL     1      -9.911  17.564  66.298  1.00  0.00    -0.316 A  
HETATM   30  C   UNL     1     -10.523  18.823  66.253  1.00  0.00    -0.489 A  
HETATM   31  C   UNL     1      -9.770  19.986  66.419  1.00  0.00    -0.557 A  
HETATM   32  C   UNL     1      -8.398  19.905  66.647  1.00  0.00    -0.369 A  
HETATM   33  C   UNL     1      -7.776  18.662  66.711  1.00  0.00    -0.255 A  
HETATM   34  C   UNL     1      -8.526  17.499  66.539  1.00  0.00    -0.300 A  
ENDBRANCH  25  29
ENDBRANCH  24  25
ENDBRANCH   8  21
TORSDOF 7
ENDMDL
MODEL      126
REMARK 921   NORMALIZED FREE ENERGY PREDICTED BY IDOCK:   -4.89 KCAL/MOL
REMARK 922        TOTAL FREE ENERGY PREDICTED BY IDOCK:   -8.38 KCAL/MOL
REMARK 923 INTER-LIGAND FREE ENERGY PREDICTED BY IDOCK:   -7.33 KCAL/MOL
REMARK 924 INTRA-LIGAND FREE ENERGY PREDICTED BY IDOCK:   -1.05 KCAL/MOL
REMARK 927      BINDING AFFINITY PREDICTED BY RF-SCORE:    0.00 PKD
ROOT
HETATM    1  C   UNL     1      -8.962  11.888  68.538  1.00  0.00    -0.115 C  
HETATM    2  S   UNL     1      -7.323  12.038  67.776  1.00  0.00    -0.125 SA 
HETATM    3  C   UNL     1      -7.463  13.824  67.564  1.00  0.00    -0.169 C  
HETATM    4  C   UNL     1      -8.770  14.290  66.932  1.00  0.00    -0.202 C  
HETATM    5  OXT UNL     1     -11.064  14.891  65.260  1.00  0.00    -0.340 OA 
HETATM    6  CA  UNL     1      -9.916  13.548  66.919  1.00  0.00    -0.256 C  
HETATM    7  C   UNL     1     -11.115  14.007  66.104  1.00  0.00    -0.302 C  
HETATM    8  CA  UNL     1      -9.614  10.467  68.419  1.00  0.00    -0.148 C  
HETATM    9  N   UNL     1      -9.958  12.352  67.589  1.00  0.00    -0.197 N  
HETATM   10  O   UNL     1     -12.299  13.438  66.398  1.00  0.00    -0.387 OA 
HETATM   11  C   UNL     1     -10.725  11.240  67.621  1.00  0.00    -0.226 C  
HETATM   12  O   UNL     1     -11.803  11.035  67.108  1.00  0.00    -0.397 OA 
ENDROOT
BRANCH   4  13
HETATM   13  C   UNL     1      -8.556  15.626  66.219  1.00  0.00    -0.230 C  
BRANCH  13  14
HETATM   14  S   UNL     1      -8.526  17.098  67.270  1.00  0.00    -0.200 SA 
BRANCH  14  15
HETATM   15  C   UNL     1      -9.524  18.233  66.458  1.00  0.00    -0.310 A  
HETATM   16  N   UNL     1     -10.506  18.001  65.621  1.00  0.00    -0.621 NA 
HETATM   17  N   UNL     1     -10.957  19.236  65.220  1.00  0.00    -0.375 NA 
HETATM   18  C   UNL     1      -8.460  20.333  67.407  1.00  0.00    -0.339 C  
HETATM   19  N   UNL     1      -9.375  19.583  66.591  1.00  0.00    -0.338 NA 
HETATM   20  N   UNL     1     -10.272  20.209  65.807  1.00  0.00    -0.387 NA 
ENDBRANCH  14  15
ENDBRANCH  13  14
ENDBRANCH   4  13
BRANCH   8  21
HETATM   21  N   UNL     1      -8.821   9.490  67.625  1.00  0.00    -0.119 N  
HETATM   22  O   UNL     1     -10.416   7.869  67.450  1.00  0.00    -0.255 OA 
HETATM   23  H   UNL     1      -7.850   9.726  67.419  1.00  0.00     0.000 HD 
HETATM   24  C   UNL     1      -9.303   8.291  67.150  1.00  0.00    -0.151 C  
BRANCH  24  25
HETATM   25  C   UNL     1      -8.320   7.529  66.231  1.00  0.00    -0.134 C  
BRANCH  25  26
HETATM   26  O   UNL     1      -8.646   7.874  64.870  1.00  0.00    -0.080 OA 
HETATM   27  O   UNL     1      -6.414   8.267  64.450  1.00  0.00    -0.064 OA 
HETATM   28  C   UNL     1      -7.579   8.202  64.099  1.00  0.00    -0.128 C  
ENDBRANCH  25  26
BRANCH  25  29
HETATM   29  C   UNL     1      -8.418   6.023  66.439  1.00  0.00    -0.118 A  
HETATM   30  C   UNL     1      -7.948   5.460  67.633  1.00  0.00    -0.100 A  
HETATM   31  C   UNL     1      -8.010   4.081  67.841  1.00  0.00    -0.089 A  
HETATM   32  C   UNL     1      -8.556   3.250  66.866  1.00  0.00    -0.120 A  
HETATM   33  C   UNL     1      -9.043   3.793  65.682  1.00  0.00    -0.147 A  
HETATM   34  C   UNL     1      -8.976   5.170  65.469  1.00  0.00    -0.156 A  
ENDBRANCH  25  29
ENDBRANCH  24  25
ENDBRANCH   8  21
TORSDOF 7
ENDMDL
MODEL      127
REMARK 921   NORMALIZED FREE ENERGY PREDICTED BY IDOCK:   -4.88 KCAL/MOL
REMARK 922        TOTAL FREE ENERGY PREDICTED BY IDOCK:   -8.37 KCAL/MOL
REMARK 923 INTER-LIGAND FREE ENERGY PREDICTED BY IDOCK:   -7.14 KCAL/MOL
REMARK 924 INTRA-LIGAND FREE ENERGY PREDICTED BY IDOCK:   -1.24 KCAL/MOL
REMARK 927      BINDING AFFINITY PREDICTED BY RF-SCORE:    0.00 PKD
ROOT
HETATM    1  C   UNL     1     -10.372   8.995  68.602  1.00  0.00    -0.209 C  
HETATM    2  S   UNL     1      -8.859   9.506  67.742  1.00  0.00    -0.118 SA 
HETATM    3  C   UNL     1      -7.882   8.152  68.426  1.00  0.00    -0.118 C  
HETATM    4  C   UNL     1      -8.015   7.971  69.934  1.00  0.00    -0.111 C  
HETATM    5  OXT UNL     1      -8.011   8.146  72.831  1.00  0.00    -0.139 OA 
HETATM    6  CA  UNL     1      -9.065   8.443  70.668  1.00  0.00    -0.156 C  
HETATM    7  C   UNL     1      -9.024   8.383  72.187  1.00  0.00    -0.223 C  
HETATM    8  CA  UNL     1     -11.419  10.142  68.823  1.00  0.00    -0.047 C  
HETATM    9  N   UNL     1     -10.127   9.033  70.032  1.00  0.00    -0.187 N  
HETATM   10  O   UNL     1     -10.198   8.536  72.830  1.00  0.00    -0.256 OA 
HETATM   11  C   UNL     1     -11.174   9.828  70.343  1.00  0.00    -0.300 C  
HETATM   12  O   UNL     1     -11.595  10.154  71.431  1.00  0.00    -0.348 OA 
ENDROOT
BRANCH   4  13
HETATM   13  C   UNL     1      -6.753   7.312  70.492  1.00  0.00    -0.048 C  
BRANCH  13  14
HETATM   14  S   UNL     1      -6.695   5.505  70.420  1.00  0.00    -0.049 SA 
BRANCH  14  15
HETATM   15  C   UNL     1      -7.727   4.985  71.687  1.00  0.00    -0.106 A  
HETATM   16  N   UNL     1      -7.427   4.769  72.945  1.00  0.00    -0.088 NA 
HETATM   17  N   UNL     1      -8.586   4.329  73.538  1.00  0.00    -0.093 NA 
HETATM   18  C   UNL     1      -9.856   4.806  70.317  1.00  0.00    -0.242 C  
HETATM   19  N   UNL     1      -9.050   4.703  71.502  1.00  0.00    -0.132 NA 
HETATM   20  N   UNL     1      -9.583   4.285  72.664  1.00  0.00    -0.127 NA 
ENDBRANCH  14  15
ENDBRANCH  13  14
ENDBRANCH   4  13
BRANCH   8  21
HETATM   21  N   UNL     1     -10.967  11.484  68.368  1.00  0.00    -0.204 N  
HETATM   22  O   UNL     1     -12.348  12.736  69.684  1.00  0.00    -0.154 OA 
HETATM   23  H   UNL     1     -10.269  11.522  67.625  1.00  0.00     0.000 HD 
HETATM   24  C   UNL     1     -11.424  12.679  68.878  1.00  0.00    -0.306 C  
BRANCH  24  25
HETATM   25  C   UNL     1     -10.689  13.927  68.334  1.00  0.00    -0.257 C  
BRANCH  25  26
HETATM   26  O   UNL     1     -10.941  15.010  69.251  1.00  0.00    -0.241 OA 
HETATM   27  O   UNL     1      -8.670  15.280  69.537  1.00  0.00    -0.241 OA 
HETATM   28  C   UNL     1      -9.826  15.598  69.753  1.00  0.00    -0.257 C  
ENDBRANCH  25  26
BRANCH  25  29
HETATM   29  C   UNL     1     -11.166  14.288  66.933  1.00  0.00    -0.333 A  
HETATM   30  C   UNL     1     -12.316  13.676  66.418  1.00  0.00    -0.441 A  
HETATM   31  C   UNL     1     -12.764  13.977  65.130  1.00  0.00    -0.419 A  
HETATM   32  C   UNL     1     -12.078  14.903  64.349  1.00  0.00    -0.417 A  
HETATM   33  C   UNL     1     -10.944  15.532  64.851  1.00  0.00    -0.452 A  
HETATM   34  C   UNL     1     -10.490  15.228  66.134  1.00  0.00    -0.318 A  
ENDBRANCH  25  29
ENDBRANCH  24  25
ENDBRANCH   8  21
TORSDOF 7
ENDMDL
MODEL      128
REMARK 921   NORMALIZED FREE ENERGY PREDICTED BY IDOCK:   -4.87 KCAL/MOL
REMARK 922        TOTAL FREE ENERGY PREDICTED BY IDOCK:   -8.36 KCAL/MOL
REMARK 923 INTER-LIGAND FREE ENERGY PREDICTED BY IDOCK:   -7.34 KCAL/MOL
REMARK 924 INTRA-LIGAND FREE ENERGY PREDICTED BY IDOCK:   -1.02 KCAL/MOL
REMARK 927      BINDING AFFINITY PREDICTED BY RF-SCORE:    0.00 PKD
ROOT
HETATM    1  C   UNL     1      -9.976   9.187  66.697  1.00  0.00    -0.273 C  
HETATM    2  S   UNL     1     -11.053  10.160  67.784  1.00  0.00    -0.124 SA 
HETATM    3  C   UNL     1     -10.690  11.712  66.938  1.00  0.00    -0.257 C  
HETATM    4  C   UNL     1      -9.207  11.978  66.707  1.00  0.00    -0.201 C  
HETATM    5  OXT UNL     1      -6.359  12.515  66.846  1.00  0.00    -0.176 OA 
HETATM    6  CA  UNL     1      -8.250  11.005  66.706  1.00  0.00    -0.149 C  
HETATM    7  C   UNL     1      -6.777  11.381  66.656  1.00  0.00    -0.112 C  
HETATM    8  CA  UNL     1      -9.458   7.843  67.318  1.00  0.00    -0.149 C  
HETATM    9  N   UNL     1      -8.619   9.689  66.819  1.00  0.00    -0.133 N  
HETATM   10  O   UNL     1      -5.915  10.404  66.315  1.00  0.00    -0.068 OA 
HETATM   11  C   UNL     1      -8.046   8.502  67.119  1.00  0.00    -0.104 C  
HETATM   12  O   UNL     1      -6.873   8.224  67.237  1.00  0.00    -0.068 OA 
ENDROOT
BRANCH   4  13
HETATM   13  C   UNL     1      -8.958  13.484  66.612  1.00  0.00    -0.117 C  
BRANCH  13  14
HETATM   14  S   UNL     1     -10.323  14.554  67.125  1.00  0.00    -0.267 SA 
BRANCH  14  15
HETATM   15  C   UNL     1     -10.917  15.232  65.665  1.00  0.00    -0.344 A  
HETATM   16  N   UNL     1     -10.454  16.262  64.998  1.00  0.00    -0.634 NA 
HETATM   17  N   UNL     1     -11.300  16.426  63.927  1.00  0.00    -0.948 NA 
HETATM   18  C   UNL     1     -12.859  13.631  65.333  1.00  0.00    -0.389 C  
HETATM   19  N   UNL     1     -12.018  14.753  65.016  1.00  0.00    -0.349 NA 
HETATM   20  N   UNL     1     -12.258  15.510  63.930  1.00  0.00    -0.514 NA 
ENDBRANCH  14  15
ENDBRANCH  13  14
ENDBRANCH   4  13
BRANCH   8  21
HETATM   21  N   UNL     1      -9.865   7.621  68.731  1.00  0.00    -0.160 N  
HETATM   22  O   UNL     1      -8.500   5.846  69.169  1.00  0.00    -0.111 OA 
HETATM   23  H   UNL     1     -10.608   8.210  69.108  1.00  0.00     0.000 HD 
HETATM   24  C   UNL     1      -9.311   6.678  69.568  1.00  0.00    -0.145 C  
BRANCH  24  25
HETATM   25  C   UNL     1      -9.810   6.751  71.030  1.00  0.00    -0.182 C  
BRANCH  25  26
HETATM   26  O   UNL     1     -10.956   7.625  71.052  1.00  0.00    -0.240 OA 
HETATM   27  O   UNL     1     -12.284   5.847  71.676  1.00  0.00     0.046 OA 
HETATM   28  C   UNL     1     -12.118   7.025  71.414  1.00  0.00    -0.355 C  
ENDBRANCH  25  26
BRANCH  25  29
HETATM   29  C   UNL     1      -8.724   7.268  71.964  1.00  0.00    -0.129 A  
HETATM   30  C   UNL     1      -8.867   7.101  73.348  1.00  0.00    -0.175 A  
HETATM   31  C   UNL     1      -7.895   7.581  74.226  1.00  0.00    -0.193 A  
HETATM   32  C   UNL     1      -6.760   8.220  73.733  1.00  0.00    -0.147 A  
HETATM   33  C   UNL     1      -6.593   8.380  72.361  1.00  0.00    -0.095 A  
HETATM   34  C   UNL     1      -7.567   7.907  71.482  1.00  0.00    -0.083 A  
ENDBRANCH  25  29
ENDBRANCH  24  25
ENDBRANCH   8  21
TORSDOF 7
ENDMDL
MODEL      129
REMARK 921   NORMALIZED FREE ENERGY PREDICTED BY IDOCK:   -4.86 KCAL/MOL
REMARK 922        TOTAL FREE ENERGY PREDICTED BY IDOCK:   -8.34 KCAL/MOL
REMARK 923 INTER-LIGAND FREE ENERGY PREDICTED BY IDOCK:   -6.89 KCAL/MOL
REMARK 924 INTRA-LIGAND FREE ENERGY PREDICTED BY IDOCK:   -1.45 KCAL/MOL
REMARK 927      BINDING AFFINITY PREDICTED BY RF-SCORE:    0.00 PKD
ROOT
HETATM    1  C   UNL     1      -8.922  10.185  69.203  1.00  0.00    -0.175 C  
HETATM    2  S   UNL     1     -10.619  10.346  69.821  1.00  0.00    -0.237 SA 
HETATM    3  C   UNL     1     -10.766   8.589  70.199  1.00  0.00    -0.235 C  
HETATM    4  C   UNL     1     -10.327   7.657  69.075  1.00  0.00    -0.220 C  
HETATM    5  OXT UNL     1      -9.945   6.109  66.651  1.00  0.00    -0.161 OA 
HETATM    6  CA  UNL     1      -9.495   8.030  68.058  1.00  0.00    -0.146 C  
HETATM    7  C   UNL     1      -9.262   7.097  66.880  1.00  0.00    -0.148 C  
HETATM    8  CA  UNL     1      -8.476  11.312  68.207  1.00  0.00    -0.152 C  
HETATM    9  N   UNL     1      -8.926   9.277  68.070  1.00  0.00    -0.128 N  
HETATM   10  O   UNL     1      -8.194   7.360  66.103  1.00  0.00    -0.116 OA 
HETATM   11  C   UNL     1      -8.308  10.113  67.206  1.00  0.00    -0.121 C  
HETATM   12  O   UNL     1      -7.909   9.899  66.082  1.00  0.00    -0.105 OA 
ENDROOT
BRANCH   4  13
HETATM   13  C   UNL     1     -11.055   6.317  69.195  1.00  0.00    -0.390 C  
BRANCH  13  14
HETATM   14  S   UNL     1     -10.508   5.227  70.531  1.00  0.00    -0.200 SA 
BRANCH  14  15
HETATM   15  C   UNL     1      -8.826   5.023  70.267  1.00  0.00    -0.115 A  
HETATM   16  N   UNL     1      -7.830   5.663  70.831  1.00  0.00    -0.102 NA 
HETATM   17  N   UNL     1      -6.687   5.164  70.252  1.00  0.00    -0.039 NA 
HETATM   18  C   UNL     1      -8.993   3.187  68.522  1.00  0.00    -0.137 C  
HETATM   19  N   UNL     1      -8.316   4.132  69.367  1.00  0.00    -0.065 NA 
HETATM   20  N   UNL     1      -6.974   4.229  69.357  1.00  0.00    -0.046 NA 
ENDBRANCH  14  15
ENDBRANCH  13  14
ENDBRANCH   4  13
BRANCH   8  21
HETATM   21  N   UNL     1      -9.545  12.287  67.862  1.00  0.00    -0.197 N  
HETATM   22  O   UNL     1      -8.218  13.866  66.886  1.00  0.00    -0.102 OA 
HETATM   23  H   UNL     1     -10.497  12.069  68.157  1.00  0.00     0.000 HD 
HETATM   24  C   UNL     1      -9.342  13.462  67.174  1.00  0.00    -0.240 C  
BRANCH  24  25
HETATM   25  C   UNL     1     -10.640  14.225  66.817  1.00  0.00    -0.278 C  
BRANCH  25  26
HETATM   26  O   UNL     1     -10.984  13.879  65.461  1.00  0.00    -0.292 OA 
HETATM   27  O   UNL     1     -12.177  12.067  66.239  1.00  0.00    -0.548 OA 
HETATM   28  C   UNL     1     -11.775  12.784  65.340  1.00  0.00    -0.387 C  
ENDBRANCH  25  26
BRANCH  25  29
HETATM   29  C   UNL     1     -10.456  15.731  66.956  1.00  0.00    -0.309 A  
HETATM   30  C   UNL     1     -10.066  16.484  65.842  1.00  0.00    -0.359 A  
HETATM   31  C   UNL     1      -9.874  17.862  65.947  1.00  0.00    -0.063 A  
HETATM   32  C   UNL     1     -10.084  18.507  67.163  1.00  0.00    -0.378 A  
HETATM   33  C   UNL     1     -10.488  17.777  68.277  1.00  0.00    -0.368 A  
HETATM   34  C   UNL     1     -10.673  16.399  68.175  1.00  0.00    -0.336 A  
ENDBRANCH  25  29
ENDBRANCH  24  25
ENDBRANCH   8  21
TORSDOF 7
ENDMDL
MODEL      130
REMARK 921   NORMALIZED FREE ENERGY PREDICTED BY IDOCK:   -4.84 KCAL/MOL
REMARK 922        TOTAL FREE ENERGY PREDICTED BY IDOCK:   -8.31 KCAL/MOL
REMARK 923 INTER-LIGAND FREE ENERGY PREDICTED BY IDOCK:   -6.92 KCAL/MOL
REMARK 924 INTRA-LIGAND FREE ENERGY PREDICTED BY IDOCK:   -1.40 KCAL/MOL
REMARK 927      BINDING AFFINITY PREDICTED BY RF-SCORE:    0.00 PKD
ROOT
HETATM    1  C   UNL     1     -10.543   8.973  67.413  1.00  0.00    -0.239 C  
HETATM    2  S   UNL     1      -9.682   9.676  65.979  1.00  0.00    -0.280 SA 
HETATM    3  C   UNL     1      -8.691   8.194  65.707  1.00  0.00    -0.154 C  
HETATM    4  C   UNL     1      -8.010   7.645  66.957  1.00  0.00    -0.116 C  
HETATM    5  OXT UNL     1      -6.415   7.099  69.318  1.00  0.00    -0.034 OA 
HETATM    6  CA  UNL     1      -8.418   7.923  68.230  1.00  0.00    -0.124 C  
HETATM    7  C   UNL     1      -7.570   7.490  69.415  1.00  0.00    -0.092 C  
HETATM    8  CA  UNL     1     -11.130  10.032  68.410  1.00  0.00    -0.182 C  
HETATM    9  N   UNL     1      -9.560   8.655  68.433  1.00  0.00    -0.145 N  
HETATM   10  O   UNL     1      -8.173   7.482  70.619  1.00  0.00    -0.108 OA 
HETATM   11  C   UNL     1     -10.148   9.351  69.431  1.00  0.00    -0.198 C  
HETATM   12  O   UNL     1      -9.862   9.398  70.607  1.00  0.00    -0.245 OA 
ENDROOT
BRANCH   4  13
HETATM   13  C   UNL     1      -6.755   6.866  66.565  1.00  0.00    -0.052 C  
BRANCH  13  14
HETATM   14  S   UNL     1      -7.017   5.190  65.937  1.00  0.00    -0.068 SA 
BRANCH  14  15
HETATM   15  C   UNL     1      -7.838   4.373  67.202  1.00  0.00    -0.097 A  
HETATM   16  N   UNL     1      -7.329   3.807  68.270  1.00  0.00    -0.054 NA 
HETATM   17  N   UNL     1      -8.392   3.258  68.947  1.00  0.00    -0.060 NA 
HETATM   18  C   UNL     1     -10.191   4.650  66.292  1.00  0.00    -0.275 C  
HETATM   19  N   UNL     1      -9.191   4.197  67.220  1.00  0.00    -0.145 NA 
HETATM   20  N   UNL     1      -9.534   3.491  68.313  1.00  0.00    -0.171 NA 
ENDBRANCH  14  15
ENDBRANCH  13  14
ENDBRANCH   4  13
BRANCH   8  21
HETATM   21  N   UNL     1     -10.814  11.444  68.065  1.00  0.00    -0.203 N  
HETATM   22  O   UNL     1     -11.975  12.441  69.757  1.00  0.00    -0.312 OA 
HETATM   23  H   UNL     1     -10.263  11.613  67.224  1.00  0.00     0.000 HD 
HETATM   24  C   UNL     1     -11.211  12.538  68.801  1.00  0.00    -0.273 C  
BRANCH  24  25
HETATM   25  C   UNL     1     -10.629  13.883  68.308  1.00  0.00    -0.257 C  
BRANCH  25  26
HETATM   26  O   UNL     1     -10.970  14.885  69.286  1.00  0.00    -0.249 OA 
HETATM   27  O   UNL     1      -8.751  15.498  69.412  1.00  0.00    -0.246 OA 
HETATM   28  C   UNL     1      -9.922  15.625  69.727  1.00  0.00    -0.277 C  
ENDBRANCH  25  26
BRANCH  25  29
HETATM   29  C   UNL     1     -11.181  14.260  66.939  1.00  0.00    -0.333 A  
HETATM   30  C   UNL     1     -10.455  15.135  66.119  1.00  0.00    -0.320 A  
HETATM   31  C   UNL     1     -10.948  15.510  64.869  1.00  0.00    -0.452 A  
HETATM   32  C   UNL     1     -12.164  15.004  64.415  1.00  0.00    -0.353 A  
HETATM   33  C   UNL     1     -12.890  14.122  65.209  1.00  0.00    -0.370 A  
HETATM   34  C   UNL     1     -12.403  13.752  66.462  1.00  0.00    -0.432 A  
ENDBRANCH  25  29
ENDBRANCH  24  25
ENDBRANCH   8  21
TORSDOF 7
ENDMDL
MODEL      131
REMARK 921   NORMALIZED FREE ENERGY PREDICTED BY IDOCK:   -4.84 KCAL/MOL
REMARK 922        TOTAL FREE ENERGY PREDICTED BY IDOCK:   -8.31 KCAL/MOL
REMARK 923 INTER-LIGAND FREE ENERGY PREDICTED BY IDOCK:   -7.18 KCAL/MOL
REMARK 924 INTRA-LIGAND FREE ENERGY PREDICTED BY IDOCK:   -1.13 KCAL/MOL
REMARK 927      BINDING AFFINITY PREDICTED BY RF-SCORE:    0.00 PKD
ROOT
HETATM    1  C   UNL     1      -7.590  13.639  68.678  1.00  0.00    -0.115 C  
HETATM    2  S   UNL     1      -9.184  14.360  68.199  1.00  0.00    -0.205 SA 
HETATM    3  C   UNL     1     -10.059  12.788  68.330  1.00  0.00    -0.237 C  
HETATM    4  C   UNL     1      -9.378  11.619  67.625  1.00  0.00    -0.178 C  
HETATM    5  OXT UNL     1      -8.196   9.698  65.801  1.00  0.00    -0.116 OA 
HETATM    6  CA  UNL     1      -8.051  11.594  67.304  1.00  0.00    -0.160 C  
HETATM    7  C   UNL     1      -7.497  10.475  66.436  1.00  0.00    -0.133 C  
HETATM    8  CA  UNL     1      -6.334  14.440  68.188  1.00  0.00    -0.141 C  
HETATM    9  N   UNL     1      -7.234  12.617  67.710  1.00  0.00    -0.112 N  
HETATM   10  O   UNL     1      -6.160  10.312  66.441  1.00  0.00    -0.064 OA 
HETATM   11  C   UNL     1      -6.013  13.113  67.411  1.00  0.00     0.000 C  
HETATM   12  O   UNL     1      -5.139  12.636  66.721  1.00  0.00    -0.313 OA 
ENDROOT
BRANCH   4  13
HETATM   13  C   UNL     1     -10.419  10.572  67.230  1.00  0.00    -0.250 C  
BRANCH  13  14
HETATM   14  S   UNL     1     -10.635   9.187  68.373  1.00  0.00    -0.128 SA 
BRANCH  14  15
HETATM   15  C   UNL     1     -11.603   9.816  69.642  1.00  0.00     0.020 A  
HETATM   16  N   UNL     1     -12.606  10.656  69.561  1.00  0.00    -0.199 NA 
HETATM   17  N   UNL     1     -13.018  10.876  70.854  1.00  0.00    -0.308 NA 
HETATM   18  C   UNL     1     -10.448   8.613  71.556  1.00  0.00    -0.274 C  
HETATM   19  N   UNL     1     -11.403   9.504  70.956  1.00  0.00    -0.321 NA 
HETATM   20  N   UNL     1     -12.289  10.177  71.713  1.00  0.00    -0.365 NA 
ENDBRANCH  14  15
ENDBRANCH  13  14
ENDBRANCH   4  13
BRANCH   8  21
HETATM   21  N   UNL     1      -6.649  15.618  67.336  1.00  0.00    -0.178 N  
HETATM   22  O   UNL     1      -6.189  17.240  68.873  1.00  0.00    -0.168 OA 
HETATM   23  H   UNL     1      -7.006  15.441  66.397  1.00  0.00     0.000 HD 
HETATM   24  C   UNL     1      -6.494  16.930  67.724  1.00  0.00    -0.143 C  
BRANCH  24  25
HETATM   25  C   UNL     1      -6.755  17.962  66.602  1.00  0.00    -0.200 C  
BRANCH  25  26
HETATM   26  O   UNL     1      -5.702  18.944  66.666  1.00  0.00    -0.157 OA 
HETATM   27  O   UNL     1      -5.452  18.806  64.379  1.00  0.00    -0.230 OA 
HETATM   28  C   UNL     1      -5.164  19.275  65.466  1.00  0.00    -0.152 C  
ENDBRANCH  25  26
BRANCH  25  29
HETATM   29  C   UNL     1      -8.117  18.626  66.762  1.00  0.00    -0.275 A  
HETATM   30  C   UNL     1      -8.192  19.941  67.238  1.00  0.00    -0.350 A  
HETATM   31  C   UNL     1      -9.428  20.565  67.410  1.00  0.00    -0.551 A  
HETATM   32  C   UNL     1     -10.604  19.889  67.095  1.00  0.00    -0.527 A  
HETATM   33  C   UNL     1     -10.548  18.588  66.605  1.00  0.00    -0.383 A  
HETATM   34  C   UNL     1      -9.314  17.960  66.439  1.00  0.00    -0.268 A  
ENDBRANCH  25  29
ENDBRANCH  24  25
ENDBRANCH   8  21
TORSDOF 7
ENDMDL
MODEL      132
REMARK 921   NORMALIZED FREE ENERGY PREDICTED BY IDOCK:   -4.82 KCAL/MOL
REMARK 922        TOTAL FREE ENERGY PREDICTED BY IDOCK:   -8.29 KCAL/MOL
REMARK 923 INTER-LIGAND FREE ENERGY PREDICTED BY IDOCK:   -6.88 KCAL/MOL
REMARK 924 INTRA-LIGAND FREE ENERGY PREDICTED BY IDOCK:   -1.41 KCAL/MOL
REMARK 927      BINDING AFFINITY PREDICTED BY RF-SCORE:    0.00 PKD
ROOT
HETATM    1  C   UNL     1      -9.932   7.586  68.388  1.00  0.00    -0.170 C  
HETATM    2  S   UNL     1      -8.212   7.597  67.813  1.00  0.00    -0.119 SA 
HETATM    3  C   UNL     1      -7.619   6.638  69.221  1.00  0.00    -0.100 C  
HETATM    4  C   UNL     1      -8.094   7.143  70.580  1.00  0.00    -0.113 C  
HETATM    5  OXT UNL     1      -8.674   8.570  73.038  1.00  0.00    -0.343 OA 
HETATM    6  CA  UNL     1      -9.190   7.936  70.757  1.00  0.00    -0.157 C  
HETATM    7  C   UNL     1      -9.480   8.547  72.119  1.00  0.00    -0.305 C  
HETATM    8  CA  UNL     1     -10.815   8.761  67.839  1.00  0.00    -0.011 C  
HETATM    9  N   UNL     1      -9.991   8.236  69.685  1.00  0.00    -0.189 N  
HETATM   10  O   UNL     1     -10.725   9.020  72.317  1.00  0.00    -0.270 OA 
HETATM   11  C   UNL     1     -10.947   9.134  69.360  1.00  0.00    -0.092 C  
HETATM   12  O   UNL     1     -11.533   9.923  70.068  1.00  0.00    -0.247 OA 
ENDROOT
BRANCH   4  13
HETATM   13  C   UNL     1      -7.093   6.737  71.663  1.00  0.00    -0.076 C  
BRANCH  13  14
HETATM   14  S   UNL     1      -7.294   5.080  72.358  1.00  0.00    -0.094 SA 
BRANCH  14  15
HETATM   15  C   UNL     1      -8.896   5.054  72.969  1.00  0.00    -0.116 A  
HETATM   16  N   UNL     1      -9.319   5.402  74.160  1.00  0.00    -0.131 NA 
HETATM   17  N   UNL     1     -10.672   5.159  74.164  1.00  0.00    -0.276 NA 
HETATM   18  C   UNL     1     -10.024   4.159  70.878  1.00  0.00    -0.136 C  
HETATM   19  N   UNL     1      -9.964   4.619  72.238  1.00  0.00    -0.170 NA 
HETATM   20  N   UNL     1     -11.075   4.681  72.994  1.00  0.00    -0.254 NA 
ENDBRANCH  14  15
ENDBRANCH  13  14
ENDBRANCH   4  13
BRANCH   8  21
HETATM   21  N   UNL     1     -10.079   9.745  67.002  1.00  0.00    -0.205 N  
HETATM   22  O   UNL     1     -11.707  11.340  66.899  1.00  0.00    -0.464 OA 
HETATM   23  H   UNL     1      -9.152   9.482  66.667  1.00  0.00     0.000 HD 
HETATM   24  C   UNL     1     -10.558  10.986  66.646  1.00  0.00    -0.262 C  
BRANCH  24  25
HETATM   25  C   UNL     1      -9.538  11.873  65.894  1.00  0.00    -0.231 C  
BRANCH  25  26
HETATM   26  O   UNL     1      -8.247  11.649  66.494  1.00  0.00    -0.164 OA 
HETATM   27  O   UNL     1      -7.711  10.212  64.773  1.00  0.00    -0.140 OA 
HETATM   28  C   UNL     1      -7.440  10.806  65.802  1.00  0.00    -0.067 C  
ENDBRANCH  25  26
BRANCH  25  29
HETATM   29  C   UNL     1      -9.917  13.346  65.973  1.00  0.00    -0.300 A  
HETATM   30  C   UNL     1      -9.627  14.072  67.135  1.00  0.00    -0.245 A  
HETATM   31  C   UNL     1      -9.979  15.418  67.239  1.00  0.00    -0.226 A  
HETATM   32  C   UNL     1     -10.613  16.060  66.178  1.00  0.00    -0.302 A  
HETATM   33  C   UNL     1     -10.894  15.359  65.010  1.00  0.00    -0.462 A  
HETATM   34  C   UNL     1     -10.549  14.012  64.906  1.00  0.00    -0.442 A  
ENDBRANCH  25  29
ENDBRANCH  24  25
ENDBRANCH   8  21
TORSDOF 7
ENDMDL
MODEL      133
REMARK 921   NORMALIZED FREE ENERGY PREDICTED BY IDOCK:   -4.82 KCAL/MOL
REMARK 922        TOTAL FREE ENERGY PREDICTED BY IDOCK:   -8.28 KCAL/MOL
REMARK 923 INTER-LIGAND FREE ENERGY PREDICTED BY IDOCK:   -7.17 KCAL/MOL
REMARK 924 INTRA-LIGAND FREE ENERGY PREDICTED BY IDOCK:   -1.11 KCAL/MOL
REMARK 927      BINDING AFFINITY PREDICTED BY RF-SCORE:    0.00 PKD
ROOT
HETATM    1  C   UNL     1      -9.737  10.532  68.713  1.00  0.00    -0.184 C  
HETATM    2  S   UNL     1     -11.007  10.265  67.446  1.00  0.00    -0.182 SA 
HETATM    3  C   UNL     1     -10.661   8.499  67.315  1.00  0.00    -0.245 C  
HETATM    4  C   UNL     1      -9.184   8.149  67.164  1.00  0.00    -0.175 C  
HETATM    5  OXT UNL     1      -6.422   7.759  66.368  1.00  0.00    -0.045 OA 
HETATM    6  CA  UNL     1      -8.164   8.980  67.529  1.00  0.00    -0.109 C  
HETATM    7  C   UNL     1      -6.728   8.631  67.169  1.00  0.00    -0.063 C  
HETATM    8  CA  UNL     1      -9.199  12.003  68.804  1.00  0.00     0.069 C  
HETATM    9  N   UNL     1      -8.446  10.164  68.160  1.00  0.00    -0.117 N  
HETATM   10  O   UNL     1      -5.761   9.288  67.838  1.00  0.00    -0.038 OA 
HETATM   11  C   UNL     1      -7.826  11.334  68.434  1.00  0.00    -0.136 C  
HETATM   12  O   UNL     1      -6.659  11.632  68.311  1.00  0.00    -0.056 OA 
ENDROOT
BRANCH   4  13
HETATM   13  C   UNL     1      -9.038   6.812  66.437  1.00  0.00    -0.152 C  
BRANCH  13  14
HETATM   14  S   UNL     1     -10.388   5.628  66.660  1.00  0.00    -0.259 SA 
BRANCH  14  15
HETATM   15  C   UNL     1     -10.182   5.028  68.253  1.00  0.00    -0.073 A  
HETATM   16  N   UNL     1     -10.473   5.616  69.389  1.00  0.00    -0.274 NA 
HETATM   17  N   UNL     1     -10.084   4.741  70.375  1.00  0.00    -0.244 NA 
HETATM   18  C   UNL     1      -9.184   2.780  67.624  1.00  0.00    -0.198 C  
HETATM   19  N   UNL     1      -9.639   3.805  68.523  1.00  0.00    -0.142 NA 
HETATM   20  N   UNL     1      -9.572   3.633  69.856  1.00  0.00    -0.190 NA 
ENDBRANCH  14  15
ENDBRANCH  13  14
ENDBRANCH   4  13
BRANCH   8  21
HETATM   21  N   UNL     1      -9.756  12.926  67.778  1.00  0.00    -0.208 N  
HETATM   22  O   UNL     1     -11.603  13.595  68.939  1.00  0.00    -0.274 OA 
HETATM   23  H   UNL     1      -9.267  12.991  66.885  1.00  0.00     0.000 HD 
HETATM   24  C   UNL     1     -10.883  13.698  67.948  1.00  0.00    -0.250 C  
BRANCH  24  25
HETATM   25  C   UNL     1     -11.166  14.678  66.786  1.00  0.00    -0.344 C  
BRANCH  25  26
HETATM   26  O   UNL     1     -10.804  14.011  65.561  1.00  0.00    -0.292 OA 
HETATM   27  O   UNL     1     -13.038  13.670  65.104  1.00  0.00    -0.750 OA 
HETATM   28  C   UNL     1     -11.856  13.581  64.820  1.00  0.00    -0.381 C  
ENDBRANCH  25  26
BRANCH  25  29
HETATM   29  C   UNL     1     -10.377  15.972  66.945  1.00  0.00    -0.289 A  
HETATM   30  C   UNL     1      -9.298  16.231  66.089  1.00  0.00    -0.374 A  
HETATM   31  C   UNL     1      -8.548  17.400  66.225  1.00  0.00    -0.246 A  
HETATM   32  C   UNL     1      -8.875  18.331  67.207  1.00  0.00    -0.255 A  
HETATM   33  C   UNL     1      -9.953  18.098  68.055  1.00  0.00    -0.353 A  
HETATM   34  C   UNL     1     -10.700  16.927  67.926  1.00  0.00    -0.344 A  
ENDBRANCH  25  29
ENDBRANCH  24  25
ENDBRANCH   8  21
TORSDOF 7
ENDMDL
MODEL      134
REMARK 921   NORMALIZED FREE ENERGY PREDICTED BY IDOCK:   -4.79 KCAL/MOL
REMARK 922        TOTAL FREE ENERGY PREDICTED BY IDOCK:   -8.24 KCAL/MOL
REMARK 923 INTER-LIGAND FREE ENERGY PREDICTED BY IDOCK:   -7.44 KCAL/MOL
REMARK 924 INTRA-LIGAND FREE ENERGY PREDICTED BY IDOCK:   -0.81 KCAL/MOL
REMARK 927      BINDING AFFINITY PREDICTED BY RF-SCORE:    0.00 PKD
ROOT
HETATM    1  C   UNL     1     -10.176  11.113  67.312  1.00  0.00    -0.193 C  
HETATM    2  S   UNL     1     -11.482  11.199  68.567  1.00  0.00    -0.315 SA 
HETATM    3  C   UNL     1     -11.532  13.002  68.551  1.00  0.00    -0.304 C  
HETATM    4  C   UNL     1     -10.169  13.678  68.656  1.00  0.00    -0.199 C  
HETATM    5  OXT UNL     1      -7.563  14.726  69.386  1.00  0.00    -0.163 OA 
HETATM    6  CA  UNL     1      -8.989  13.063  68.349  1.00  0.00    -0.126 C  
HETATM    7  C   UNL     1      -7.667  13.745  68.662  1.00  0.00    -0.120 C  
HETATM    8  CA  UNL     1      -9.329   9.793  67.335  1.00  0.00    -0.134 C  
HETATM    9  N   UNL     1      -9.001  11.798  67.819  1.00  0.00    -0.167 N  
HETATM   10  O   UNL     1      -6.575  13.263  68.038  1.00  0.00    -0.096 OA 
HETATM   11  C   UNL     1      -8.138  10.774  67.633  1.00  0.00    -0.114 C  
HETATM   12  O   UNL     1      -6.935  10.749  67.767  1.00  0.00    -0.075 OA 
ENDROOT
BRANCH   4  13
HETATM   13  C   UNL     1     -10.323  15.069  69.271  1.00  0.00    -0.246 C  
BRANCH  13  14
HETATM   14  S   UNL     1     -12.018  15.651  69.517  1.00  0.00    -0.285 SA 
BRANCH  14  15
HETATM   15  C   UNL     1     -12.233  15.664  71.218  1.00  0.00    -0.415 A  
HETATM   16  N   UNL     1     -11.562  16.342  72.118  1.00  0.00    -0.406 NA 
HETATM   17  N   UNL     1     -12.089  15.975  73.334  1.00  0.00    -0.478 NA 
HETATM   18  C   UNL     1     -14.160  14.014  71.313  1.00  0.00     0.015 C  
HETATM   19  N   UNL     1     -13.170  14.904  71.856  1.00  0.00    -0.325 NA 
HETATM   20  N   UNL     1     -13.072  15.097  73.184  1.00  0.00    -0.492 NA 
ENDBRANCH  14  15
ENDBRANCH  13  14
ENDBRANCH   4  13
BRANCH   8  21
HETATM   21  N   UNL     1      -9.677   8.858  68.438  1.00  0.00    -0.157 N  
HETATM   22  O   UNL     1      -8.071   7.290  68.030  1.00  0.00    -0.117 OA 
HETATM   23  H   UNL     1     -10.489   9.086  69.013  1.00  0.00     0.000 HD 
HETATM   24  C   UNL     1      -8.983   7.708  68.739  1.00  0.00    -0.133 C  
BRANCH  24  25
HETATM   25  C   UNL     1      -9.463   6.990  70.023  1.00  0.00    -0.161 C  
BRANCH  25  26
HETATM   26  O   UNL     1      -9.902   5.672  69.642  1.00  0.00    -0.160 OA 
HETATM   27  O   UNL     1      -8.145   4.759  70.822  1.00  0.00    -0.082 OA 
HETATM   28  C   UNL     1      -9.148   4.659  70.138  1.00  0.00    -0.098 C  
ENDBRANCH  25  26
BRANCH  25  29
HETATM   29  C   UNL     1     -10.592   7.757  70.700  1.00  0.00    -0.222 A  
HETATM   30  C   UNL     1     -11.850   7.155  70.834  1.00  0.00    -0.379 A  
HETATM   31  C   UNL     1     -12.906   7.843  71.434  1.00  0.00    -0.305 A  
HETATM   32  C   UNL     1     -12.714   9.133  71.921  1.00  0.00    -0.464 A  
HETATM   33  C   UNL     1     -11.467   9.740  71.811  1.00  0.00    -0.137 A  
HETATM   34  C   UNL     1     -10.413   9.057  71.205  1.00  0.00    -0.381 A  
ENDBRANCH  25  29
ENDBRANCH  24  25
ENDBRANCH   8  21
TORSDOF 7
ENDMDL
MODEL      135
REMARK 921   NORMALIZED FREE ENERGY PREDICTED BY IDOCK:   -4.79 KCAL/MOL
REMARK 922        TOTAL FREE ENERGY PREDICTED BY IDOCK:   -8.24 KCAL/MOL
REMARK 923 INTER-LIGAND FREE ENERGY PREDICTED BY IDOCK:   -6.79 KCAL/MOL
REMARK 924 INTRA-LIGAND FREE ENERGY PREDICTED BY IDOCK:   -1.45 KCAL/MOL
REMARK 927      BINDING AFFINITY PREDICTED BY RF-SCORE:    0.00 PKD
ROOT
HETATM    1  C   UNL     1     -10.291   8.799  67.384  1.00  0.00    -0.280 C  
HETATM    2  S   UNL     1      -9.351   8.828  65.834  1.00  0.00    -0.188 SA 
HETATM    3  C   UNL     1      -8.203   7.547  66.378  1.00  0.00    -0.122 C  
HETATM    4  C   UNL     1      -7.613   7.769  67.766  1.00  0.00    -0.113 C  
HETATM    5  OXT UNL     1      -6.237   8.654  70.162  1.00  0.00    -0.033 OA 
HETATM    6  CA  UNL     1      -8.179   8.572  68.714  1.00  0.00    -0.122 C  
HETATM    7  C   UNL     1      -7.426   8.885  69.998  1.00  0.00    -0.057 C  
HETATM    8  CA  UNL     1     -11.079  10.119  67.699  1.00  0.00    -0.206 C  
HETATM    9  N   UNL     1      -9.399   9.150  68.474  1.00  0.00    -0.136 N  
HETATM   10  O   UNL     1      -8.153   9.380  71.019  1.00  0.00    -0.300 OA 
HETATM   11  C   UNL     1     -10.153  10.156  68.969  1.00  0.00    -0.205 C  
HETATM   12  O   UNL     1     -10.001  10.805  69.980  1.00  0.00     0.120 OA 
ENDROOT
BRANCH   4  13
HETATM   13  C   UNL     1      -6.255   7.074  67.871  1.00  0.00    -0.038 C  
BRANCH  13  14
HETATM   14  S   UNL     1      -6.289   5.273  68.038  1.00  0.00    -0.041 SA 
BRANCH  14  15
HETATM   15  C   UNL     1      -7.731   4.943  68.908  1.00  0.00    -0.073 A  
HETATM   16  N   UNL     1      -7.998   5.199  70.166  1.00  0.00    -0.078 NA 
HETATM   17  N   UNL     1      -9.263   4.707  70.388  1.00  0.00    -0.115 NA 
HETATM   18  C   UNL     1      -9.018   3.866  67.004  1.00  0.00    -0.138 C  
HETATM   19  N   UNL     1      -8.810   4.321  68.351  1.00  0.00    -0.102 NA 
HETATM   20  N   UNL     1      -9.767   4.169  69.285  1.00  0.00    -0.183 NA 
ENDBRANCH  14  15
ENDBRANCH  13  14
ENDBRANCH   4  13
BRANCH   8  21
HETATM   21  N   UNL     1     -10.860  11.215  66.718  1.00  0.00    -0.274 N  
HETATM   22  O   UNL     1     -12.191  12.783  67.706  1.00  0.00    -0.289 OA 
HETATM   23  H   UNL     1     -10.279  11.012  65.904  1.00  0.00     0.000 HD 
HETATM   24  C   UNL     1     -11.385  12.483  66.829  1.00  0.00    -0.334 C  
BRANCH  24  25
HETATM   25  C   UNL     1     -10.888  13.476  65.753  1.00  0.00    -0.275 C  
BRANCH  25  26
HETATM   26  O   UNL     1     -10.561  12.710  64.577  1.00  0.00    -0.307 OA 
HETATM   27  O   UNL     1     -12.512  13.431  63.582  1.00  0.00    -0.711 OA 
HETATM   28  C   UNL     1     -11.465  12.807  63.569  1.00  0.00    -0.459 C  
ENDBRANCH  25  26
BRANCH  25  29
HETATM   29  C   UNL     1      -9.673  14.259  66.236  1.00  0.00    -0.321 A  
HETATM   30  C   UNL     1      -9.552  15.615  65.907  1.00  0.00    -0.385 A  
HETATM   31  C   UNL     1      -8.440  16.350  66.322  1.00  0.00    -0.372 A  
HETATM   32  C   UNL     1      -7.445  15.744  67.084  1.00  0.00    -0.259 A  
HETATM   33  C   UNL     1      -7.557  14.402  67.434  1.00  0.00    -0.196 A  
HETATM   34  C   UNL     1      -8.663  13.664  67.014  1.00  0.00    -0.204 A  
ENDBRANCH  25  29
ENDBRANCH  24  25
ENDBRANCH   8  21
TORSDOF 7
ENDMDL
MODEL      136
REMARK 921   NORMALIZED FREE ENERGY PREDICTED BY IDOCK:   -4.77 KCAL/MOL
REMARK 922        TOTAL FREE ENERGY PREDICTED BY IDOCK:   -8.22 KCAL/MOL
REMARK 923 INTER-LIGAND FREE ENERGY PREDICTED BY IDOCK:   -7.12 KCAL/MOL
REMARK 924 INTRA-LIGAND FREE ENERGY PREDICTED BY IDOCK:   -1.09 KCAL/MOL
REMARK 927      BINDING AFFINITY PREDICTED BY RF-SCORE:    0.00 PKD
ROOT
HETATM    1  C   UNL     1      -9.394  11.052  67.878  1.00  0.00    -0.158 C  
HETATM    2  S   UNL     1     -10.719  11.384  69.071  1.00  0.00    -0.183 SA 
HETATM    3  C   UNL     1     -10.759  13.149  68.704  1.00  0.00    -0.250 C  
HETATM    4  C   UNL     1      -9.394  13.829  68.697  1.00  0.00    -0.081 C  
HETATM    5  OXT UNL     1      -6.795  14.994  69.251  1.00  0.00    -0.124 OA 
HETATM    6  CA  UNL     1      -8.213  13.164  68.534  1.00  0.00    -0.076 C  
HETATM    7  C   UNL     1      -6.893  13.892  68.730  1.00  0.00    -0.105 C  
HETATM    8  CA  UNL     1      -8.554   9.760  68.171  1.00  0.00    -0.118 C  
HETATM    9  N   UNL     1      -8.223  11.820  68.260  1.00  0.00    -0.151 N  
HETATM   10  O   UNL     1      -5.794  13.296  68.230  1.00  0.00    -0.073 OA 
HETATM   11  C   UNL     1      -7.363  10.778  68.292  1.00  0.00    -0.086 C  
HETATM   12  O   UNL     1      -6.162  10.777  68.447  1.00  0.00    -0.049 OA 
ENDROOT
BRANCH   4  13
HETATM   13  C   UNL     1      -9.552  15.314  69.027  1.00  0.00    -0.237 C  
BRANCH  13  14
HETATM   14  S   UNL     1     -11.132  16.070  68.578  1.00  0.00    -0.362 SA 
BRANCH  14  15
HETATM   15  C   UNL     1     -10.723  17.302  67.457  1.00  0.00    -0.278 A  
HETATM   16  N   UNL     1     -10.760  18.602  67.626  1.00  0.00    -0.417 NA 
HETATM   17  N   UNL     1     -10.378  19.149  66.424  1.00  0.00    -0.423 NA 
HETATM   18  C   UNL     1     -10.088  15.783  65.525  1.00  0.00    -0.351 C  
HETATM   19  N   UNL     1     -10.311  17.042  66.182  1.00  0.00    -0.335 NA 
HETATM   20  N   UNL     1     -10.103  18.203  65.535  1.00  0.00    -0.386 NA 
ENDBRANCH  14  15
ENDBRANCH  13  14
ENDBRANCH   4  13
BRANCH   8  21
HETATM   21  N   UNL     1      -8.924   9.059  69.429  1.00  0.00    -0.142 N  
HETATM   22  O   UNL     1      -7.494   7.292  69.228  1.00  0.00    -0.091 OA 
HETATM   23  H   UNL     1      -9.677   9.457  69.990  1.00  0.00     0.000 HD 
HETATM   24  C   UNL     1      -8.323   7.909  69.892  1.00  0.00    -0.122 C  
BRANCH  24  25
HETATM   25  C   UNL     1      -8.793   7.464  71.296  1.00  0.00    -0.137 C  
BRANCH  25  26
HETATM   26  O   UNL     1      -8.447   6.073  71.446  1.00  0.00    -0.126 OA 
HETATM   27  O   UNL     1      -7.188   6.600  73.304  1.00  0.00    -0.077 OA 
HETATM   28  C   UNL     1      -7.652   5.800  72.511  1.00  0.00    -0.101 C  
ENDBRANCH  25  26
BRANCH  25  29
HETATM   29  C   UNL     1     -10.293   7.665  71.470  1.00  0.00    -0.223 A  
HETATM   30  C   UNL     1     -11.174   6.640  71.102  1.00  0.00    -0.340 A  
HETATM   31  C   UNL     1     -12.553   6.806  71.235  1.00  0.00    -0.328 A  
HETATM   32  C   UNL     1     -13.069   7.992  71.751  1.00  0.00    -0.360 A  
HETATM   33  C   UNL     1     -12.208   9.014  72.138  1.00  0.00    -0.427 A  
HETATM   34  C   UNL     1     -10.830   8.853  71.999  1.00  0.00    -0.404 A  
ENDBRANCH  25  29
ENDBRANCH  24  25
ENDBRANCH   8  21
TORSDOF 7
ENDMDL
MODEL      137
REMARK 921   NORMALIZED FREE ENERGY PREDICTED BY IDOCK:   -4.77 KCAL/MOL
REMARK 922        TOTAL FREE ENERGY PREDICTED BY IDOCK:   -8.21 KCAL/MOL
REMARK 923 INTER-LIGAND FREE ENERGY PREDICTED BY IDOCK:   -7.06 KCAL/MOL
REMARK 924 INTRA-LIGAND FREE ENERGY PREDICTED BY IDOCK:   -1.15 KCAL/MOL
REMARK 927      BINDING AFFINITY PREDICTED BY RF-SCORE:    0.00 PKD
ROOT
HETATM    1  C   UNL     1      -9.606   7.081  69.502  1.00  0.00    -0.153 C  
HETATM    2  S   UNL     1      -7.898   7.568  69.134  1.00  0.00    -0.121 SA 
HETATM    3  C   UNL     1      -7.209   6.566  70.467  1.00  0.00    -0.074 C  
HETATM    4  C   UNL     1      -7.899   6.739  71.816  1.00  0.00    -0.101 C  
HETATM    5  OXT UNL     1      -9.003   7.610  74.354  1.00  0.00    -0.196 OA 
HETATM    6  CA  UNL     1      -9.165   7.228  71.966  1.00  0.00    -0.132 C  
HETATM    7  C   UNL     1      -9.703   7.545  73.352  1.00  0.00    -0.291 C  
HETATM    8  CA  UNL     1     -10.698   8.095  69.010  1.00  0.00    -0.080 C  
HETATM    9  N   UNL     1      -9.925   7.497  70.856  1.00  0.00    -0.181 N  
HETATM   10  O   UNL     1     -11.037   7.689  73.465  1.00  0.00    -0.315 OA 
HETATM   11  C   UNL     1     -11.038   8.195  70.541  1.00  0.00    -0.253 C  
HETATM   12  O   UNL     1     -11.852   8.714  71.272  1.00  0.00    -0.281 OA 
ENDROOT
BRANCH   4  13
HETATM   13  C   UNL     1      -6.922   6.412  72.946  1.00  0.00    -0.078 C  
BRANCH  13  14
HETATM   14  S   UNL     1      -7.125   4.798  73.737  1.00  0.00    -0.078 SA 
BRANCH  14  15
HETATM   15  C   UNL     1      -8.009   3.864  72.601  1.00  0.00    -0.082 A  
HETATM   16  N   UNL     1      -7.578   3.302  71.498  1.00  0.00    -0.047 NA 
HETATM   17  N   UNL     1      -8.678   2.707  70.926  1.00  0.00    -0.063 NA 
HETATM   18  C   UNL     1     -10.262   3.989  73.766  1.00  0.00    -0.151 C  
HETATM   19  N   UNL     1      -9.345   3.612  72.725  1.00  0.00    -0.106 NA 
HETATM   20  N   UNL     1      -9.761   2.891  71.668  1.00  0.00    -0.152 NA 
ENDBRANCH  14  15
ENDBRANCH  13  14
ENDBRANCH   4  13
BRANCH   8  21
HETATM   21  N   UNL     1     -10.153   9.335  68.395  1.00  0.00    -0.183 N  
HETATM   22  O   UNL     1     -10.275   8.675  66.215  1.00  0.00    -0.264 OA 
HETATM   23  H   UNL     1      -9.841  10.077  69.022  1.00  0.00     0.000 HD 
HETATM   24  C   UNL     1     -10.040   9.553  67.040  1.00  0.00    -0.234 C  
BRANCH  24  25
HETATM   25  C   UNL     1      -9.579  10.980  66.661  1.00  0.00    -0.189 C  
BRANCH  25  26
HETATM   26  O   UNL     1      -9.526  11.754  67.875  1.00  0.00    -0.178 OA 
HETATM   27  O   UNL     1      -7.485  12.606  67.227  1.00  0.00    -0.149 OA 
HETATM   28  C   UNL     1      -8.422  12.533  68.002  1.00  0.00    -0.173 C  
ENDBRANCH  25  26
BRANCH  25  29
HETATM   29  C   UNL     1     -10.528  11.623  65.657  1.00  0.00    -0.314 A  
HETATM   30  C   UNL     1     -10.331  11.408  64.286  1.00  0.00    -0.383 A  
HETATM   31  C   UNL     1     -11.175  12.000  63.346  1.00  0.00    -0.481 A  
HETATM   32  C   UNL     1     -12.235  12.801  63.762  1.00  0.00    -0.572 A  
HETATM   33  C   UNL     1     -12.456  13.011  65.120  1.00  0.00    -0.552 A  
HETATM   34  C   UNL     1     -11.610  12.427  66.061  1.00  0.00    -0.455 A  
ENDBRANCH  25  29
ENDBRANCH  24  25
ENDBRANCH   8  21
TORSDOF 7
ENDMDL
MODEL      138
REMARK 921   NORMALIZED FREE ENERGY PREDICTED BY IDOCK:   -4.75 KCAL/MOL
REMARK 922        TOTAL FREE ENERGY PREDICTED BY IDOCK:   -8.19 KCAL/MOL
REMARK 923 INTER-LIGAND FREE ENERGY PREDICTED BY IDOCK:   -7.18 KCAL/MOL
REMARK 924 INTRA-LIGAND FREE ENERGY PREDICTED BY IDOCK:   -1.01 KCAL/MOL
REMARK 927      BINDING AFFINITY PREDICTED BY RF-SCORE:    0.00 PKD
ROOT
HETATM    1  C   UNL     1      -8.763  15.840  69.901  1.00  0.00     0.299 C  
HETATM    2  S   UNL     1      -7.477  14.614  69.535  1.00  0.00    -0.013 SA 
HETATM    3  C   UNL     1      -6.336  15.846  68.876  1.00  0.00    -0.122 C  
HETATM    4  C   UNL     1      -6.949  16.803  67.860  1.00  0.00    -0.156 C  
HETATM    5  OXT UNL     1      -8.174  18.148  65.600  1.00  0.00    -0.444 OA 
HETATM    6  CA  UNL     1      -8.289  17.044  67.755  1.00  0.00    -0.196 C  
HETATM    7  C   UNL     1      -8.828  17.865  66.594  1.00  0.00    -0.268 C  
HETATM    8  CA  UNL     1     -10.219  15.262  69.975  1.00  0.00    -0.197 C  
HETATM    9  N   UNL     1      -9.153  16.486  68.661  1.00  0.00    -0.231 N  
HETATM   10  O   UNL     1     -10.077  18.352  66.726  1.00  0.00    -0.331 OA 
HETATM   11  C   UNL     1     -10.477  16.243  68.776  1.00  0.00    -0.282 C  
HETATM   12  O   UNL     1     -11.393  16.637  68.087  1.00  0.00    -0.289 OA 
ENDROOT
BRANCH   4  13
HETATM   13  C   UNL     1      -5.864  17.330  66.920  1.00  0.00    -0.179 C  
BRANCH  13  14
HETATM   14  S   UNL     1      -5.154  18.939  67.340  1.00  0.00    -0.160 SA 
BRANCH  14  15
HETATM   15  C   UNL     1      -5.776  19.297  68.898  1.00  0.00    -0.209 A  
HETATM   16  N   UNL     1      -5.312  18.921  70.066  1.00  0.00    -0.209 NA 
HETATM   17  N   UNL     1      -6.184  19.431  70.998  1.00  0.00     0.091 NA 
HETATM   18  C   UNL     1      -7.756  20.695  68.143  1.00  0.00     0.102 C  
HETATM   19  N   UNL     1      -6.903  20.040  69.097  1.00  0.00    -0.292 NA 
HETATM   20  N   UNL     1      -7.159  20.116  70.416  1.00  0.00     0.094 NA 
ENDBRANCH  14  15
ENDBRANCH  13  14
ENDBRANCH   4  13
BRANCH   8  21
HETATM   21  N   UNL     1     -10.324  13.814  69.648  1.00  0.00    -0.214 N  
HETATM   22  O   UNL     1     -12.506  13.806  68.983  1.00  0.00    -0.194 OA 
HETATM   23  H   UNL     1      -9.508  13.228  69.829  1.00  0.00     0.000 HD 
HETATM   24  C   UNL     1     -11.442  13.209  69.120  1.00  0.00    -0.305 C  
BRANCH  24  25
HETATM   25  C   UNL     1     -11.242  11.724  68.737  1.00  0.00    -0.251 C  
BRANCH  25  26
HETATM   26  O   UNL     1     -12.082  11.455  67.597  1.00  0.00    -0.630 OA 
HETATM   27  O   UNL     1     -10.203  11.243  66.279  1.00  0.00    -0.221 OA 
HETATM   28  C   UNL     1     -11.410  11.216  66.443  1.00  0.00     0.079 C  
ENDBRANCH  25  26
BRANCH  25  29
HETATM   29  C   UNL     1     -11.596  10.798  69.894  1.00  0.00    -0.410 A  
HETATM   30  C   UNL     1     -12.876  10.861  70.460  1.00  0.00    -0.301 A  
HETATM   31  C   UNL     1     -13.220  10.036  71.532  1.00  0.00    -0.497 A  
HETATM   32  C   UNL     1     -12.296   9.128  72.042  1.00  0.00    -0.448 A  
HETATM   33  C   UNL     1     -11.025   9.041  71.482  1.00  0.00    -0.418 A  
HETATM   34  C   UNL     1     -10.677   9.869  70.415  1.00  0.00    -0.379 A  
ENDBRANCH  25  29
ENDBRANCH  24  25
ENDBRANCH   8  21
TORSDOF 7
ENDMDL
MODEL      139
REMARK 921   NORMALIZED FREE ENERGY PREDICTED BY IDOCK:   -4.72 KCAL/MOL
REMARK 922        TOTAL FREE ENERGY PREDICTED BY IDOCK:   -8.15 KCAL/MOL
REMARK 923 INTER-LIGAND FREE ENERGY PREDICTED BY IDOCK:   -6.73 KCAL/MOL
REMARK 924 INTRA-LIGAND FREE ENERGY PREDICTED BY IDOCK:   -1.42 KCAL/MOL
REMARK 927      BINDING AFFINITY PREDICTED BY RF-SCORE:    0.00 PKD
ROOT
HETATM    1  C   UNL     1     -10.694   7.568  69.181  1.00  0.00    -0.151 C  
HETATM    2  S   UNL     1     -10.009   7.337  67.517  1.00  0.00    -0.186 SA 
HETATM    3  C   UNL     1      -9.484   5.643  67.848  1.00  0.00    -0.113 C  
HETATM    4  C   UNL     1      -8.709   5.460  69.149  1.00  0.00    -0.104 C  
HETATM    5  OXT UNL     1      -6.834   5.441  71.363  1.00  0.00    -0.053 OA 
HETATM    6  CA  UNL     1      -8.762   6.334  70.196  1.00  0.00    -0.138 C  
HETATM    7  C   UNL     1      -7.814   6.173  71.374  1.00  0.00    -0.108 C  
HETATM    8  CA  UNL     1     -10.786   9.062  69.651  1.00  0.00    -0.186 C  
HETATM    9  N   UNL     1      -9.625   7.399  70.149  1.00  0.00    -0.165 N  
HETATM   10  O   UNL     1      -8.136   6.834  72.503  1.00  0.00    -0.104 OA 
HETATM   11  C   UNL     1      -9.806   8.580  70.780  1.00  0.00    -0.182 C  
HETATM   12  O   UNL     1      -9.277   9.003  71.784  1.00  0.00    -0.329 OA 
ENDROOT
BRANCH   4  13
HETATM   13  C   UNL     1      -7.789   4.243  69.039  1.00  0.00    -0.061 C  
BRANCH  13  14
HETATM   14  S   UNL     1      -8.534   2.639  69.419  1.00  0.00    -0.067 SA 
BRANCH  14  15
HETATM   15  C   UNL     1      -8.063   2.312  71.035  1.00  0.00    -0.049 A  
HETATM   16  N   UNL     1      -7.006   1.661  71.459  1.00  0.00    -0.027 NA 
HETATM   17  N   UNL     1      -7.105   1.636  72.830  1.00  0.00    -0.023 NA 
HETATM   18  C   UNL     1     -10.018   3.456  72.180  1.00  0.00    -0.160 C  
HETATM   19  N   UNL     1      -8.797   2.700  72.118  1.00  0.00    -0.073 NA 
HETATM   20  N   UNL     1      -8.196   2.268  73.242  1.00  0.00    -0.054 NA 
ENDBRANCH  14  15
ENDBRANCH  13  14
ENDBRANCH   4  13
BRANCH   8  21
HETATM   21  N   UNL     1     -10.219  10.045  68.690  1.00  0.00    -0.172 N  
HETATM   22  O   UNL     1     -12.158  11.140  68.191  1.00  0.00    -0.633 OA 
HETATM   23  H   UNL     1      -9.226   9.971  68.468  1.00  0.00     0.000 HD 
HETATM   24  C   UNL     1     -10.938  11.049  68.080  1.00  0.00    -0.258 C  
BRANCH  24  25
HETATM   25  C   UNL     1     -10.083  12.025  67.238  1.00  0.00    -0.194 C  
BRANCH  25  26
HETATM   26  O   UNL     1      -9.891  13.218  68.023  1.00  0.00    -0.217 OA 
HETATM   27  O   UNL     1      -7.625  13.107  67.615  1.00  0.00    -0.142 OA 
HETATM   28  C   UNL     1      -8.605  13.644  68.100  1.00  0.00    -0.176 C  
ENDBRANCH  25  26
BRANCH  25  29
HETATM   29  C   UNL     1     -10.759  12.357  65.914  1.00  0.00    -0.299 A  
HETATM   30  C   UNL     1     -10.605  11.491  64.824  1.00  0.00    -0.362 A  
HETATM   31  C   UNL     1     -11.199  11.782  63.595  1.00  0.00    -0.519 A  
HETATM   32  C   UNL     1     -11.968  12.934  63.445  1.00  0.00    -0.612 A  
HETATM   33  C   UNL     1     -12.145  13.797  64.521  1.00  0.00    -0.463 A  
HETATM   34  C   UNL     1     -11.546  13.512  65.748  1.00  0.00    -0.351 A  
ENDBRANCH  25  29
ENDBRANCH  24  25
ENDBRANCH   8  21
TORSDOF 7
ENDMDL
MODEL      140
REMARK 921   NORMALIZED FREE ENERGY PREDICTED BY IDOCK:   -4.70 KCAL/MOL
REMARK 922        TOTAL FREE ENERGY PREDICTED BY IDOCK:   -8.12 KCAL/MOL
REMARK 923 INTER-LIGAND FREE ENERGY PREDICTED BY IDOCK:   -6.93 KCAL/MOL
REMARK 924 INTRA-LIGAND FREE ENERGY PREDICTED BY IDOCK:   -1.19 KCAL/MOL
REMARK 927      BINDING AFFINITY PREDICTED BY RF-SCORE:    0.00 PKD
ROOT
HETATM    1  C   UNL     1      -7.655   9.433  68.303  1.00  0.00    -0.082 C  
HETATM    2  S   UNL     1      -8.509  10.214  69.699  1.00  0.00    -0.116 SA 
HETATM    3  C   UNL     1      -8.994   8.637  70.428  1.00  0.00    -0.158 C  
HETATM    4  C   UNL     1      -9.629   7.653  69.452  1.00  0.00    -0.159 C  
HETATM    5  OXT UNL     1     -11.262   6.174  67.564  1.00  0.00    -0.292 OA 
HETATM    6  CA  UNL     1      -9.469   7.715  68.097  1.00  0.00    -0.145 C  
HETATM    7  C   UNL     1     -10.288   6.811  67.189  1.00  0.00    -0.258 C  
HETATM    8  CA  UNL     1      -7.516  10.338  67.029  1.00  0.00    -0.093 C  
HETATM    9  N   UNL     1      -8.616   8.642  67.556  1.00  0.00    -0.134 N  
HETATM   10  O   UNL     1      -9.851   6.670  65.923  1.00  0.00     0.164 OA 
HETATM   11  C   UNL     1      -8.372   9.207  66.353  1.00  0.00    -0.122 C  
HETATM   12  O   UNL     1      -8.794   8.899  65.260  1.00  0.00    -0.191 OA 
ENDROOT
BRANCH   4  13
HETATM   13  C   UNL     1     -10.554   6.696  70.205  1.00  0.00    -0.222 C  
BRANCH  13  14
HETATM   14  S   UNL     1     -11.058   7.211  71.864  1.00  0.00    -0.243 SA 
BRANCH  14  15
HETATM   15  C   UNL     1     -12.251   8.415  71.604  1.00  0.00    -0.315 A  
HETATM   16  N   UNL     1     -12.084   9.708  71.460  1.00  0.00    -0.376 NA 
HETATM   17  N   UNL     1     -13.346  10.236  71.319  1.00  0.00    -0.332 NA 
HETATM   18  C   UNL     1     -14.270   6.877  71.612  1.00  0.00    -0.190 C  
HETATM   19  N   UNL     1     -13.586   8.139  71.536  1.00  0.00    -0.324 NA 
HETATM   20  N   UNL     1     -14.269   9.285  71.364  1.00  0.00    -0.121 NA 
ENDBRANCH  14  15
ENDBRANCH  13  14
ENDBRANCH   4  13
BRANCH   8  21
HETATM   21  N   UNL     1      -8.182  11.663  67.140  1.00  0.00    -0.158 N  
HETATM   22  O   UNL     1      -6.300  12.954  67.123  1.00  0.00    -0.249 OA 
HETATM   23  H   UNL     1      -9.197  11.676  67.240  1.00  0.00     0.000 HD 
HETATM   24  C   UNL     1      -7.526  12.874  67.118  1.00  0.00    -0.006 C  
BRANCH  24  25
HETATM   25  C   UNL     1      -8.461  14.105  67.103  1.00  0.00    -0.195 C  
BRANCH  25  26
HETATM   26  O   UNL     1      -8.681  14.497  68.473  1.00  0.00    -0.169 OA 
HETATM   27  O   UNL     1      -7.309  16.322  68.156  1.00  0.00    -0.134 OA 
HETATM   28  C   UNL     1      -8.050  15.640  68.842  1.00  0.00    -0.197 C  
ENDBRANCH  25  26
BRANCH  25  29
HETATM   29  C   UNL     1      -9.785  13.791  66.417  1.00  0.00    -0.304 A  
HETATM   30  C   UNL     1     -10.907  13.477  67.195  1.00  0.00    -0.291 A  
HETATM   31  C   UNL     1     -12.126  13.167  66.591  1.00  0.00    -0.409 A  
HETATM   32  C   UNL     1     -12.245  13.183  65.204  1.00  0.00    -0.497 A  
HETATM   33  C   UNL     1     -11.145  13.508  64.416  1.00  0.00    -0.397 A  
HETATM   34  C   UNL     1      -9.924  13.811  65.017  1.00  0.00    -0.211 A  
ENDBRANCH  25  29
ENDBRANCH  24  25
ENDBRANCH   8  21
TORSDOF 7
ENDMDL
MODEL      141
REMARK 921   NORMALIZED FREE ENERGY PREDICTED BY IDOCK:   -4.70 KCAL/MOL
REMARK 922        TOTAL FREE ENERGY PREDICTED BY IDOCK:   -8.12 KCAL/MOL
REMARK 923 INTER-LIGAND FREE ENERGY PREDICTED BY IDOCK:   -7.15 KCAL/MOL
REMARK 924 INTRA-LIGAND FREE ENERGY PREDICTED BY IDOCK:   -0.97 KCAL/MOL
REMARK 927      BINDING AFFINITY PREDICTED BY RF-SCORE:    0.00 PKD
ROOT
HETATM    1  C   UNL     1     -11.321  10.530  67.639  1.00  0.00    -0.154 C  
HETATM    2  S   UNL     1     -10.748  11.219  69.216  1.00  0.00    -0.133 SA 
HETATM    3  C   UNL     1     -11.553  12.809  68.941  1.00  0.00    -0.316 C  
HETATM    4  C   UNL     1     -11.296  13.424  67.569  1.00  0.00    -0.327 C  
HETATM    5  OXT UNL     1     -10.255  14.631  65.144  1.00  0.00    -0.383 OA 
HETATM    6  CA  UNL     1     -10.891  12.710  66.479  1.00  0.00    -0.258 C  
HETATM    7  C   UNL     1     -10.475  13.429  65.205  1.00  0.00    -0.347 C  
HETATM    8  CA  UNL     1     -10.448   9.352  67.081  1.00  0.00    -0.244 C  
HETATM    9  N   UNL     1     -10.794  11.344  66.559  1.00  0.00    -0.281 N  
HETATM   10  O   UNL     1     -10.422  12.688  64.082  1.00  0.00    -0.368 OA 
HETATM   11  C   UNL     1     -10.218  10.331  65.874  1.00  0.00    -0.223 C  
HETATM   12  O   UNL     1      -9.689  10.344  64.785  1.00  0.00    -0.269 OA 
ENDROOT
BRANCH   4  13
HETATM   13  C   UNL     1     -11.431  14.945  67.648  1.00  0.00    -0.352 C  
BRANCH  13  14
HETATM   14  S   UNL     1     -10.146  15.816  68.575  1.00  0.00    -0.221 SA 
BRANCH  14  15
HETATM   15  C   UNL     1      -9.908  17.283  67.719  1.00  0.00    -0.281 A  
HETATM   16  N   UNL     1     -10.703  18.324  67.651  1.00  0.00    -0.403 NA 
HETATM   17  N   UNL     1     -10.082  19.217  66.810  1.00  0.00    -0.352 NA 
HETATM   18  C   UNL     1      -7.645  16.713  66.721  1.00  0.00    -0.257 C  
HETATM   19  N   UNL     1      -8.806  17.527  66.951  1.00  0.00    -0.243 NA 
HETATM   20  N   UNL     1      -8.923  18.739  66.378  1.00  0.00    -0.364 NA 
ENDBRANCH  14  15
ENDBRANCH  13  14
ENDBRANCH   4  13
BRANCH   8  21
HETATM   21  N   UNL     1      -9.240   9.044  67.893  1.00  0.00    -0.140 N  
HETATM   22  O   UNL     1     -10.223   7.621  69.380  1.00  0.00    -0.195 OA 
HETATM   23  H   UNL     1      -8.374   9.527  67.653  1.00  0.00     0.000 HD 
HETATM   24  C   UNL     1      -9.207   8.154  68.943  1.00  0.00    -0.147 C  
BRANCH  24  25
HETATM   25  C   UNL     1      -7.796   7.907  69.526  1.00  0.00    -0.110 C  
BRANCH  25  26
HETATM   26  O   UNL     1      -6.950   8.986  69.080  1.00  0.00    -0.057 OA 
HETATM   27  O   UNL     1      -7.154   9.982  71.149  1.00  0.00    -0.291 OA 
HETATM   28  C   UNL     1      -6.707   9.937  70.016  1.00  0.00    -0.100 C  
ENDBRANCH  25  26
BRANCH  25  29
HETATM   29  C   UNL     1      -7.235   6.565  69.074  1.00  0.00    -0.091 A  
HETATM   30  C   UNL     1      -6.196   5.971  69.803  1.00  0.00    -0.027 A  
HETATM   31  C   UNL     1      -5.653   4.750  69.400  1.00  0.00    -0.015 A  
HETATM   32  C   UNL     1      -6.150   4.100  68.273  1.00  0.00    -0.031 A  
HETATM   33  C   UNL     1      -7.191   4.668  67.546  1.00  0.00    -0.069 A  
HETATM   34  C   UNL     1      -7.731   5.891  67.943  1.00  0.00    -0.100 A  
ENDBRANCH  25  29
ENDBRANCH  24  25
ENDBRANCH   8  21
TORSDOF 7
ENDMDL
MODEL      142
REMARK 921   NORMALIZED FREE ENERGY PREDICTED BY IDOCK:   -4.70 KCAL/MOL
REMARK 922        TOTAL FREE ENERGY PREDICTED BY IDOCK:   -8.12 KCAL/MOL
REMARK 923 INTER-LIGAND FREE ENERGY PREDICTED BY IDOCK:   -6.84 KCAL/MOL
REMARK 924 INTRA-LIGAND FREE ENERGY PREDICTED BY IDOCK:   -1.28 KCAL/MOL
REMARK 927      BINDING AFFINITY PREDICTED BY RF-SCORE:    0.00 PKD
ROOT
HETATM    1  C   UNL     1      -6.569   8.861  68.665  1.00  0.00    -0.054 C  
HETATM    2  S   UNL     1      -8.100   7.994  68.225  1.00  0.00    -0.127 SA 
HETATM    3  C   UNL     1      -8.365   8.985  66.742  1.00  0.00    -0.115 C  
HETATM    4  C   UNL     1      -8.238  10.490  66.951  1.00  0.00    -0.123 C  
HETATM    5  OXT UNL     1      -8.469  13.288  67.684  1.00  0.00    -0.164 OA 
HETATM    6  CA  UNL     1      -7.568  11.060  67.995  1.00  0.00    -0.092 C  
HETATM    7  C   UNL     1      -7.653  12.560  68.231  1.00  0.00    -0.129 C  
HETATM    8  CA  UNL     1      -6.191   8.794  70.187  1.00  0.00    -0.034 C  
HETATM    9  N   UNL     1      -6.874  10.265  68.871  1.00  0.00    -0.057 N  
HETATM   10  O   UNL     1      -6.720  13.098  69.040  1.00  0.00    -0.100 OA 
HETATM   11  C   UNL     1      -6.337  10.356  70.108  1.00  0.00    -0.123 C  
HETATM   12  O   UNL     1      -6.172  11.334  70.804  1.00  0.00    -0.352 OA 
ENDROOT
BRANCH   4  13
HETATM   13  C   UNL     1      -9.073  11.233  65.906  1.00  0.00    -0.204 C  
BRANCH  13  14
HETATM   14  S   UNL     1     -10.830  10.810  65.838  1.00  0.00     0.080 SA 
BRANCH  14  15
HETATM   15  C   UNL     1     -11.645  12.315  65.938  1.00  0.00    -0.393 A  
HETATM   16  N   UNL     1     -11.885  13.043  67.003  1.00  0.00    -0.381 NA 
HETATM   17  N   UNL     1     -12.600  14.131  66.561  1.00  0.00    -0.287 NA 
HETATM   18  C   UNL     1     -12.167  12.564  63.466  1.00  0.00    -0.558 C  
HETATM   19  N   UNL     1     -12.184  12.944  64.853  1.00  0.00    -0.426 NA 
HETATM   20  N   UNL     1     -12.787  14.079  65.249  1.00  0.00    -0.744 NA 
ENDBRANCH  14  15
ENDBRANCH  13  14
ENDBRANCH   4  13
BRANCH   8  21
HETATM   21  N   UNL     1      -7.193   8.101  71.040  1.00  0.00    -0.054 N  
HETATM   22  O   UNL     1      -6.336   5.993  70.872  1.00  0.00    -0.037 OA 
HETATM   23  H   UNL     1      -7.965   8.657  71.409  1.00  0.00     0.000 HD 
HETATM   24  C   UNL     1      -7.154   6.764  71.367  1.00  0.00    -0.075 C  
BRANCH  24  25
HETATM   25  C   UNL     1      -8.232   6.325  72.385  1.00  0.00    -0.107 C  
BRANCH  25  26
HETATM   26  O   UNL     1      -8.154   4.891  72.504  1.00  0.00    -0.110 OA 
HETATM   27  O   UNL     1      -7.001   5.132  74.485  1.00  0.00    -0.075 OA 
HETATM   28  C   UNL     1      -7.523   4.450  73.621  1.00  0.00    -0.077 C  
ENDBRANCH  25  26
BRANCH  25  29
HETATM   29  C   UNL     1      -9.625   6.750  71.939  1.00  0.00    -0.150 A  
HETATM   30  C   UNL     1     -10.331   7.698  72.692  1.00  0.00    -0.332 A  
HETATM   31  C   UNL     1     -11.615   8.092  72.315  1.00  0.00    -0.424 A  
HETATM   32  C   UNL     1     -12.205   7.555  71.173  1.00  0.00    -0.330 A  
HETATM   33  C   UNL     1     -11.513   6.624  70.405  1.00  0.00    -0.444 A  
HETATM   34  C   UNL     1     -10.232   6.224  70.784  1.00  0.00    -0.238 A  
ENDBRANCH  25  29
ENDBRANCH  24  25
ENDBRANCH   8  21
TORSDOF 7
ENDMDL
MODEL      143
REMARK 921   NORMALIZED FREE ENERGY PREDICTED BY IDOCK:   -4.66 KCAL/MOL
REMARK 922        TOTAL FREE ENERGY PREDICTED BY IDOCK:   -8.07 KCAL/MOL
REMARK 923 INTER-LIGAND FREE ENERGY PREDICTED BY IDOCK:   -6.46 KCAL/MOL
REMARK 924 INTRA-LIGAND FREE ENERGY PREDICTED BY IDOCK:   -1.61 KCAL/MOL
REMARK 927      BINDING AFFINITY PREDICTED BY RF-SCORE:    0.00 PKD
ROOT
HETATM    1  C   UNL     1      -7.444   8.390  67.879  1.00  0.00    -0.098 C  
HETATM    2  S   UNL     1      -9.159   7.961  67.477  1.00  0.00    -0.134 SA 
HETATM    3  C   UNL     1      -9.365   9.363  66.361  1.00  0.00    -0.187 C  
HETATM    4  C   UNL     1      -8.906  10.702  66.930  1.00  0.00    -0.143 C  
HETATM    5  OXT UNL     1      -8.470  13.172  68.389  1.00  0.00    -0.168 OA 
HETATM    6  CA  UNL     1      -8.026  10.826  67.967  1.00  0.00    -0.108 C  
HETATM    7  C   UNL     1      -7.771  12.188  68.593  1.00  0.00    -0.089 C  
HETATM    8  CA  UNL     1      -6.931   7.829  69.251  1.00  0.00    -0.060 C  
HETATM    9  N   UNL     1      -7.426   9.708  68.487  1.00  0.00    -0.079 N  
HETATM   10  O   UNL     1      -6.668  12.306  69.356  1.00  0.00    -0.102 OA 
HETATM   11  C   UNL     1      -6.755   9.350  69.604  1.00  0.00    -0.048 C  
HETATM   12  O   UNL     1      -6.318  10.045  70.494  1.00  0.00    -0.093 OA 
ENDROOT
BRANCH   4  13
HETATM   13  C   UNL     1      -9.672  11.842  66.259  1.00  0.00    -0.229 C  
BRANCH  13  14
HETATM   14  S   UNL     1     -11.466  11.843  66.485  1.00  0.00    -0.245 SA 
BRANCH  14  15
HETATM   15  C   UNL     1     -11.743  12.947  67.768  1.00  0.00    -0.362 A  
HETATM   16  N   UNL     1     -11.853  14.252  67.710  1.00  0.00    -0.377 NA 
HETATM   17  N   UNL     1     -12.028  14.673  69.007  1.00  0.00    -0.302 NA 
HETATM   18  C   UNL     1     -11.841  11.241  69.646  1.00  0.00    -0.360 C  
HETATM   19  N   UNL     1     -11.865  12.559  69.071  1.00  0.00    -0.307 NA 
HETATM   20  N   UNL     1     -12.036  13.645  69.845  1.00  0.00    -0.337 NA 
ENDBRANCH  14  15
ENDBRANCH  13  14
ENDBRANCH   4  13
BRANCH   8  21
HETATM   21  N   UNL     1      -7.962   7.105  70.043  1.00  0.00    -0.116 N  
HETATM   22  O   UNL     1      -7.567   5.013  69.221  1.00  0.00    -0.063 OA 
HETATM   23  H   UNL     1      -8.564   7.658  70.653  1.00  0.00     0.000 HD 
HETATM   24  C   UNL     1      -8.160   5.743  70.012  1.00  0.00    -0.108 C  
BRANCH  24  25
HETATM   25  C   UNL     1      -9.196   5.226  71.038  1.00  0.00    -0.147 C  
BRANCH  25  26
HETATM   26  O   UNL     1      -9.696   3.966  70.548  1.00  0.00    -0.183 OA 
HETATM   27  O   UNL     1      -9.420   3.055  72.648  1.00  0.00    -0.098 OA 
HETATM   28  C   UNL     1      -9.765   2.984  71.481  1.00  0.00    -0.153 C  
ENDBRANCH  25  26
BRANCH  25  29
HETATM   29  C   UNL     1     -10.336   6.218  71.225  1.00  0.00    -0.255 A  
HETATM   30  C   UNL     1     -11.348   6.297  70.259  1.00  0.00    -0.457 A  
HETATM   31  C   UNL     1     -12.394   7.210  70.399  1.00  0.00    -0.008 A  
HETATM   32  C   UNL     1     -12.451   8.045  71.512  1.00  0.00    -0.334 A  
HETATM   33  C   UNL     1     -11.464   7.969  72.490  1.00  0.00    -0.471 A  
HETATM   34  C   UNL     1     -10.414   7.062  72.349  1.00  0.00    -0.236 A  
ENDBRANCH  25  29
ENDBRANCH  24  25
ENDBRANCH   8  21
TORSDOF 7
ENDMDL
MODEL      144
REMARK 921   NORMALIZED FREE ENERGY PREDICTED BY IDOCK:   -4.60 KCAL/MOL
REMARK 922        TOTAL FREE ENERGY PREDICTED BY IDOCK:   -7.97 KCAL/MOL
REMARK 923 INTER-LIGAND FREE ENERGY PREDICTED BY IDOCK:   -7.21 KCAL/MOL
REMARK 924 INTRA-LIGAND FREE ENERGY PREDICTED BY IDOCK:   -0.76 KCAL/MOL
REMARK 927      BINDING AFFINITY PREDICTED BY RF-SCORE:    0.00 PKD
ROOT
HETATM    1  C   UNL     1      -8.596  13.926  66.317  1.00  0.00     0.546 C  
HETATM    2  S   UNL     1      -7.670  14.172  67.857  1.00  0.00    -0.177 SA 
HETATM    3  C   UNL     1      -7.875  12.459  68.383  1.00  0.00    -0.142 C  
HETATM    4  C   UNL     1      -9.304  11.932  68.293  1.00  0.00    -0.193 C  
HETATM    5  OXT UNL     1     -12.130  11.324  68.535  1.00  0.00    -0.573 OA 
HETATM    6  CA  UNL     1     -10.269  12.483  67.501  1.00  0.00    -0.217 C  
HETATM    7  C   UNL     1     -11.711  12.013  67.616  1.00  0.00    -0.294 C  
HETATM    8  CA  UNL     1      -9.226  15.231  65.714  1.00  0.00    -0.098 C  
HETATM    9  N   UNL     1      -9.946  13.509  66.650  1.00  0.00    -0.274 N  
HETATM   10  O   UNL     1     -12.533  12.332  66.598  1.00  0.00    -0.300 OA 
HETATM   11  C   UNL     1     -10.580  14.467  65.939  1.00  0.00    -0.309 C  
HETATM   12  O   UNL     1     -11.763  14.602  65.716  1.00  0.00    -0.352 OA 
ENDROOT
BRANCH   4  13
HETATM   13  C   UNL     1      -9.506  10.804  69.306  1.00  0.00    -0.082 C  
BRANCH  13  14
HETATM   14  S   UNL     1      -9.808   9.158  68.620  1.00  0.00    -0.168 SA 
BRANCH  14  15
HETATM   15  C   UNL     1     -10.441   8.249  69.930  1.00  0.00    -0.223 A  
HETATM   16  N   UNL     1     -11.554   8.446  70.595  1.00  0.00    -0.239 NA 
HETATM   17  N   UNL     1     -11.586   7.477  71.569  1.00  0.00    -0.264 NA 
HETATM   18  C   UNL     1      -8.566   6.544  70.075  1.00  0.00    -0.140 C  
HETATM   19  N   UNL     1      -9.800   7.170  70.465  1.00  0.00    -0.180 NA 
HETATM   20  N   UNL     1     -10.518   6.692  71.498  1.00  0.00    -0.214 NA 
ENDBRANCH  14  15
ENDBRANCH  13  14
ENDBRANCH   4  13
BRANCH   8  21
HETATM   21  N   UNL     1      -9.034  16.448  66.547  1.00  0.00    -0.250 N  
HETATM   22  O   UNL     1     -10.551  17.785  65.491  1.00  0.00    -0.632 OA 
HETATM   23  H   UNL     1      -8.316  16.418  67.272  1.00  0.00     0.000 HD 
HETATM   24  C   UNL     1      -9.755  17.613  66.410  1.00  0.00    -0.294 C  
BRANCH  24  25
HETATM   25  C   UNL     1      -9.461  18.676  67.494  1.00  0.00    -0.291 C  
BRANCH  25  26
HETATM   26  O   UNL     1     -10.415  19.742  67.323  1.00  0.00    -0.426 OA 
HETATM   27  O   UNL     1     -10.201  20.274  69.556  1.00  0.00    -0.145 OA 
HETATM   28  C   UNL     1     -10.665  20.463  68.445  1.00  0.00     0.304 C  
ENDBRANCH  25  26
BRANCH  25  29
HETATM   29  C   UNL     1      -8.038  19.208  67.380  1.00  0.00    -0.296 A  
HETATM   30  C   UNL     1      -7.655  19.915  66.233  1.00  0.00    -0.327 A  
HETATM   31  C   UNL     1      -6.353  20.397  66.096  1.00  0.00    -0.247 A  
HETATM   32  C   UNL     1      -5.421  20.193  67.110  1.00  0.00    -0.177 A  
HETATM   33  C   UNL     1      -5.787  19.507  68.264  1.00  0.00    -0.237 A  
HETATM   34  C   UNL     1      -7.086  19.019  68.400  1.00  0.00    -0.304 A  
ENDBRANCH  25  29
ENDBRANCH  24  25
ENDBRANCH   8  21
TORSDOF 7
ENDMDL
MODEL      145
REMARK 921   NORMALIZED FREE ENERGY PREDICTED BY IDOCK:   -4.60 KCAL/MOL
REMARK 922        TOTAL FREE ENERGY PREDICTED BY IDOCK:   -7.97 KCAL/MOL
REMARK 923 INTER-LIGAND FREE ENERGY PREDICTED BY IDOCK:   -7.78 KCAL/MOL
REMARK 924 INTRA-LIGAND FREE ENERGY PREDICTED BY IDOCK:   -0.19 KCAL/MOL
REMARK 927      BINDING AFFINITY PREDICTED BY RF-SCORE:    0.00 PKD
ROOT
HETATM    1  C   UNL     1      -9.526   6.279  68.131  1.00  0.00    -0.113 C  
HETATM    2  S   UNL     1     -10.819   7.540  68.299  1.00  0.00     0.090 SA 
HETATM    3  C   UNL     1     -10.648   8.100  66.592  1.00  0.00    -0.006 C  
HETATM    4  C   UNL     1      -9.214   8.369  66.151  1.00  0.00    -0.263 C  
HETATM    5  OXT UNL     1      -6.504   9.307  65.705  1.00  0.00    -0.066 OA 
HETATM    6  CA  UNL     1      -8.116   7.842  66.769  1.00  0.00    -0.115 C  
HETATM    7  C   UNL     1      -6.722   8.312  66.383  1.00  0.00    -0.062 C  
HETATM    8  CA  UNL     1      -8.846   5.852  69.479  1.00  0.00    -0.123 C  
HETATM    9  N   UNL     1      -8.279   6.938  67.787  1.00  0.00    -0.117 N  
HETATM   10  O   UNL     1      -5.694   7.531  66.765  1.00  0.00    -0.026 OA 
HETATM   11  C   UNL     1      -7.547   6.407  68.792  1.00  0.00    -0.093 C  
HETATM   12  O   UNL     1      -6.356   6.485  68.999  1.00  0.00    -0.032 OA 
ENDROOT
BRANCH   4  13
HETATM   13  C   UNL     1      -9.201   9.399  65.022  1.00  0.00    -0.218 C  
BRANCH  13  14
HETATM   14  S   UNL     1      -9.264  11.136  65.523  1.00  0.00    -0.199 SA 
BRANCH  14  15
HETATM   15  C   UNL     1     -10.814  11.677  65.029  1.00  0.00    -0.288 A  
HETATM   16  N   UNL     1     -11.302  11.750  63.814  1.00  0.00    -0.420 NA 
HETATM   17  N   UNL     1     -12.562  12.284  63.946  1.00  0.00    -0.670 NA 
HETATM   18  C   UNL     1     -11.712  12.238  67.336  1.00  0.00    -0.335 C  
HETATM   19  N   UNL     1     -11.755  12.139  65.903  1.00  0.00    -0.482 NA 
HETATM   20  N   UNL     1     -12.847  12.525  65.218  1.00  0.00    -0.562 NA 
ENDBRANCH  14  15
ENDBRANCH  13  14
ENDBRANCH   4  13
BRANCH   8  21
HETATM   21  N   UNL     1      -9.312   6.611  70.670  1.00  0.00    -0.162 N  
HETATM   22  O   UNL     1      -7.957   8.430  70.424  1.00  0.00    -0.091 OA 
HETATM   23  H   UNL     1     -10.005   6.168  71.272  1.00  0.00     0.000 HD 
HETATM   24  C   UNL     1      -8.875   7.870  71.017  1.00  0.00    -0.141 C  
BRANCH  24  25
HETATM   25  C   UNL     1      -9.622   8.496  72.218  1.00  0.00    -0.307 C  
BRANCH  25  26
HETATM   26  O   UNL     1      -9.730   7.482  73.236  1.00  0.00    -0.220 OA 
HETATM   27  O   UNL     1      -7.982   8.462  74.376  1.00  0.00    -0.251 OA 
HETATM   28  C   UNL     1      -8.850   7.615  74.261  1.00  0.00    -0.182 C  
ENDBRANCH  25  26
BRANCH  25  29
HETATM   29  C   UNL     1     -11.003   8.997  71.813  1.00  0.00    -0.443 A  
HETATM   30  C   UNL     1     -12.143   8.319  72.266  1.00  0.00    -0.439 A  
HETATM   31  C   UNL     1     -13.418   8.747  71.895  1.00  0.00    -0.447 A  
HETATM   32  C   UNL     1     -13.572   9.866  71.080  1.00  0.00    -0.223 A  
HETATM   33  C   UNL     1     -12.452  10.561  70.635  1.00  0.00    -0.456 A  
HETATM   34  C   UNL     1     -11.177  10.131  70.998  1.00  0.00    -0.322 A  
ENDBRANCH  25  29
ENDBRANCH  24  25
ENDBRANCH   8  21
TORSDOF 7
ENDMDL
MODEL      146
REMARK 921   NORMALIZED FREE ENERGY PREDICTED BY IDOCK:   -4.59 KCAL/MOL
REMARK 922        TOTAL FREE ENERGY PREDICTED BY IDOCK:   -7.97 KCAL/MOL
REMARK 923 INTER-LIGAND FREE ENERGY PREDICTED BY IDOCK:   -7.49 KCAL/MOL
REMARK 924 INTRA-LIGAND FREE ENERGY PREDICTED BY IDOCK:   -0.48 KCAL/MOL
REMARK 927      BINDING AFFINITY PREDICTED BY RF-SCORE:    0.00 PKD
ROOT
HETATM    1  C   UNL     1     -10.913  10.256  67.310  1.00  0.00    -0.210 C  
HETATM    2  S   UNL     1     -10.439  11.271  68.737  1.00  0.00    -0.208 SA 
HETATM    3  C   UNL     1     -11.557  12.615  68.292  1.00  0.00    -0.332 C  
HETATM    4  C   UNL     1     -11.474  13.057  66.835  1.00  0.00    -0.387 C  
HETATM    5  OXT UNL     1     -10.777  14.068  64.206  1.00  0.00    -0.301 OA 
HETATM    6  CA  UNL     1     -10.968  12.281  65.832  1.00  0.00    -0.302 C  
HETATM    7  C   UNL     1     -10.748  12.869  64.447  1.00  0.00    -0.386 C  
HETATM    8  CA  UNL     1      -9.838   9.201  66.869  1.00  0.00    -0.217 C  
HETATM    9  N   UNL     1     -10.596  10.987  66.096  1.00  0.00    -0.250 N  
HETATM   10  O   UNL     1     -10.583  11.994  63.438  1.00  0.00    -0.423 OA 
HETATM   11  C   UNL     1      -9.850  10.016  65.525  1.00  0.00    -0.303 C  
HETATM   12  O   UNL     1      -9.370   9.968  64.414  1.00  0.00    -0.256 OA 
ENDROOT
BRANCH   4  13
HETATM   13  C   UNL     1     -11.911  14.517  66.709  1.00  0.00    -0.371 C  
BRANCH  13  14
HETATM   14  S   UNL     1     -11.172  15.677  67.884  1.00  0.00    -0.296 SA 
BRANCH  14  15
HETATM   15  C   UNL     1     -10.026  16.560  66.963  1.00  0.00    -0.268 A  
HETATM   16  N   UNL     1      -9.060  16.098  66.206  1.00  0.00    -0.310 NA 
HETATM   17  N   UNL     1      -8.402  17.203  65.721  1.00  0.00    -0.466 NA 
HETATM   18  C   UNL     1     -10.840  18.885  67.577  1.00  0.00    -0.364 C  
HETATM   19  N   UNL     1      -9.984  17.924  66.936  1.00  0.00    -0.318 NA 
HETATM   20  N   UNL     1      -8.959  18.323  66.161  1.00  0.00    -0.498 NA 
ENDBRANCH  14  15
ENDBRANCH  13  14
ENDBRANCH   4  13
BRANCH   8  21
HETATM   21  N   UNL     1      -8.567   9.259  67.639  1.00  0.00    -0.116 N  
HETATM   22  O   UNL     1      -7.146   9.485  65.869  1.00  0.00    -0.091 OA 
HETATM   23  H   UNL     1      -8.622   9.143  68.651  1.00  0.00     0.000 HD 
HETATM   24  C   UNL     1      -7.323   9.458  67.084  1.00  0.00    -0.087 C  
BRANCH  24  25
HETATM   25  C   UNL     1      -6.183   9.622  68.116  1.00  0.00    -0.055 C  
BRANCH  25  26
HETATM   26  O   UNL     1      -6.361   8.605  69.121  1.00  0.00    -0.042 OA 
HETATM   27  O   UNL     1      -5.160   7.128  67.821  1.00  0.00    -0.017 OA 
HETATM   28  C   UNL     1      -5.773   7.417  68.835  1.00  0.00    -0.022 C  
ENDBRANCH  25  26
BRANCH  25  29
HETATM   29  C   UNL     1      -6.199  11.008  68.748  1.00  0.00    -0.044 A  
HETATM   30  C   UNL     1      -6.787  12.075  68.055  1.00  0.00    -0.078 A  
HETATM   31  C   UNL     1      -6.799  13.358  68.603  1.00  0.00    -0.098 A  
HETATM   32  C   UNL     1      -6.239  13.589  69.857  1.00  0.00    -0.108 A  
HETATM   33  C   UNL     1      -5.665  12.538  70.566  1.00  0.00    -0.170 A  
HETATM   34  C   UNL     1      -5.645  11.257  70.017  1.00  0.00    -0.095 A  
ENDBRANCH  25  29
ENDBRANCH  24  25
ENDBRANCH   8  21
TORSDOF 7
ENDMDL
MODEL      147
REMARK 921   NORMALIZED FREE ENERGY PREDICTED BY IDOCK:   -4.59 KCAL/MOL
REMARK 922        TOTAL FREE ENERGY PREDICTED BY IDOCK:   -7.96 KCAL/MOL
REMARK 923 INTER-LIGAND FREE ENERGY PREDICTED BY IDOCK:   -6.82 KCAL/MOL
REMARK 924 INTRA-LIGAND FREE ENERGY PREDICTED BY IDOCK:   -1.14 KCAL/MOL
REMARK 927      BINDING AFFINITY PREDICTED BY RF-SCORE:    0.00 PKD
ROOT
HETATM    1  C   UNL     1     -11.088   8.783  67.715  1.00  0.00     0.345 C  
HETATM    2  S   UNL     1     -10.617  10.024  68.951  1.00  0.00    -0.228 SA 
HETATM    3  C   UNL     1     -10.664  11.384  67.767  1.00  0.00    -0.211 C  
HETATM    4  C   UNL     1      -9.919  11.118  66.463  1.00  0.00    -0.252 C  
HETATM    5  OXT UNL     1      -8.030  10.604  64.322  1.00  0.00    -0.058 OA 
HETATM    6  CA  UNL     1      -9.617   9.870  65.999  1.00  0.00    -0.225 C  
HETATM    7  C   UNL     1      -8.709   9.702  64.791  1.00  0.00    -0.193 C  
HETATM    8  CA  UNL     1     -10.652   7.316  68.059  1.00  0.00    -0.189 C  
HETATM    9  N   UNL     1     -10.081   8.766  66.669  1.00  0.00    -0.281 N  
HETATM   10  O   UNL     1      -8.727   8.500  64.184  1.00  0.00    -0.036 OA 
HETATM   11  C   UNL     1      -9.823   7.441  66.731  1.00  0.00    -0.220 C  
HETATM   12  O   UNL     1      -9.126   6.760  66.011  1.00  0.00    -0.148 OA 
ENDROOT
BRANCH   4  13
HETATM   13  C   UNL     1      -9.462  12.441  65.846  1.00  0.00    -0.129 C  
BRANCH  13  14
HETATM   14  S   UNL     1      -9.932  13.943  66.737  1.00  0.00    -0.276 SA 
BRANCH  14  15
HETATM   15  C   UNL     1     -10.763  14.895  65.577  1.00  0.00    -0.356 A  
HETATM   16  N   UNL     1     -11.736  14.535  64.775  1.00  0.00    -0.402 NA 
HETATM   17  N   UNL     1     -12.027  15.644  64.017  1.00  0.00    -0.483 NA 
HETATM   18  C   UNL     1      -9.499  17.061  65.971  1.00  0.00    -0.164 C  
HETATM   19  N   UNL     1     -10.465  16.206  65.338  1.00  0.00    -0.515 NA 
HETATM   20  N   UNL     1     -11.256  16.669  64.353  1.00  0.00    -1.060 NA 
ENDBRANCH  14  15
ENDBRANCH  13  14
ENDBRANCH   4  13
BRANCH   8  21
HETATM   21  N   UNL     1      -9.848   7.189  69.304  1.00  0.00    -0.159 N  
HETATM   22  O   UNL     1     -11.500   6.376  70.653  1.00  0.00    -0.334 OA 
HETATM   23  H   UNL     1      -8.880   7.507  69.277  1.00  0.00     0.000 HD 
HETATM   24  C   UNL     1     -10.318   6.671  70.490  1.00  0.00    -0.199 C  
BRANCH  24  25
HETATM   25  C   UNL     1      -9.241   6.515  71.589  1.00  0.00    -0.143 C  
BRANCH  25  26
HETATM   26  O   UNL     1      -8.944   7.832  72.093  1.00  0.00    -0.123 OA 
HETATM   27  O   UNL     1     -10.221   7.390  73.961  1.00  0.00    -0.262 OA 
HETATM   28  C   UNL     1      -9.493   8.112  73.302  1.00  0.00    -0.220 C  
ENDBRANCH  25  26
BRANCH  25  29
HETATM   29  C   UNL     1      -7.981   5.854  71.043  1.00  0.00    -0.116 A  
HETATM   30  C   UNL     1      -8.050   4.547  70.542  1.00  0.00    -0.067 A  
HETATM   31  C   UNL     1      -6.907   3.913  70.053  1.00  0.00    -0.034 A  
HETATM   32  C   UNL     1      -5.685   4.581  70.044  1.00  0.00    -0.013 A  
HETATM   33  C   UNL     1      -5.602   5.884  70.522  1.00  0.00    -0.013 A  
HETATM   34  C   UNL     1      -6.741   6.518  71.018  1.00  0.00    -0.055 A  
ENDBRANCH  25  29
ENDBRANCH  24  25
ENDBRANCH   8  21
TORSDOF 7
ENDMDL
MODEL      148
REMARK 921   NORMALIZED FREE ENERGY PREDICTED BY IDOCK:   -4.56 KCAL/MOL
REMARK 922        TOTAL FREE ENERGY PREDICTED BY IDOCK:   -7.92 KCAL/MOL
REMARK 923 INTER-LIGAND FREE ENERGY PREDICTED BY IDOCK:   -6.59 KCAL/MOL
REMARK 924 INTRA-LIGAND FREE ENERGY PREDICTED BY IDOCK:   -1.34 KCAL/MOL
REMARK 927      BINDING AFFINITY PREDICTED BY RF-SCORE:    0.00 PKD
ROOT
HETATM    1  C   UNL     1     -10.472   9.490  66.686  1.00  0.00    -0.171 C  
HETATM    2  S   UNL     1      -9.759   9.977  65.092  1.00  0.00    -0.302 SA 
HETATM    3  C   UNL     1      -8.567   8.623  65.086  1.00  0.00    -0.173 C  
HETATM    4  C   UNL     1      -7.784   8.459  66.383  1.00  0.00    -0.094 C  
HETATM    5  OXT UNL     1      -6.069   8.666  68.715  1.00  0.00    -0.043 OA 
HETATM    6  CA  UNL     1      -8.197   8.948  67.589  1.00  0.00    -0.110 C  
HETATM    7  C   UNL     1      -7.267   8.905  68.791  1.00  0.00    -0.075 C  
HETATM    8  CA  UNL     1     -11.185  10.648  67.468  1.00  0.00    -0.253 C  
HETATM    9  N   UNL     1      -9.429   9.541  67.695  1.00  0.00    -0.131 N  
HETATM   10  O   UNL     1      -7.834   9.075  70.001  1.00  0.00    -0.072 OA 
HETATM   11  C   UNL     1     -10.090  10.349  68.554  1.00  0.00    -0.171 C  
HETATM   12  O   UNL     1      -9.786  10.690  69.676  1.00  0.00    -0.158 OA 
ENDROOT
BRANCH   4  13
HETATM   13  C   UNL     1      -6.436   7.795  66.097  1.00  0.00    -0.046 C  
BRANCH  13  14
HETATM   14  S   UNL     1      -6.256   6.082  66.647  1.00  0.00    -0.030 SA 
BRANCH  14  15
HETATM   15  C   UNL     1      -7.842   5.432  66.578  1.00  0.00    -0.100 A  
HETATM   16  N   UNL     1      -8.541   5.101  65.519  1.00  0.00    -0.137 NA 
HETATM   17  N   UNL     1      -9.758   4.671  65.992  1.00  0.00    -0.182 NA 
HETATM   18  C   UNL     1      -8.276   5.373  69.079  1.00  0.00    -0.094 C  
HETATM   19  N   UNL     1      -8.599   5.197  67.690  1.00  0.00    -0.105 NA 
HETATM   20  N   UNL     1      -9.803   4.726  67.316  1.00  0.00    -0.181 NA 
ENDBRANCH  14  15
ENDBRANCH  13  14
ENDBRANCH   4  13
BRANCH   8  21
HETATM   21  N   UNL     1     -11.089  11.981  66.815  1.00  0.00    -0.288 N  
HETATM   22  O   UNL     1     -12.053  13.209  68.480  1.00  0.00    -0.317 OA 
HETATM   23  H   UNL     1     -10.710  12.018  65.869  1.00  0.00     0.000 HD 
HETATM   24  C   UNL     1     -11.475  13.168  67.396  1.00  0.00    -0.332 C  
BRANCH  24  25
HETATM   25  C   UNL     1     -11.136  14.427  66.563  1.00  0.00    -0.331 C  
BRANCH  25  26
HETATM   26  O   UNL     1     -10.808  13.986  65.231  1.00  0.00    -0.313 OA 
HETATM   27  O   UNL     1     -12.928  14.563  64.533  1.00  0.00    -0.536 OA 
HETATM   28  C   UNL     1     -11.805  14.138  64.324  1.00  0.00    -0.397 C  
ENDBRANCH  25  26
BRANCH  25  29
HETATM   29  C   UNL     1      -9.974  15.201  67.173  1.00  0.00    -0.237 A  
HETATM   30  C   UNL     1      -8.686  15.043  66.643  1.00  0.00    -0.289 A  
HETATM   31  C   UNL     1      -7.602  15.727  67.195  1.00  0.00    -0.259 A  
HETATM   32  C   UNL     1      -7.793  16.589  68.272  1.00  0.00    -0.175 A  
HETATM   33  C   UNL     1      -9.067  16.770  68.801  1.00  0.00    -0.259 A  
HETATM   34  C   UNL     1     -10.150  16.082  68.256  1.00  0.00    -0.229 A  
ENDBRANCH  25  29
ENDBRANCH  24  25
ENDBRANCH   8  21
TORSDOF 7
ENDMDL
MODEL      149
REMARK 921   NORMALIZED FREE ENERGY PREDICTED BY IDOCK:   -4.55 KCAL/MOL
REMARK 922        TOTAL FREE ENERGY PREDICTED BY IDOCK:   -7.91 KCAL/MOL
REMARK 923 INTER-LIGAND FREE ENERGY PREDICTED BY IDOCK:   -7.00 KCAL/MOL
REMARK 924 INTRA-LIGAND FREE ENERGY PREDICTED BY IDOCK:   -0.91 KCAL/MOL
REMARK 927      BINDING AFFINITY PREDICTED BY RF-SCORE:    0.00 PKD
ROOT
HETATM    1  C   UNL     1      -7.987   9.185  68.274  1.00  0.00    -0.103 C  
HETATM    2  S   UNL     1      -8.344   7.415  68.441  1.00  0.00    -0.125 SA 
HETATM    3  C   UNL     1      -7.543   6.994  66.881  1.00  0.00    -0.094 C  
HETATM    4  C   UNL     1      -7.955   7.864  65.698  1.00  0.00    -0.116 C  
HETATM    5  OXT UNL     1      -9.261   9.276  63.526  1.00  0.00    -0.056 OA 
HETATM    6  CA  UNL     1      -8.509   9.106  65.824  1.00  0.00    -0.141 C  
HETATM    7  C   UNL     1      -9.063   9.822  64.602  1.00  0.00    -0.245 C  
HETATM    8  CA  UNL     1      -8.949  10.128  69.079  1.00  0.00    -0.167 C  
HETATM    9  N   UNL     1      -8.625   9.675  67.066  1.00  0.00    -0.127 N  
HETATM   10  O   UNL     1      -9.273  11.147  64.722  1.00  0.00    -0.202 OA 
HETATM   11  C   UNL     1      -9.305  10.685  67.653  1.00  0.00    -0.146 C  
HETATM   12  O   UNL     1      -9.965  11.564  67.145  1.00  0.00    -0.196 OA 
ENDROOT
BRANCH   4  13
HETATM   13  C   UNL     1      -7.776   7.087  64.393  1.00  0.00    -0.113 C  
BRANCH  13  14
HETATM   14  S   UNL     1      -7.504   5.306  64.554  1.00  0.00    -0.072 SA 
BRANCH  14  15
HETATM   15  C   UNL     1      -8.985   4.593  64.065  1.00  0.00    -0.117 A  
HETATM   16  N   UNL     1      -9.379   4.285  62.853  1.00  0.00    -0.133 NA 
HETATM   17  N   UNL     1     -10.651   3.779  62.988  1.00  0.00    -0.217 NA 
HETATM   18  C   UNL     1     -10.023   4.390  66.373  1.00  0.00    -0.232 C  
HETATM   19  N   UNL     1      -9.981   4.270  64.941  1.00  0.00    -0.185 NA 
HETATM   20  N   UNL     1     -11.027   3.767  64.260  1.00  0.00    -0.282 NA 
ENDBRANCH  14  15
ENDBRANCH  13  14
ENDBRANCH   4  13
BRANCH   8  21
HETATM   21  N   UNL     1     -10.054   9.423  69.783  1.00  0.00    -0.198 N  
HETATM   22  O   UNL     1      -8.991   9.101  71.776  1.00  0.00    -0.345 OA 
HETATM   23  H   UNL     1     -10.903   9.227  69.253  1.00  0.00     0.000 HD 
HETATM   24  C   UNL     1     -10.011   9.017  71.098  1.00  0.00    -0.295 C  
BRANCH  24  25
HETATM   25  C   UNL     1     -11.343   8.438  71.629  1.00  0.00    -0.286 C  
BRANCH  25  26
HETATM   26  O   UNL     1     -11.988   9.473  72.397  1.00  0.00    -0.083 OA 
HETATM   27  O   UNL     1     -13.147  10.128  70.514  1.00  0.00    -0.288 OA 
HETATM   28  C   UNL     1     -12.879  10.222  71.699  1.00  0.00    -0.463 C  
ENDBRANCH  25  26
BRANCH  25  29
HETATM   29  C   UNL     1     -11.109   7.201  72.488  1.00  0.00    -0.317 A  
HETATM   30  C   UNL     1     -11.659   5.974  72.096  1.00  0.00    -0.348 A  
HETATM   31  C   UNL     1     -11.474   4.831  72.874  1.00  0.00    -0.222 A  
HETATM   32  C   UNL     1     -10.724   4.895  74.046  1.00  0.00    -0.354 A  
HETATM   33  C   UNL     1     -10.157   6.102  74.442  1.00  0.00    -0.337 A  
HETATM   34  C   UNL     1     -10.346   7.247  73.670  1.00  0.00    -0.399 A  
ENDBRANCH  25  29
ENDBRANCH  24  25
ENDBRANCH   8  21
TORSDOF 7
ENDMDL
MODEL      150
REMARK 921   NORMALIZED FREE ENERGY PREDICTED BY IDOCK:   -4.54 KCAL/MOL
REMARK 922        TOTAL FREE ENERGY PREDICTED BY IDOCK:   -7.90 KCAL/MOL
REMARK 923 INTER-LIGAND FREE ENERGY PREDICTED BY IDOCK:   -6.93 KCAL/MOL
REMARK 924 INTRA-LIGAND FREE ENERGY PREDICTED BY IDOCK:   -0.96 KCAL/MOL
REMARK 927      BINDING AFFINITY PREDICTED BY RF-SCORE:    0.00 PKD
ROOT
HETATM    1  C   UNL     1      -8.819   9.236  71.033  1.00  0.00    -0.137 C  
HETATM    2  S   UNL     1      -7.915   8.430  69.683  1.00  0.00    -0.108 SA 
HETATM    3  C   UNL     1      -7.933   9.904  68.644  1.00  0.00    -0.087 C  
HETATM    4  C   UNL     1      -9.297  10.572  68.510  1.00  0.00    -0.168 C  
HETATM    5  OXT UNL     1     -12.041  11.352  67.980  1.00  0.00    -0.629 OA 
HETATM    6  CA  UNL     1     -10.321  10.396  69.395  1.00  0.00    -0.237 C  
HETATM    7  C   UNL     1     -11.704  10.947  69.084  1.00  0.00    -0.326 C  
HETATM    8  CA  UNL     1      -9.588   8.255  71.986  1.00  0.00    -0.248 C  
HETATM    9  N   UNL     1     -10.115   9.661  70.534  1.00  0.00    -0.279 N  
HETATM   10  O   UNL     1     -12.562  11.046  70.118  1.00  0.00    -0.283 OA 
HETATM   11  C   UNL     1     -10.852   9.041  71.483  1.00  0.00    -0.346 C  
HETATM   12  O   UNL     1     -12.044   9.101  71.690  1.00  0.00    -0.315 OA 
ENDROOT
BRANCH   4  13
HETATM   13  C   UNL     1      -9.372  11.341  67.190  1.00  0.00    -0.163 C  
BRANCH  13  14
HETATM   14  S   UNL     1      -9.836  10.379  65.729  1.00  0.00    -0.255 SA 
BRANCH  14  15
HETATM   15  C   UNL     1      -8.381  10.215  64.836  1.00  0.00    -0.164 A  
HETATM   16  N   UNL     1      -7.190   9.886  65.274  1.00  0.00    -0.124 NA 
HETATM   17  N   UNL     1      -6.361   9.933  64.178  1.00  0.00    -0.119 NA 
HETATM   18  C   UNL     1      -9.332  10.806  62.558  1.00  0.00    -0.278 C  
HETATM   19  N   UNL     1      -8.302  10.445  63.493  1.00  0.00    -0.166 NA 
HETATM   20  N   UNL     1      -7.031  10.274  63.086  1.00  0.00    -0.134 NA 
ENDBRANCH  14  15
ENDBRANCH  13  14
ENDBRANCH   4  13
BRANCH   8  21
HETATM   21  N   UNL     1      -9.522   6.825  71.580  1.00  0.00    -0.156 N  
HETATM   22  O   UNL     1     -11.474   6.142  72.544  1.00  0.00    -0.282 OA 
HETATM   23  H   UNL     1      -8.692   6.515  71.075  1.00  0.00     0.000 HD 
HETATM   24  C   UNL     1     -10.500   5.891  71.838  1.00  0.00    -0.220 C  
BRANCH  24  25
HETATM   25  C   UNL     1     -10.254   4.512  71.183  1.00  0.00    -0.092 C  
BRANCH  25  26
HETATM   26  O   UNL     1      -9.167   3.885  71.892  1.00  0.00    -0.113 OA 
HETATM   27  O   UNL     1     -10.691   2.716  73.166  1.00  0.00    -0.155 OA 
HETATM   28  C   UNL     1      -9.550   2.996  72.842  1.00  0.00    -0.104 C  
ENDBRANCH  25  26
BRANCH  25  29
HETATM   29  C   UNL     1      -9.920   4.651  69.703  1.00  0.00    -0.281 A  
HETATM   30  C   UNL     1      -8.950   3.815  69.135  1.00  0.00    -0.176 A  
HETATM   31  C   UNL     1      -8.612   3.934  67.786  1.00  0.00    -0.110 A  
HETATM   32  C   UNL     1      -9.249   4.879  66.985  1.00  0.00    -0.127 A  
HETATM   33  C   UNL     1     -10.226   5.706  67.529  1.00  0.00    -0.246 A  
HETATM   34  C   UNL     1     -10.561   5.593  68.879  1.00  0.00    -0.303 A  
ENDBRANCH  25  29
ENDBRANCH  24  25
ENDBRANCH   8  21
TORSDOF 7
ENDMDL
MODEL      151
REMARK 921   NORMALIZED FREE ENERGY PREDICTED BY IDOCK:   -4.52 KCAL/MOL
REMARK 922        TOTAL FREE ENERGY PREDICTED BY IDOCK:   -7.87 KCAL/MOL
REMARK 923 INTER-LIGAND FREE ENERGY PREDICTED BY IDOCK:   -6.65 KCAL/MOL
REMARK 924 INTRA-LIGAND FREE ENERGY PREDICTED BY IDOCK:   -1.22 KCAL/MOL
REMARK 927      BINDING AFFINITY PREDICTED BY RF-SCORE:    0.00 PKD
ROOT
HETATM    1  C   UNL     1     -10.562   9.347  66.959  1.00  0.00    -0.201 C  
HETATM    2  S   UNL     1      -9.773   9.895  65.420  1.00  0.00    -0.305 SA 
HETATM    3  C   UNL     1      -8.646   8.488  65.367  1.00  0.00    -0.176 C  
HETATM    4  C   UNL     1      -7.915   8.208  66.676  1.00  0.00    -0.102 C  
HETATM    5  OXT UNL     1      -6.272   8.191  69.067  1.00  0.00    -0.038 OA 
HETATM    6  CA  UNL     1      -8.346   8.643  67.896  1.00  0.00    -0.123 C  
HETATM    7  C   UNL     1      -7.459   8.482  69.121  1.00  0.00    -0.088 C  
HETATM    8  CA  UNL     1     -11.247  10.489  67.789  1.00  0.00    -0.273 C  
HETATM    9  N   UNL     1      -9.552   9.286  68.001  1.00  0.00    -0.141 N  
HETATM   10  O   UNL     1      -8.058   8.606  70.321  1.00  0.00    -0.096 OA 
HETATM   11  C   UNL     1     -10.203  10.072  68.887  1.00  0.00    -0.193 C  
HETATM   12  O   UNL     1      -9.922  10.329  70.037  1.00  0.00    -0.208 OA 
ENDROOT
BRANCH   4  13
HETATM   13  C   UNL     1      -6.590   7.499  66.390  1.00  0.00    -0.053 C  
BRANCH  13  14
HETATM   14  S   UNL     1      -6.568   5.710  66.657  1.00  0.00    -0.057 SA 
BRANCH  14  15
HETATM   15  C   UNL     1      -8.190   5.212  66.410  1.00  0.00    -0.108 A  
HETATM   16  N   UNL     1      -9.117   4.982  67.309  1.00  0.00    -0.113 NA 
HETATM   17  N   UNL     1     -10.225   4.570  66.608  1.00  0.00    -0.215 NA 
HETATM   18  C   UNL     1      -8.110   5.094  63.875  1.00  0.00    -0.119 C  
HETATM   19  N   UNL     1      -8.714   4.965  65.174  1.00  0.00    -0.144 NA 
HETATM   20  N   UNL     1      -9.989   4.556  65.304  1.00  0.00    -0.182 NA 
ENDBRANCH  14  15
ENDBRANCH  13  14
ENDBRANCH   4  13
BRANCH   8  21
HETATM   21  N   UNL     1     -11.067  11.853  67.223  1.00  0.00    -0.270 N  
HETATM   22  O   UNL     1     -12.186  13.006  68.843  1.00  0.00    -0.232 OA 
HETATM   23  H   UNL     1     -10.590  11.933  66.325  1.00  0.00     0.000 HD 
HETATM   24  C   UNL     1     -11.498  13.014  67.825  1.00  0.00    -0.316 C  
BRANCH  24  25
HETATM   25  C   UNL     1     -11.059  14.308  67.102  1.00  0.00    -0.311 C  
BRANCH  25  26
HETATM   26  O   UNL     1     -10.699  13.948  65.754  1.00  0.00    -0.279 OA 
HETATM   27  O   UNL     1     -12.845  14.434  65.065  1.00  0.00    -0.631 OA 
HETATM   28  C   UNL     1     -11.698  14.084  64.846  1.00  0.00    -0.380 C  
ENDBRANCH  25  26
BRANCH  25  29
HETATM   29  C   UNL     1      -9.885  14.971  67.811  1.00  0.00    -0.220 A  
HETATM   30  C   UNL     1      -9.822  16.369  67.882  1.00  0.00    -0.238 A  
HETATM   31  C   UNL     1      -8.748  17.000  68.511  1.00  0.00    -0.253 A  
HETATM   32  C   UNL     1      -7.732  16.244  69.090  1.00  0.00    -0.229 A  
HETATM   33  C   UNL     1      -7.786  14.855  69.042  1.00  0.00    -0.165 A  
HETATM   34  C   UNL     1      -8.855  14.221  68.409  1.00  0.00    -0.187 A  
ENDBRANCH  25  29
ENDBRANCH  24  25
ENDBRANCH   8  21
TORSDOF 7
ENDMDL
MODEL      152
REMARK 921   NORMALIZED FREE ENERGY PREDICTED BY IDOCK:   -4.48 KCAL/MOL
REMARK 922        TOTAL FREE ENERGY PREDICTED BY IDOCK:   -7.81 KCAL/MOL
REMARK 923 INTER-LIGAND FREE ENERGY PREDICTED BY IDOCK:   -7.03 KCAL/MOL
REMARK 924 INTRA-LIGAND FREE ENERGY PREDICTED BY IDOCK:   -0.78 KCAL/MOL
REMARK 927      BINDING AFFINITY PREDICTED BY RF-SCORE:    0.00 PKD
ROOT
HETATM    1  C   UNL     1     -11.655  10.883  67.259  1.00  0.00     0.151 C  
HETATM    2  S   UNL     1     -11.516  10.697  69.058  1.00  0.00    -0.259 SA 
HETATM    3  C   UNL     1     -12.267  12.303  69.393  1.00  0.00    -0.065 C  
HETATM    4  C   UNL     1     -11.688  13.458  68.584  1.00  0.00    -0.384 C  
HETATM    5  OXT UNL     1     -10.101  15.548  67.346  1.00  0.00    -0.241 OA 
HETATM    6  CA  UNL     1     -11.002  13.299  67.414  1.00  0.00    -0.271 C  
HETATM    7  C   UNL     1     -10.297  14.485  66.774  1.00  0.00    -0.269 C  
HETATM    8  CA  UNL     1     -10.638  10.023  66.430  1.00  0.00    -0.068 C  
HETATM    9  N   UNL     1     -10.893  12.052  66.854  1.00  0.00    -0.247 N  
HETATM   10  O   UNL     1      -9.943  14.352  65.481  1.00  0.00    -0.339 OA 
HETATM   11  C   UNL     1     -10.137  11.424  65.927  1.00  0.00    -0.243 C  
HETATM   12  O   UNL     1      -9.351  11.892  65.132  1.00  0.00    -0.111 OA 
ENDROOT
BRANCH   4  13
HETATM   13  C   UNL     1     -11.878  14.772  69.343  1.00  0.00    -0.323 C  
BRANCH  13  14
HETATM   14  S   UNL     1     -10.801  15.033  70.773  1.00  0.00     0.040 SA 
BRANCH  14  15
HETATM   15  C   UNL     1     -11.865  15.464  72.047  1.00  0.00    -0.442 A  
HETATM   16  N   UNL     1     -11.983  16.621  72.653  1.00  0.00    -0.399 NA 
HETATM   17  N   UNL     1     -12.940  16.441  73.623  1.00  0.00    -0.578 NA 
HETATM   18  C   UNL     1     -13.010  13.211  72.288  1.00  0.00    -0.249 C  
HETATM   19  N   UNL     1     -12.742  14.585  72.614  1.00  0.00    -0.364 NA 
HETATM   20  N   UNL     1     -13.410  15.200  73.607  1.00  0.00    -0.309 NA 
ENDBRANCH  14  15
ENDBRANCH  13  14
ENDBRANCH   4  13
BRANCH   8  21
HETATM   21  N   UNL     1      -9.667   9.255  67.253  1.00  0.00    -0.158 N  
HETATM   22  O   UNL     1     -10.653   7.207  67.062  1.00  0.00    -0.297 OA 
HETATM   23  H   UNL     1      -8.910   9.774  67.699  1.00  0.00     0.000 HD 
HETATM   24  C   UNL     1      -9.715   7.894  67.456  1.00  0.00    -0.159 C  
BRANCH  24  25
HETATM   25  C   UNL     1      -8.505   7.322  68.232  1.00  0.00    -0.124 C  
BRANCH  25  26
HETATM   26  O   UNL     1      -7.459   7.067  67.273  1.00  0.00    -0.094 OA 
HETATM   27  O   UNL     1      -6.394   8.999  67.941  1.00  0.00    -0.054 OA 
HETATM   28  C   UNL     1      -6.464   7.989  67.263  1.00  0.00    -0.057 C  
ENDBRANCH  25  26
BRANCH  25  29
HETATM   29  C   UNL     1      -8.874   6.044  68.974  1.00  0.00    -0.121 A  
HETATM   30  C   UNL     1      -9.477   6.129  70.236  1.00  0.00    -0.178 A  
HETATM   31  C   UNL     1      -9.808   4.973  70.944  1.00  0.00    -0.274 A  
HETATM   32  C   UNL     1      -9.556   3.719  70.395  1.00  0.00    -0.262 A  
HETATM   33  C   UNL     1      -8.972   3.615  69.137  1.00  0.00    -0.176 A  
HETATM   34  C   UNL     1      -8.634   4.769  68.430  1.00  0.00    -0.104 A  
ENDBRANCH  25  29
ENDBRANCH  24  25
ENDBRANCH   8  21
TORSDOF 7
ENDMDL
MODEL      153
REMARK 921   NORMALIZED FREE ENERGY PREDICTED BY IDOCK:   -4.48 KCAL/MOL
REMARK 922        TOTAL FREE ENERGY PREDICTED BY IDOCK:   -7.81 KCAL/MOL
REMARK 923 INTER-LIGAND FREE ENERGY PREDICTED BY IDOCK:   -6.42 KCAL/MOL
REMARK 924 INTRA-LIGAND FREE ENERGY PREDICTED BY IDOCK:   -1.40 KCAL/MOL
REMARK 927      BINDING AFFINITY PREDICTED BY RF-SCORE:    0.00 PKD
ROOT
HETATM    1  C   UNL     1     -10.443   7.946  68.959  1.00  0.00    -0.198 C  
HETATM    2  S   UNL     1     -10.606   7.304  67.270  1.00  0.00    -0.327 SA 
HETATM    3  C   UNL     1      -9.794   5.743  67.666  1.00  0.00    -0.126 C  
HETATM    4  C   UNL     1      -8.480   5.885  68.428  1.00  0.00    -0.111 C  
HETATM    5  OXT UNL     1      -5.792   6.408  69.388  1.00  0.00    -0.019 OA 
HETATM    6  CA  UNL     1      -8.132   6.993  69.145  1.00  0.00    -0.121 C  
HETATM    7  C   UNL     1      -6.728   7.125  69.714  1.00  0.00    -0.048 C  
HETATM    8  CA  UNL     1     -10.476   9.510  69.072  1.00  0.00    -0.213 C  
HETATM    9  N   UNL     1      -9.032   8.017  69.293  1.00  0.00    -0.148 N  
HETATM   10  O   UNL     1      -6.551   8.047  70.680  1.00  0.00    -0.037 OA 
HETATM   11  C   UNL     1      -9.029   9.319  69.655  1.00  0.00    -0.160 C  
HETATM   12  O   UNL     1      -8.141   9.976  70.152  1.00  0.00    -0.175 OA 
ENDROOT
BRANCH   4  13
HETATM   13  C   UNL     1      -7.587   4.674  68.154  1.00  0.00    -0.077 C  
BRANCH  13  14
HETATM   14  S   UNL     1      -7.789   3.262  69.266  1.00  0.00    -0.049 SA 
BRANCH  14  15
HETATM   15  C   UNL     1      -7.647   3.925  70.842  1.00  0.00    -0.044 A  
HETATM   16  N   UNL     1      -6.566   4.070  71.569  1.00  0.00    -0.022 NA 
HETATM   17  N   UNL     1      -6.986   4.610  72.762  1.00  0.00    -0.072 NA 
HETATM   18  C   UNL     1     -10.104   4.457  71.191  1.00  0.00    -0.126 C  
HETATM   19  N   UNL     1      -8.717   4.380  71.557  1.00  0.00    -0.115 NA 
HETATM   20  N   UNL     1      -8.298   4.802  72.764  1.00  0.00    -0.111 NA 
ENDBRANCH  14  15
ENDBRANCH  13  14
ENDBRANCH   4  13
BRANCH   8  21
HETATM   21  N   UNL     1     -10.550  10.220  67.768  1.00  0.00    -0.230 N  
HETATM   22  O   UNL     1     -11.937  11.911  68.418  1.00  0.00    -0.408 OA 
HETATM   23  H   UNL     1     -10.065   9.803  66.974  1.00  0.00     0.000 HD 
HETATM   24  C   UNL     1     -11.227  11.401  67.556  1.00  0.00    -0.292 C  
BRANCH  24  25
HETATM   25  C   UNL     1     -11.027  12.006  66.147  1.00  0.00    -0.302 C  
BRANCH  25  26
HETATM   26  O   UNL     1     -10.152  11.123  65.417  1.00  0.00    -0.238 OA 
HETATM   27  O   UNL     1     -11.391  11.493  63.509  1.00  0.00    -0.408 OA 
HETATM   28  C   UNL     1     -10.456  10.985  64.102  1.00  0.00    -0.366 C  
ENDBRANCH  25  26
BRANCH  25  29
HETATM   29  C   UNL     1     -10.432  13.407  66.222  1.00  0.00    -0.289 A  
HETATM   30  C   UNL     1      -9.251  13.616  66.945  1.00  0.00    -0.257 A  
HETATM   31  C   UNL     1      -8.695  14.893  67.044  1.00  0.00    -0.263 A  
HETATM   32  C   UNL     1      -9.304  15.972  66.409  1.00  0.00    -0.329 A  
HETATM   33  C   UNL     1     -10.469  15.780  65.673  1.00  0.00    -0.402 A  
HETATM   34  C   UNL     1     -11.029  14.507  65.579  1.00  0.00    -0.337 A  
ENDBRANCH  25  29
ENDBRANCH  24  25
ENDBRANCH   8  21
TORSDOF 7
ENDMDL
MODEL      154
REMARK 921   NORMALIZED FREE ENERGY PREDICTED BY IDOCK:   -4.47 KCAL/MOL
REMARK 922        TOTAL FREE ENERGY PREDICTED BY IDOCK:   -7.80 KCAL/MOL
REMARK 923 INTER-LIGAND FREE ENERGY PREDICTED BY IDOCK:   -6.45 KCAL/MOL
REMARK 924 INTRA-LIGAND FREE ENERGY PREDICTED BY IDOCK:   -1.35 KCAL/MOL
REMARK 927      BINDING AFFINITY PREDICTED BY RF-SCORE:    0.00 PKD
ROOT
HETATM    1  C   UNL     1     -10.942   9.491  68.557  1.00  0.00    -0.065 C  
HETATM    2  S   UNL     1     -11.349  10.335  70.110  1.00  0.00    -0.335 SA 
HETATM    3  C   UNL     1     -11.390  11.967  69.341  1.00  0.00    -0.261 C  
HETATM    4  C   UNL     1     -10.188  12.285  68.458  1.00  0.00    -0.213 C  
HETATM    5  OXT UNL     1      -7.602  12.865  67.277  1.00  0.00    -0.153 OA 
HETATM    6  CA  UNL     1      -9.371  11.336  67.913  1.00  0.00    -0.161 C  
HETATM    7  C   UNL     1      -8.090  11.745  67.205  1.00  0.00    -0.169 C  
HETATM    8  CA  UNL     1     -10.227   8.106  68.731  1.00  0.00    -0.207 C  
HETATM    9  N   UNL     1      -9.677  10.008  68.066  1.00  0.00    -0.138 N  
HETATM   10  O   UNL     1      -7.519  10.823  66.406  1.00  0.00    -0.131 OA 
HETATM   11  C   UNL     1      -9.062   8.810  67.947  1.00  0.00    -0.139 C  
HETATM   12  O   UNL     1      -7.982   8.546  67.467  1.00  0.00    -0.105 OA 
ENDROOT
BRANCH   4  13
HETATM   13  C   UNL     1      -9.974  13.798  68.396  1.00  0.00    -0.229 C  
BRANCH  13  14
HETATM   14  S   UNL     1     -11.448  14.802  68.094  1.00  0.00    -0.334 SA 
BRANCH  14  15
HETATM   15  C   UNL     1     -11.657  14.768  66.392  1.00  0.00    -0.299 A  
HETATM   16  N   UNL     1     -12.317  13.895  65.670  1.00  0.00    -0.452 NA 
HETATM   17  N   UNL     1     -12.150  14.286  64.363  1.00  0.00    -0.479 NA 
HETATM   18  C   UNL     1     -10.318  16.859  65.860  1.00  0.00    -0.315 C  
HETATM   19  N   UNL     1     -11.105  15.695  65.555  1.00  0.00    -0.271 NA 
HETATM   20  N   UNL     1     -11.412  15.384  64.283  1.00  0.00    -0.246 NA 
ENDBRANCH  14  15
ENDBRANCH  13  14
ENDBRANCH   4  13
BRANCH   8  21
HETATM   21  N   UNL     1      -9.920   7.744  70.141  1.00  0.00    -0.185 N  
HETATM   22  O   UNL     1      -9.398   5.551  69.789  1.00  0.00    -0.135 OA 
HETATM   23  H   UNL     1     -10.053   8.463  70.853  1.00  0.00     0.000 HD 
HETATM   24  C   UNL     1      -9.470   6.510  70.553  1.00  0.00    -0.166 C  
BRANCH  24  25
HETATM   25  C   UNL     1      -9.088   6.438  72.050  1.00  0.00    -0.141 C  
BRANCH  25  26
HETATM   26  O   UNL     1     -10.076   7.187  72.785  1.00  0.00    -0.175 OA 
HETATM   27  O   UNL     1     -11.053   5.210  73.457  1.00  0.00    -0.309 OA 
HETATM   28  C   UNL     1     -10.980   6.426  73.452  1.00  0.00    -0.141 C  
ENDBRANCH  25  26
BRANCH  25  29
HETATM   29  C   UNL     1      -7.695   7.005  72.296  1.00  0.00    -0.091 A  
HETATM   30  C   UNL     1      -7.444   7.736  73.465  1.00  0.00    -0.154 A  
HETATM   31  C   UNL     1      -6.182   8.281  73.706  1.00  0.00    -0.124 A  
HETATM   32  C   UNL     1      -5.151   8.090  72.790  1.00  0.00    -0.036 A  
HETATM   33  C   UNL     1      -5.377   7.353  71.631  1.00  0.00    -0.035 A  
HETATM   34  C   UNL     1      -6.640   6.814  71.385  1.00  0.00    -0.053 A  
ENDBRANCH  25  29
ENDBRANCH  24  25
ENDBRANCH   8  21
TORSDOF 7
ENDMDL
MODEL      155
REMARK 921   NORMALIZED FREE ENERGY PREDICTED BY IDOCK:   -4.45 KCAL/MOL
REMARK 922        TOTAL FREE ENERGY PREDICTED BY IDOCK:   -7.77 KCAL/MOL
REMARK 923 INTER-LIGAND FREE ENERGY PREDICTED BY IDOCK:   -8.42 KCAL/MOL
REMARK 924 INTRA-LIGAND FREE ENERGY PREDICTED BY IDOCK:    0.66 KCAL/MOL
REMARK 927      BINDING AFFINITY PREDICTED BY RF-SCORE:    0.00 PKD
ROOT
HETATM    1  C   UNL     1     -11.812  12.862  66.362  1.00  0.00    -0.415 C  
HETATM    2  S   UNL     1     -10.242  12.763  67.264  1.00  0.00    -0.234 SA 
HETATM    3  C   UNL     1     -10.376  14.443  67.905  1.00  0.00    -0.232 C  
HETATM    4  C   UNL     1     -10.721  15.498  66.859  1.00  0.00    -0.317 C  
HETATM    5  OXT UNL     1     -10.856  17.371  64.647  1.00  0.00    -0.784 OA 
HETATM    6  CA  UNL     1     -11.310  15.216  65.660  1.00  0.00    -0.255 C  
HETATM    7  C   UNL     1     -11.445  16.300  64.601  1.00  0.00    -0.167 C  
HETATM    8  CA  UNL     1     -11.937  11.872  65.151  1.00  0.00    -0.044 C  
HETATM    9  N   UNL     1     -11.719  13.936  65.389  1.00  0.00    -0.328 N  
HETATM   10  O   UNL     1     -12.320  16.066  63.605  1.00  0.00    -0.705 OA 
HETATM   11  C   UNL     1     -12.070  13.195  64.314  1.00  0.00    -0.414 C  
HETATM   12  O   UNL     1     -12.290  13.548  63.176  1.00  0.00    -0.712 OA 
ENDROOT
BRANCH   4  13
HETATM   13  C   UNL     1     -10.192  16.863  67.302  1.00  0.00    -0.297 C  
BRANCH  13  14
HETATM   14  S   UNL     1      -8.586  17.355  66.630  1.00  0.00    -0.267 SA 
BRANCH  14  15
HETATM   15  C   UNL     1      -7.555  17.459  67.996  1.00  0.00    -0.206 A  
HETATM   16  N   UNL     1      -7.467  16.637  69.015  1.00  0.00    -0.233 NA 
HETATM   17  N   UNL     1      -6.528  17.182  69.857  1.00  0.00    -0.088 NA 
HETATM   18  C   UNL     1      -6.383  19.617  67.353  1.00  0.00    -0.190 C  
HETATM   19  N   UNL     1      -6.677  18.486  68.190  1.00  0.00    -0.219 NA 
HETATM   20  N   UNL     1      -6.040  18.312  69.362  1.00  0.00    -0.244 NA 
ENDBRANCH  14  15
ENDBRANCH  13  14
ENDBRANCH   4  13
BRANCH   8  21
HETATM   21  N   UNL     1     -10.715  11.068  64.885  1.00  0.00    -0.255 N  
HETATM   22  O   UNL     1      -9.708  12.513  63.434  1.00  0.00    -0.253 OA 
HETATM   23  H   UNL     1     -10.649  10.148  65.320  1.00  0.00     0.000 HD 
HETATM   24  C   UNL     1      -9.665  11.478  64.093  1.00  0.00    -0.211 C  
BRANCH  24  25
HETATM   25  C   UNL     1      -8.452  10.518  64.097  1.00  0.00    -0.122 C  
BRANCH  25  26
HETATM   26  O   UNL     1      -8.756   9.434  63.198  1.00  0.00    -0.213 OA 
HETATM   27  O   UNL     1      -6.614   9.550  62.354  1.00  0.00    -0.096 OA 
HETATM   28  C   UNL     1      -7.725   9.052  62.403  1.00  0.00    -0.117 C  
ENDBRANCH  25  26
BRANCH  25  29
HETATM   29  C   UNL     1      -8.165   9.989  65.497  1.00  0.00    -0.146 A  
HETATM   30  C   UNL     1      -8.825   8.839  65.948  1.00  0.00    -0.222 A  
HETATM   31  C   UNL     1      -8.593   8.344  67.232  1.00  0.00    -0.123 A  
HETATM   32  C   UNL     1      -7.688   8.983  68.076  1.00  0.00    -0.097 A  
HETATM   33  C   UNL     1      -7.011  10.118  67.638  1.00  0.00    -0.085 A  
HETATM   34  C   UNL     1      -7.247  10.618  66.358  1.00  0.00    -0.134 A  
ENDBRANCH  25  29
ENDBRANCH  24  25
ENDBRANCH   8  21
TORSDOF 7
ENDMDL
MODEL      156
REMARK 921   NORMALIZED FREE ENERGY PREDICTED BY IDOCK:   -4.44 KCAL/MOL
REMARK 922        TOTAL FREE ENERGY PREDICTED BY IDOCK:   -7.76 KCAL/MOL
REMARK 923 INTER-LIGAND FREE ENERGY PREDICTED BY IDOCK:   -6.65 KCAL/MOL
REMARK 924 INTRA-LIGAND FREE ENERGY PREDICTED BY IDOCK:   -1.10 KCAL/MOL
REMARK 927      BINDING AFFINITY PREDICTED BY RF-SCORE:    0.00 PKD
ROOT
HETATM    1  C   UNL     1      -8.127  11.764  68.803  1.00  0.00    -0.047 C  
HETATM    2  S   UNL     1      -9.912  11.661  68.503  1.00  0.00    -0.173 SA 
HETATM    3  C   UNL     1      -9.930   9.858  68.564  1.00  0.00    -0.159 C  
HETATM    4  C   UNL     1      -8.858   9.182  67.716  1.00  0.00    -0.125 C  
HETATM    5  OXT UNL     1      -7.109   8.125  65.656  1.00  0.00    -0.065 OA 
HETATM    6  CA  UNL     1      -7.715   9.801  67.299  1.00  0.00    -0.095 C  
HETATM    7  C   UNL     1      -6.794   9.115  66.302  1.00  0.00    -0.082 C  
HETATM    8  CA  UNL     1      -7.450  13.084  68.293  1.00  0.00    -0.128 C  
HETATM    9  N   UNL     1      -7.436  11.073  67.730  1.00  0.00    -0.092 N  
HETATM   10  O   UNL     1      -5.544   9.605  66.197  1.00  0.00    -0.049 OA 
HETATM   11  C   UNL     1      -6.627  12.099  67.386  1.00  0.00    -0.147 C  
HETATM   12  O   UNL     1      -5.708  12.123  66.597  1.00  0.00    -0.288 OA 
ENDROOT
BRANCH   4  13
HETATM   13  C   UNL     1      -9.322   7.782  67.310  1.00  0.00    -0.145 C  
BRANCH  13  14
HETATM   14  S   UNL     1      -8.916   6.442  68.455  1.00  0.00    -0.119 SA 
BRANCH  14  15
HETATM   15  C   UNL     1      -8.270   5.201  67.462  1.00  0.00    -0.103 A  
HETATM   16  N   UNL     1      -7.062   4.692  67.477  1.00  0.00    -0.064 NA 
HETATM   17  N   UNL     1      -7.033   3.762  66.465  1.00  0.00    -0.058 NA 
HETATM   18  C   UNL     1     -10.356   4.776  66.079  1.00  0.00    -0.293 C  
HETATM   19  N   UNL     1      -8.987   4.589  66.474  1.00  0.00    -0.112 NA 
HETATM   20  N   UNL     1      -8.205   3.692  65.847  1.00  0.00    -0.100 NA 
ENDBRANCH  14  15
ENDBRANCH  13  14
ENDBRANCH   4  13
BRANCH   8  21
HETATM   21  N   UNL     1      -8.367  14.004  67.568  1.00  0.00    -0.179 N  
HETATM   22  O   UNL     1      -8.351  15.710  69.083  1.00  0.00    -0.215 OA 
HETATM   23  H   UNL     1      -8.778  13.672  66.696  1.00  0.00     0.000 HD 
HETATM   24  C   UNL     1      -8.699  15.272  67.990  1.00  0.00    -0.160 C  
BRANCH  24  25
HETATM   25  C   UNL     1      -9.554  16.075  66.982  1.00  0.00    -0.219 C  
BRANCH  25  26
HETATM   26  O   UNL     1     -10.171  17.158  67.707  1.00  0.00    -0.297 OA 
HETATM   27  O   UNL     1      -9.913  18.520  65.865  1.00  0.00    -0.520 OA 
HETATM   28  C   UNL     1     -10.296  18.311  67.003  1.00  0.00    -0.389 C  
ENDBRANCH  25  26
BRANCH  25  29
HETATM   29  C   UNL     1     -10.613  15.198  66.326  1.00  0.00    -0.312 A  
HETATM   30  C   UNL     1     -11.617  14.622  67.115  1.00  0.00    -0.394 A  
HETATM   31  C   UNL     1     -12.587  13.800  66.542  1.00  0.00    -0.242 A  
HETATM   32  C   UNL     1     -12.577  13.555  65.171  1.00  0.00    -0.485 A  
HETATM   33  C   UNL     1     -11.597  14.132  64.369  1.00  0.00    -0.377 A  
HETATM   34  C   UNL     1     -10.622  14.948  64.942  1.00  0.00    -0.417 A  
ENDBRANCH  25  29
ENDBRANCH  24  25
ENDBRANCH   8  21
TORSDOF 7
ENDMDL
MODEL      157
REMARK 921   NORMALIZED FREE ENERGY PREDICTED BY IDOCK:   -4.42 KCAL/MOL
REMARK 922        TOTAL FREE ENERGY PREDICTED BY IDOCK:   -7.72 KCAL/MOL
REMARK 923 INTER-LIGAND FREE ENERGY PREDICTED BY IDOCK:   -6.08 KCAL/MOL
REMARK 924 INTRA-LIGAND FREE ENERGY PREDICTED BY IDOCK:   -1.65 KCAL/MOL
REMARK 927      BINDING AFFINITY PREDICTED BY RF-SCORE:    0.00 PKD
ROOT
HETATM    1  C   UNL     1      -7.138   8.764  69.124  1.00  0.00    -0.063 C  
HETATM    2  S   UNL     1      -6.858   6.997  69.426  1.00  0.00    -0.055 SA 
HETATM    3  C   UNL     1      -5.908   6.776  67.908  1.00  0.00    -0.020 C  
HETATM    4  C   UNL     1      -6.558   7.360  66.659  1.00  0.00    -0.053 C  
HETATM    5  OXT UNL     1      -8.201   8.065  64.374  1.00  0.00    -0.147 OA 
HETATM    6  CA  UNL     1      -7.515   8.333  66.683  1.00  0.00    -0.086 C  
HETATM    7  C   UNL     1      -8.243   8.721  65.406  1.00  0.00    -0.136 C  
HETATM    8  CA  UNL     1      -8.396   9.362  69.846  1.00  0.00    -0.167 C  
HETATM    9  N   UNL     1      -7.866   8.911  67.877  1.00  0.00    -0.101 N  
HETATM   10  O   UNL     1      -8.907   9.893  65.421  1.00  0.00    -0.149 OA 
HETATM   11  C   UNL     1      -8.875   9.656  68.379  1.00  0.00    -0.123 C  
HETATM   12  O   UNL     1      -9.784  10.209  67.799  1.00  0.00    -0.150 OA 
ENDROOT
BRANCH   4  13
HETATM   13  C   UNL     1      -6.074   6.605  65.420  1.00  0.00    -0.038 C  
BRANCH  13  14
HETATM   14  S   UNL     1      -6.429   4.832  65.374  1.00  0.00    -0.037 SA 
BRANCH  14  15
HETATM   15  C   UNL     1      -8.095   4.711  65.762  1.00  0.00    -0.103 A  
HETATM   16  N   UNL     1      -8.655   4.684  66.948  1.00  0.00    -0.105 NA 
HETATM   17  N   UNL     1     -10.003   4.537  66.724  1.00  0.00    -0.221 NA 
HETATM   18  C   UNL     1      -8.975   4.606  63.383  1.00  0.00    -0.110 C  
HETATM   19  N   UNL     1      -9.074   4.601  64.817  1.00  0.00    -0.156 NA 
HETATM   20  N   UNL     1     -10.269   4.485  65.425  1.00  0.00    -0.222 NA 
ENDBRANCH  14  15
ENDBRANCH  13  14
ENDBRANCH   4  13
BRANCH   8  21
HETATM   21  N   UNL     1      -9.207   8.365  70.595  1.00  0.00    -0.151 N  
HETATM   22  O   UNL     1      -8.547   8.951  72.699  1.00  0.00    -0.384 OA 
HETATM   23  H   UNL     1      -9.759   7.700  70.052  1.00  0.00     0.000 HD 
HETATM   24  C   UNL     1      -9.267   8.276  71.967  1.00  0.00    -0.204 C  
BRANCH  24  25
HETATM   25  C   UNL     1     -10.296   7.249  72.496  1.00  0.00    -0.218 C  
BRANCH  25  26
HETATM   26  O   UNL     1     -10.004   5.984  71.870  1.00  0.00    -0.168 OA 
HETATM   27  O   UNL     1      -8.958   5.287  73.803  1.00  0.00    -0.124 OA 
HETATM   28  C   UNL     1      -9.345   5.101  72.662  1.00  0.00    -0.137 C  
ENDBRANCH  25  26
BRANCH  25  29
HETATM   29  C   UNL     1     -11.724   7.682  72.186  1.00  0.00    -0.355 A  
HETATM   30  C   UNL     1     -12.083   9.028  72.333  1.00  0.00    -0.289 A  
HETATM   31  C   UNL     1     -13.389   9.448  72.073  1.00  0.00    -0.525 A  
HETATM   32  C   UNL     1     -14.347   8.531  71.648  1.00  0.00    -0.497 A  
HETATM   33  C   UNL     1     -14.003   7.193  71.480  1.00  0.00    -0.440 A  
HETATM   34  C   UNL     1     -12.701   6.771  71.746  1.00  0.00    -0.342 A  
ENDBRANCH  25  29
ENDBRANCH  24  25
ENDBRANCH   8  21
TORSDOF 7
ENDMDL
MODEL      158
REMARK 921   NORMALIZED FREE ENERGY PREDICTED BY IDOCK:   -4.39 KCAL/MOL
REMARK 922        TOTAL FREE ENERGY PREDICTED BY IDOCK:   -7.69 KCAL/MOL
REMARK 923 INTER-LIGAND FREE ENERGY PREDICTED BY IDOCK:   -6.69 KCAL/MOL
REMARK 924 INTRA-LIGAND FREE ENERGY PREDICTED BY IDOCK:   -1.00 KCAL/MOL
REMARK 927      BINDING AFFINITY PREDICTED BY RF-SCORE:    0.00 PKD
ROOT
HETATM    1  C   UNL     1     -10.875   7.462  69.700  1.00  0.00    -0.210 C  
HETATM    2  S   UNL     1     -10.742   7.056  67.938  1.00  0.00    -0.192 SA 
HETATM    3  C   UNL     1     -10.133   5.387  68.255  1.00  0.00    -0.167 C  
HETATM    4  C   UNL     1      -8.991   5.307  69.263  1.00  0.00    -0.126 C  
HETATM    5  OXT UNL     1      -6.519   5.449  70.775  1.00  0.00    -0.032 OA 
HETATM    6  CA  UNL     1      -8.718   6.279  70.182  1.00  0.00    -0.138 C  
HETATM    7  C   UNL     1      -7.450   6.205  71.018  1.00  0.00    -0.085 C  
HETATM    8  CA  UNL     1     -10.822   8.996  70.026  1.00  0.00    -0.231 C  
HETATM    9  N   UNL     1      -9.557   7.357  70.301  1.00  0.00    -0.166 N  
HETATM   10  O   UNL     1      -7.406   6.978  72.120  1.00  0.00    -0.080 OA 
HETATM   11  C   UNL     1      -9.537   8.597  70.837  1.00  0.00    -0.203 C  
HETATM   12  O   UNL     1      -8.723   9.099  71.581  1.00  0.00    -0.343 OA 
ENDROOT
BRANCH   4  13
HETATM   13  C   UNL     1      -8.146   4.062  68.993  1.00  0.00    -0.069 C  
BRANCH  13  14
HETATM   14  S   UNL     1      -7.019   4.150  67.580  1.00  0.00    -0.056 SA 
BRANCH  14  15
HETATM   15  C   UNL     1      -8.040   4.080  66.204  1.00  0.00    -0.098 A  
HETATM   16  N   UNL     1      -8.237   4.998  65.289  1.00  0.00    -0.117 NA 
HETATM   17  N   UNL     1      -9.170   4.475  64.426  1.00  0.00    -0.150 NA 
HETATM   18  C   UNL     1      -8.941   1.738  66.589  1.00  0.00    -0.096 C  
HETATM   19  N   UNL     1      -8.820   2.999  65.909  1.00  0.00    -0.135 NA 
HETATM   20  N   UNL     1      -9.533   3.254  64.797  1.00  0.00    -0.147 NA 
ENDBRANCH  14  15
ENDBRANCH  13  14
ENDBRANCH   4  13
BRANCH   8  21
HETATM   21  N   UNL     1     -10.586   9.868  68.844  1.00  0.00    -0.211 N  
HETATM   22  O   UNL     1     -12.509  11.089  68.976  1.00  0.00    -0.449 OA 
HETATM   23  H   UNL     1      -9.747   9.697  68.290  1.00  0.00     0.000 HD 
HETATM   24  C   UNL     1     -11.420  10.889  68.445  1.00  0.00    -0.304 C  
BRANCH  24  25
HETATM   25  C   UNL     1     -10.873  11.737  67.273  1.00  0.00    -0.253 C  
BRANCH  25  26
HETATM   26  O   UNL     1     -11.978  12.014  66.389  1.00  0.00    -0.611 OA 
HETATM   27  O   UNL     1     -11.577  14.272  66.619  1.00  0.00    -0.352 OA 
HETATM   28  C   UNL     1     -12.190  13.331  66.145  1.00  0.00    -0.405 C  
ENDBRANCH  25  26
BRANCH  25  29
HETATM   29  C   UNL     1      -9.762  11.007  66.529  1.00  0.00    -0.230 A  
HETATM   30  C   UNL     1      -8.425  11.285  66.840  1.00  0.00    -0.152 A  
HETATM   31  C   UNL     1      -7.389  10.643  66.161  1.00  0.00    -0.138 A  
HETATM   32  C   UNL     1      -7.675   9.704  65.173  1.00  0.00    -0.117 A  
HETATM   33  C   UNL     1      -8.997   9.403  64.862  1.00  0.00    -0.256 A  
HETATM   34  C   UNL     1     -10.034  10.049  65.535  1.00  0.00    -0.367 A  
ENDBRANCH  25  29
ENDBRANCH  24  25
ENDBRANCH   8  21
TORSDOF 7
ENDMDL
MODEL      159
REMARK 921   NORMALIZED FREE ENERGY PREDICTED BY IDOCK:   -4.36 KCAL/MOL
REMARK 922        TOTAL FREE ENERGY PREDICTED BY IDOCK:   -7.64 KCAL/MOL
REMARK 923 INTER-LIGAND FREE ENERGY PREDICTED BY IDOCK:   -6.62 KCAL/MOL
REMARK 924 INTRA-LIGAND FREE ENERGY PREDICTED BY IDOCK:   -1.02 KCAL/MOL
REMARK 927      BINDING AFFINITY PREDICTED BY RF-SCORE:    0.00 PKD
ROOT
HETATM    1  C   UNL     1      -8.096  10.534  68.282  1.00  0.00    -0.115 C  
HETATM    2  S   UNL     1      -7.184  11.319  66.925  1.00  0.00    -0.143 SA 
HETATM    3  C   UNL     1      -7.875  12.952  67.260  1.00  0.00    -0.131 C  
HETATM    4  C   UNL     1      -9.390  12.980  67.430  1.00  0.00    -0.209 C  
HETATM    5  OXT UNL     1     -12.280  12.878  67.193  1.00  0.00    -0.368 OA 
HETATM    6  CA  UNL     1     -10.140  11.885  67.751  1.00  0.00    -0.191 C  
HETATM    7  C   UNL     1     -11.658  11.962  67.714  1.00  0.00    -0.323 C  
HETATM    8  CA  UNL     1      -8.319   8.989  68.116  1.00  0.00    -0.121 C  
HETATM    9  N   UNL     1      -9.519  10.698  68.040  1.00  0.00    -0.155 N  
HETATM   10  O   UNL     1     -12.328  10.987  68.358  1.00  0.00    -0.528 OA 
HETATM   11  C   UNL     1      -9.839   9.388  68.133  1.00  0.00    -0.160 C  
HETATM   12  O   UNL     1     -10.930   8.862  68.132  1.00  0.00    -0.058 OA 
ENDROOT
BRANCH   4  13
HETATM   13  C   UNL     1      -9.929  14.363  67.061  1.00  0.00    -0.257 C  
BRANCH  13  14
HETATM   14  S   UNL     1      -8.696  15.666  66.828  1.00  0.00    -0.296 SA 
BRANCH  14  15
HETATM   15  C   UNL     1      -9.574  16.983  66.167  1.00  0.00    -0.240 A  
HETATM   16  N   UNL     1     -10.622  16.950  65.380  1.00  0.00    -0.602 NA 
HETATM   17  N   UNL     1     -10.923  18.262  65.100  1.00  0.00    -0.493 NA 
HETATM   18  C   UNL     1      -8.188  18.844  67.198  1.00  0.00    -0.269 C  
HETATM   19  N   UNL     1      -9.238  18.287  66.389  1.00  0.00    -0.394 NA 
HETATM   20  N   UNL     1     -10.083  19.086  65.712  1.00  0.00    -0.496 NA 
ENDBRANCH  14  15
ENDBRANCH  13  14
ENDBRANCH   4  13
BRANCH   8  21
HETATM   21  N   UNL     1      -7.820   8.431  66.831  1.00  0.00    -0.095 N  
HETATM   22  O   UNL     1      -7.015   6.457  67.647  1.00  0.00    -0.073 OA 
HETATM   23  H   UNL     1      -7.897   9.015  65.999  1.00  0.00     0.000 HD 
HETATM   24  C   UNL     1      -7.261   7.181  66.685  1.00  0.00    -0.079 C  
BRANCH  24  25
HETATM   25  C   UNL     1      -6.957   6.785  65.221  1.00  0.00    -0.055 C  
BRANCH  25  26
HETATM   26  O   UNL     1      -7.664   7.708  64.369  1.00  0.00    -0.113 OA 
HETATM   27  O   UNL     1      -5.743   8.018  63.134  1.00  0.00    -0.061 OA 
HETATM   28  C   UNL     1      -6.923   8.226  63.358  1.00  0.00    -0.085 C  
ENDBRANCH  25  26
BRANCH  25  29
HETATM   29  C   UNL     1      -7.387   5.352  64.931  1.00  0.00    -0.068 A  
HETATM   30  C   UNL     1      -6.420   4.399  64.585  1.00  0.00    -0.039 A  
HETATM   31  C   UNL     1      -6.790   3.085  64.297  1.00  0.00    -0.037 A  
HETATM   32  C   UNL     1      -8.127   2.702  64.367  1.00  0.00    -0.082 A  
HETATM   33  C   UNL     1      -9.098   3.631  64.726  1.00  0.00    -0.134 A  
HETATM   34  C   UNL     1      -8.732   4.947  65.006  1.00  0.00    -0.149 A  
ENDBRANCH  25  29
ENDBRANCH  24  25
ENDBRANCH   8  21
TORSDOF 7
ENDMDL
MODEL      160
REMARK 921   NORMALIZED FREE ENERGY PREDICTED BY IDOCK:   -4.33 KCAL/MOL
REMARK 922        TOTAL FREE ENERGY PREDICTED BY IDOCK:   -7.59 KCAL/MOL
REMARK 923 INTER-LIGAND FREE ENERGY PREDICTED BY IDOCK:   -6.64 KCAL/MOL
REMARK 924 INTRA-LIGAND FREE ENERGY PREDICTED BY IDOCK:   -0.96 KCAL/MOL
REMARK 927      BINDING AFFINITY PREDICTED BY RF-SCORE:    0.00 PKD
ROOT
HETATM    1  C   UNL     1      -8.236  11.344  68.958  1.00  0.00     0.020 C  
HETATM    2  S   UNL     1      -7.224  11.790  67.521  1.00  0.00    -0.134 SA 
HETATM    3  C   UNL     1      -7.290  13.556  67.883  1.00  0.00    -0.149 C  
HETATM    4  C   UNL     1      -8.688  14.094  68.173  1.00  0.00    -0.181 C  
HETATM    5  OXT UNL     1     -11.450  14.981  68.168  1.00  0.00    -0.315 OA 
HETATM    6  CA  UNL     1      -9.736  13.315  68.570  1.00  0.00    -0.145 C  
HETATM    7  C   UNL     1     -11.136  13.902  68.652  1.00  0.00    -0.265 C  
HETATM    8  CA  UNL     1      -8.981   9.969  68.835  1.00  0.00    -0.152 C  
HETATM    9  N   UNL     1      -9.533  11.984  68.827  1.00  0.00    -0.039 N  
HETATM   10  O   UNL     1     -12.043  13.205  69.363  1.00  0.00    -0.292 OA 
HETATM   11  C   UNL     1     -10.270  10.859  68.966  1.00  0.00    -0.203 C  
HETATM   12  O   UNL     1     -11.471  10.734  69.060  1.00  0.00    -0.262 OA 
ENDROOT
BRANCH   4  13
HETATM   13  C   UNL     1      -8.754  15.582  67.827  1.00  0.00    -0.167 C  
BRANCH  13  14
HETATM   14  S   UNL     1      -8.861  15.990  66.068  1.00  0.00    -0.160 SA 
BRANCH  14  15
HETATM   15  C   UNL     1      -8.309  17.611  65.962  1.00  0.00    -0.064 A  
HETATM   16  N   UNL     1      -7.101  18.043  65.690  1.00  0.00    -0.516 NA 
HETATM   17  N   UNL     1      -7.167  19.414  65.766  1.00  0.00    -0.325 NA 
HETATM   18  C   UNL     1     -10.519  18.741  66.492  1.00  0.00    -0.427 C  
HETATM   19  N   UNL     1      -9.116  18.689  66.185  1.00  0.00    -0.486 NA 
HETATM   20  N   UNL     1      -8.394  19.818  66.068  1.00  0.00    -0.355 NA 
ENDBRANCH  14  15
ENDBRANCH  13  14
ENDBRANCH   4  13
BRANCH   8  21
HETATM   21  N   UNL     1      -8.806   9.290  67.524  1.00  0.00    -0.119 N  
HETATM   22  O   UNL     1     -10.619   7.911  67.647  1.00  0.00    -0.240 OA 
HETATM   23  H   UNL     1      -7.985   9.534  66.970  1.00  0.00     0.000 HD 
HETATM   24  C   UNL     1      -9.673   8.356  67.003  1.00  0.00    -0.206 C  
BRANCH  24  25
HETATM   25  C   UNL     1      -9.339   7.910  65.560  1.00  0.00     0.324 C  
BRANCH  25  26
HETATM   26  O   UNL     1      -8.044   7.280  65.591  1.00  0.00    -0.118 OA 
HETATM   27  O   UNL     1      -9.061   5.214  65.480  1.00  0.00    -0.157 OA 
HETATM   28  C   UNL     1      -8.072   5.925  65.524  1.00  0.00    -0.131 C  
ENDBRANCH  25  26
BRANCH  25  29
HETATM   29  C   UNL     1      -9.337   9.093  64.599  1.00  0.00     0.094 A  
HETATM   30  C   UNL     1     -10.037  10.258  64.938  1.00  0.00    -0.346 A  
HETATM   31  C   UNL     1     -10.065  11.349  64.067  1.00  0.00    -0.369 A  
HETATM   32  C   UNL     1      -9.382  11.295  62.855  1.00  0.00    -0.376 A  
HETATM   33  C   UNL     1      -8.668  10.152  62.510  1.00  0.00    -0.230 A  
HETATM   34  C   UNL     1      -8.644   9.058  63.375  1.00  0.00    -0.145 A  
ENDBRANCH  25  29
ENDBRANCH  24  25
ENDBRANCH   8  21
TORSDOF 7
ENDMDL
MODEL      161
REMARK 921   NORMALIZED FREE ENERGY PREDICTED BY IDOCK:   -4.32 KCAL/MOL
REMARK 922        TOTAL FREE ENERGY PREDICTED BY IDOCK:   -7.58 KCAL/MOL
REMARK 923 INTER-LIGAND FREE ENERGY PREDICTED BY IDOCK:   -9.32 KCAL/MOL
REMARK 924 INTRA-LIGAND FREE ENERGY PREDICTED BY IDOCK:    1.75 KCAL/MOL
REMARK 927      BINDING AFFINITY PREDICTED BY RF-SCORE:    0.00 PKD
ROOT
HETATM    1  C   UNL     1     -11.746  12.755  66.634  1.00  0.00    -0.393 C  
HETATM    2  S   UNL     1     -10.158  12.209  65.948  1.00  0.00    -0.249 SA 
HETATM    3  C   UNL     1     -10.437  10.482  66.386  1.00  0.00    -0.192 C  
HETATM    4  C   UNL     1     -10.896  10.255  67.822  1.00  0.00    -0.346 C  
HETATM    5  OXT UNL     1     -11.241  10.027  70.694  1.00  0.00    -0.304 OA 
HETATM    6  CA  UNL     1     -11.477  11.218  68.596  1.00  0.00    -0.297 C  
HETATM    7  C   UNL     1     -11.729  10.962  70.074  1.00  0.00    -0.345 C  
HETATM    8  CA  UNL     1     -11.799  14.270  67.041  1.00  0.00    -0.428 C  
HETATM    9  N   UNL     1     -11.769  12.442  68.052  1.00  0.00    -0.348 N  
HETATM   10  O   UNL     1     -12.596  11.787  70.691  1.00  0.00    -0.279 OA 
HETATM   11  C   UNL     1     -12.068  13.690  68.476  1.00  0.00    -0.286 C  
HETATM   12  O   UNL     1     -12.338  14.078  69.592  1.00  0.00    -0.334 OA 
ENDROOT
BRANCH   4  13
HETATM   13  C   UNL     1     -10.489   8.855  68.284  1.00  0.00    -0.195 C  
BRANCH  13  14
HETATM   14  S   UNL     1      -8.780   8.367  67.946  1.00  0.00    -0.138 SA 
BRANCH  14  15
HETATM   15  C   UNL     1      -8.911   6.920  67.035  1.00  0.00    -0.120 A  
HETATM   16  N   UNL     1      -9.330   5.743  67.433  1.00  0.00    -0.111 NA 
HETATM   17  N   UNL     1      -9.206   4.912  66.345  1.00  0.00    -0.132 NA 
HETATM   18  C   UNL     1      -8.058   7.847  64.832  1.00  0.00    -0.144 C  
HETATM   19  N   UNL     1      -8.551   6.832  65.722  1.00  0.00    -0.150 NA 
HETATM   20  N   UNL     1      -8.731   5.569  65.295  1.00  0.00    -0.153 NA 
ENDBRANCH  14  15
ENDBRANCH  13  14
ENDBRANCH   4  13
BRANCH   8  21
HETATM   21  N   UNL     1     -10.511  14.996  66.877  1.00  0.00    -0.274 N  
HETATM   22  O   UNL     1     -10.943  15.929  64.840  1.00  0.00    -0.443 OA 
HETATM   23  H   UNL     1      -9.804  14.876  67.602  1.00  0.00     0.000 HD 
HETATM   24  C   UNL     1     -10.206  15.819  65.816  1.00  0.00    -0.370 C  
BRANCH  24  25
HETATM   25  C   UNL     1      -8.860  16.569  65.958  1.00  0.00    -0.232 C  
BRANCH  25  26
HETATM   26  O   UNL     1      -8.071  15.859  66.933  1.00  0.00    -0.201 OA 
HETATM   27  O   UNL     1      -9.315  16.820  68.619  1.00  0.00    -0.237 OA 
HETATM   28  C   UNL     1      -8.436  16.076  68.221  1.00  0.00    -0.177 C  
ENDBRANCH  25  26
BRANCH  25  29
HETATM   29  C   UNL     1      -9.071  18.015  66.389  1.00  0.00    -0.251 A  
HETATM   30  C   UNL     1     -10.373  18.495  66.578  1.00  0.00    -0.447 A  
HETATM   31  C   UNL     1     -10.594  19.820  66.956  1.00  0.00    -0.586 A  
HETATM   32  C   UNL     1      -9.517  20.678  67.165  1.00  0.00    -0.505 A  
HETATM   33  C   UNL     1      -8.216  20.213  66.998  1.00  0.00    -0.374 A  
HETATM   34  C   UNL     1      -7.994  18.891  66.614  1.00  0.00    -0.280 A  
ENDBRANCH  25  29
ENDBRANCH  24  25
ENDBRANCH   8  21
TORSDOF 7
ENDMDL
MODEL      162
REMARK 921   NORMALIZED FREE ENERGY PREDICTED BY IDOCK:   -4.31 KCAL/MOL
REMARK 922        TOTAL FREE ENERGY PREDICTED BY IDOCK:   -7.57 KCAL/MOL
REMARK 923 INTER-LIGAND FREE ENERGY PREDICTED BY IDOCK:   -6.30 KCAL/MOL
REMARK 924 INTRA-LIGAND FREE ENERGY PREDICTED BY IDOCK:   -1.28 KCAL/MOL
REMARK 927      BINDING AFFINITY PREDICTED BY RF-SCORE:    0.00 PKD
ROOT
HETATM    1  C   UNL     1     -11.004   7.811  70.171  1.00  0.00    -0.241 C  
HETATM    2  S   UNL     1     -11.197   6.738  68.722  1.00  0.00    -0.029 SA 
HETATM    3  C   UNL     1     -10.510   5.296  69.561  1.00  0.00    -0.234 C  
HETATM    4  C   UNL     1      -9.198   5.552  70.294  1.00  0.00    -0.181 C  
HETATM    5  OXT UNL     1      -6.489   6.132  71.156  1.00  0.00    -0.046 OA 
HETATM    6  CA  UNL     1      -8.774   6.789  70.687  1.00  0.00    -0.143 C  
HETATM    7  C   UNL     1      -7.370   6.976  71.241  1.00  0.00    -0.080 C  
HETATM    8  CA  UNL     1     -10.919   9.344  69.846  1.00  0.00    -0.229 C  
HETATM    9  N   UNL     1      -9.595   7.874  70.517  1.00  0.00    -0.170 N  
HETATM   10  O   UNL     1      -7.134   8.116  71.918  1.00  0.00    -0.068 OA 
HETATM   11  C   UNL     1      -9.497   9.222  70.503  1.00  0.00    -0.264 C  
HETATM   12  O   UNL     1      -8.567   9.927  70.827  1.00  0.00    -0.094 OA 
ENDROOT
BRANCH   4  13
HETATM   13  C   UNL     1      -8.396   4.253  70.395  1.00  0.00    -0.065 C  
BRANCH  13  14
HETATM   14  S   UNL     1      -7.242   3.919  69.042  1.00  0.00    -0.054 SA 
BRANCH  14  15
HETATM   15  C   UNL     1      -8.152   4.196  67.615  1.00  0.00    -0.094 A  
HETATM   16  N   UNL     1      -8.131   5.244  66.827  1.00  0.00    -0.104 NA 
HETATM   17  N   UNL     1      -9.066   4.997  65.850  1.00  0.00    -0.146 NA 
HETATM   18  C   UNL     1      -9.436   2.006  67.620  1.00  0.00    -0.050 C  
HETATM   19  N   UNL     1      -9.067   3.306  67.131  1.00  0.00    -0.163 NA 
HETATM   20  N   UNL     1      -9.643   3.816  66.027  1.00  0.00    -0.179 NA 
ENDBRANCH  14  15
ENDBRANCH  13  14
ENDBRANCH   4  13
BRANCH   8  21
HETATM   21  N   UNL     1     -10.925   9.665  68.394  1.00  0.00    -0.445 N  
HETATM   22  O   UNL     1     -10.450  11.890  68.570  1.00  0.00    -0.213 OA 
HETATM   23  H   UNL     1     -11.165   8.917  67.744  1.00  0.00     0.000 HD 
HETATM   24  C   UNL     1     -10.630  10.902  67.864  1.00  0.00    -0.207 C  
BRANCH  24  25
HETATM   25  C   UNL     1     -10.566  10.935  66.319  1.00  0.00    -0.214 C  
BRANCH  25  26
HETATM   26  O   UNL     1      -9.202  10.667  65.938  1.00  0.00    -0.169 OA 
HETATM   27  O   UNL     1      -9.695   8.419  65.804  1.00  0.00    -0.075 OA 
HETATM   28  C   UNL     1      -8.929   9.360  65.696  1.00  0.00    -0.193 C  
ENDBRANCH  25  26
BRANCH  25  29
HETATM   29  C   UNL     1     -11.020  12.282  65.771  1.00  0.00    -0.338 A  
HETATM   30  C   UNL     1     -12.390  12.555  65.660  1.00  0.00    -0.296 A  
HETATM   31  C   UNL     1     -12.832  13.774  65.145  1.00  0.00    -0.386 A  
HETATM   32  C   UNL     1     -11.912  14.742  64.749  1.00  0.00    -0.408 A  
HETATM   33  C   UNL     1     -10.548  14.494  64.868  1.00  0.00    -0.450 A  
HETATM   34  C   UNL     1     -10.104  13.274  65.376  1.00  0.00    -0.267 A  
ENDBRANCH  25  29
ENDBRANCH  24  25
ENDBRANCH   8  21
TORSDOF 7
ENDMDL
MODEL      163
REMARK 921   NORMALIZED FREE ENERGY PREDICTED BY IDOCK:   -4.30 KCAL/MOL
REMARK 922        TOTAL FREE ENERGY PREDICTED BY IDOCK:   -7.56 KCAL/MOL
REMARK 923 INTER-LIGAND FREE ENERGY PREDICTED BY IDOCK:   -6.64 KCAL/MOL
REMARK 924 INTRA-LIGAND FREE ENERGY PREDICTED BY IDOCK:   -0.92 KCAL/MOL
REMARK 927      BINDING AFFINITY PREDICTED BY RF-SCORE:    0.00 PKD
ROOT
HETATM    1  C   UNL     1      -7.846  10.485  68.147  1.00  0.00    -0.109 C  
HETATM    2  S   UNL     1      -9.467  10.490  68.960  1.00  0.00    -0.190 SA 
HETATM    3  C   UNL     1      -9.391   8.735  69.369  1.00  0.00    -0.157 C  
HETATM    4  C   UNL     1      -8.995   7.828  68.210  1.00  0.00    -0.131 C  
HETATM    5  OXT UNL     1      -8.746   6.274  65.772  1.00  0.00    -0.153 OA 
HETATM    6  CA  UNL     1      -8.330   8.260  67.098  1.00  0.00    -0.123 C  
HETATM    7  C   UNL     1      -8.144   7.330  65.909  1.00  0.00    -0.125 C  
HETATM    8  CA  UNL     1      -7.636  11.629  67.094  1.00  0.00    -0.152 C  
HETATM    9  N   UNL     1      -7.891   9.557  67.031  1.00  0.00    -0.098 N  
HETATM   10  O   UNL     1      -7.206   7.681  65.008  1.00  0.00    -0.061 OA 
HETATM   11  C   UNL     1      -7.467  10.431  66.091  1.00  0.00    -0.131 C  
HETATM   12  O   UNL     1      -7.183  10.234  64.931  1.00  0.00    -0.136 OA 
ENDROOT
BRANCH   4  13
HETATM   13  C   UNL     1      -9.565   6.426  68.428  1.00  0.00    -0.125 C  
BRANCH  13  14
HETATM   14  S   UNL     1      -8.576   5.310  69.453  1.00  0.00    -0.101 SA 
BRANCH  14  15
HETATM   15  C   UNL     1      -8.748   3.772  68.714  1.00  0.00    -0.100 A  
HETATM   16  N   UNL     1      -9.402   3.462  67.620  1.00  0.00    -0.194 NA 
HETATM   17  N   UNL     1      -9.271   2.102  67.477  1.00  0.00    -0.156 NA 
HETATM   18  C   UNL     1      -7.383   2.451  70.398  1.00  0.00    -0.033 C  
HETATM   19  N   UNL     1      -8.204   2.632  69.232  1.00  0.00    -0.050 NA 
HETATM   20  N   UNL     1      -8.541   1.586  68.456  1.00  0.00    -0.058 NA 
ENDBRANCH  14  15
ENDBRANCH  13  14
ENDBRANCH   4  13
BRANCH   8  21
HETATM   21  N   UNL     1      -8.831  12.486  66.870  1.00  0.00    -0.215 N  
HETATM   22  O   UNL     1      -7.822  14.508  67.182  1.00  0.00    -0.191 OA 
HETATM   23  H   UNL     1      -9.723  12.019  66.704  1.00  0.00     0.000 HD 
HETATM   24  C   UNL     1      -8.820  13.863  66.871  1.00  0.00    -0.193 C  
BRANCH  24  25
HETATM   25  C   UNL     1     -10.165  14.512  66.469  1.00  0.00    -0.279 C  
BRANCH  25  26
HETATM   26  O   UNL     1     -10.955  14.645  67.667  1.00  0.00    -0.277 OA 
HETATM   27  O   UNL     1     -10.238  16.826  67.880  1.00  0.00    -0.277 OA 
HETATM   28  C   UNL     1     -10.901  15.871  68.246  1.00  0.00    -0.315 C  
ENDBRANCH  25  26
BRANCH  25  29
HETATM   29  C   UNL     1     -10.900  13.672  65.433  1.00  0.00    -0.302 A  
HETATM   30  C   UNL     1     -10.212  13.212  64.303  1.00  0.00    -0.283 A  
HETATM   31  C   UNL     1     -10.867  12.455  63.330  1.00  0.00    -0.417 A  
HETATM   32  C   UNL     1     -12.214  12.136  63.481  1.00  0.00    -0.670 A  
HETATM   33  C   UNL     1     -12.910  12.571  64.605  1.00  0.00    -0.325 A  
HETATM   34  C   UNL     1     -12.259  13.333  65.575  1.00  0.00    -0.506 A  
ENDBRANCH  25  29
ENDBRANCH  24  25
ENDBRANCH   8  21
TORSDOF 7
ENDMDL
MODEL      164
REMARK 921   NORMALIZED FREE ENERGY PREDICTED BY IDOCK:   -4.30 KCAL/MOL
REMARK 922        TOTAL FREE ENERGY PREDICTED BY IDOCK:   -7.55 KCAL/MOL
REMARK 923 INTER-LIGAND FREE ENERGY PREDICTED BY IDOCK:   -6.44 KCAL/MOL
REMARK 924 INTRA-LIGAND FREE ENERGY PREDICTED BY IDOCK:   -1.11 KCAL/MOL
REMARK 927      BINDING AFFINITY PREDICTED BY RF-SCORE:    0.00 PKD
ROOT
HETATM    1  C   UNL     1      -7.655   9.433  68.303  1.00  0.00    -0.082 C  
HETATM    2  S   UNL     1      -8.509  10.214  69.699  1.00  0.00    -0.116 SA 
HETATM    3  C   UNL     1      -8.994   8.637  70.428  1.00  0.00    -0.158 C  
HETATM    4  C   UNL     1      -9.629   7.653  69.452  1.00  0.00    -0.159 C  
HETATM    5  OXT UNL     1     -11.262   6.174  67.564  1.00  0.00    -0.292 OA 
HETATM    6  CA  UNL     1      -9.469   7.715  68.097  1.00  0.00    -0.145 C  
HETATM    7  C   UNL     1     -10.288   6.811  67.189  1.00  0.00    -0.258 C  
HETATM    8  CA  UNL     1      -7.516  10.338  67.029  1.00  0.00    -0.093 C  
HETATM    9  N   UNL     1      -8.616   8.642  67.556  1.00  0.00    -0.134 N  
HETATM   10  O   UNL     1      -9.851   6.670  65.923  1.00  0.00     0.164 OA 
HETATM   11  C   UNL     1      -8.372   9.207  66.353  1.00  0.00    -0.122 C  
HETATM   12  O   UNL     1      -8.794   8.899  65.260  1.00  0.00    -0.191 OA 
ENDROOT
BRANCH   4  13
HETATM   13  C   UNL     1     -10.554   6.696  70.205  1.00  0.00    -0.222 C  
BRANCH  13  14
HETATM   14  S   UNL     1     -11.058   7.211  71.864  1.00  0.00    -0.243 SA 
BRANCH  14  15
HETATM   15  C   UNL     1     -10.738   5.851  72.859  1.00  0.00    -0.249 A  
HETATM   16  N   UNL     1     -11.529   4.843  73.138  1.00  0.00    -0.320 NA 
HETATM   17  N   UNL     1     -10.825   4.042  74.006  1.00  0.00    -0.229 NA 
HETATM   18  C   UNL     1      -8.372   6.485  73.524  1.00  0.00    -0.118 C  
HETATM   19  N   UNL     1      -9.559   5.675  73.524  1.00  0.00    -0.138 NA 
HETATM   20  N   UNL     1      -9.621   4.542  74.247  1.00  0.00    -0.119 NA 
ENDBRANCH  14  15
ENDBRANCH  13  14
ENDBRANCH   4  13
BRANCH   8  21
HETATM   21  N   UNL     1      -8.182  11.663  67.140  1.00  0.00    -0.158 N  
HETATM   22  O   UNL     1      -6.300  12.954  67.123  1.00  0.00    -0.249 OA 
HETATM   23  H   UNL     1      -9.197  11.676  67.240  1.00  0.00     0.000 HD 
HETATM   24  C   UNL     1      -7.526  12.874  67.118  1.00  0.00    -0.006 C  
BRANCH  24  25
HETATM   25  C   UNL     1      -8.461  14.105  67.103  1.00  0.00    -0.195 C  
BRANCH  25  26
HETATM   26  O   UNL     1      -8.681  14.497  68.473  1.00  0.00    -0.169 OA 
HETATM   27  O   UNL     1      -7.309  16.322  68.156  1.00  0.00    -0.134 OA 
HETATM   28  C   UNL     1      -8.050  15.640  68.842  1.00  0.00    -0.197 C  
ENDBRANCH  25  26
BRANCH  25  29
HETATM   29  C   UNL     1      -9.785  13.791  66.417  1.00  0.00    -0.304 A  
HETATM   30  C   UNL     1     -10.907  13.477  67.195  1.00  0.00    -0.291 A  
HETATM   31  C   UNL     1     -12.126  13.167  66.591  1.00  0.00    -0.409 A  
HETATM   32  C   UNL     1     -12.245  13.183  65.204  1.00  0.00    -0.497 A  
HETATM   33  C   UNL     1     -11.145  13.508  64.416  1.00  0.00    -0.397 A  
HETATM   34  C   UNL     1      -9.924  13.811  65.017  1.00  0.00    -0.211 A  
ENDBRANCH  25  29
ENDBRANCH  24  25
ENDBRANCH   8  21
TORSDOF 7
ENDMDL
MODEL      165
REMARK 921   NORMALIZED FREE ENERGY PREDICTED BY IDOCK:   -4.28 KCAL/MOL
REMARK 922        TOTAL FREE ENERGY PREDICTED BY IDOCK:   -7.53 KCAL/MOL
REMARK 923 INTER-LIGAND FREE ENERGY PREDICTED BY IDOCK:   -7.82 KCAL/MOL
REMARK 924 INTRA-LIGAND FREE ENERGY PREDICTED BY IDOCK:    0.29 KCAL/MOL
REMARK 927      BINDING AFFINITY PREDICTED BY RF-SCORE:    0.00 PKD
ROOT
HETATM    1  C   UNL     1     -10.002  12.562  66.839  1.00  0.00    -0.224 C  
HETATM    2  S   UNL     1     -10.990  12.964  68.305  1.00  0.00    -0.270 SA 
HETATM    3  C   UNL     1     -10.232  14.589  68.506  1.00  0.00    -0.240 C  
HETATM    4  C   UNL     1      -8.708  14.592  68.447  1.00  0.00    -0.175 C  
HETATM    5  OXT UNL     1      -5.847  14.287  68.825  1.00  0.00    -0.077 OA 
HETATM    6  CA  UNL     1      -7.967  13.602  67.869  1.00  0.00    -0.161 C  
HETATM    7  C   UNL     1      -6.454  13.591  68.022  1.00  0.00    -0.135 C  
HETATM    8  CA  UNL     1      -9.835  11.027  66.560  1.00  0.00    -0.203 C  
HETATM    9  N   UNL     1      -8.598  12.580  67.207  1.00  0.00    -0.184 N  
HETATM   10  O   UNL     1      -5.765  12.814  67.165  1.00  0.00    -0.332 OA 
HETATM   11  C   UNL     1      -8.308  11.339  66.756  1.00  0.00    -0.156 C  
HETATM   12  O   UNL     1      -7.235  10.783  66.672  1.00  0.00    -0.119 OA 
ENDROOT
BRANCH   4  13
HETATM   13  C   UNL     1      -8.159  15.782  69.236  1.00  0.00    -0.241 C  
BRANCH  13  14
HETATM   14  S   UNL     1      -7.471  17.140  68.260  1.00  0.00    -0.227 SA 
BRANCH  14  15
HETATM   15  C   UNL     1      -8.835  18.056  67.766  1.00  0.00    -0.255 A  
HETATM   16  N   UNL     1     -10.086  17.917  68.134  1.00  0.00    -0.345 NA 
HETATM   17  N   UNL     1     -10.792  18.862  67.429  1.00  0.00    -0.441 NA 
HETATM   18  C   UNL     1      -7.613  19.631  66.194  1.00  0.00    -0.316 C  
HETATM   19  N   UNL     1      -8.758  19.078  66.865  1.00  0.00    -0.293 NA 
HETATM   20  N   UNL     1      -9.989  19.576  66.651  1.00  0.00    -0.372 NA 
ENDBRANCH  14  15
ENDBRANCH  13  14
ENDBRANCH   4  13
BRANCH   8  21
HETATM   21  N   UNL     1     -10.444  10.145  67.592  1.00  0.00    -0.226 N  
HETATM   22  O   UNL     1      -8.536   9.664  68.748  1.00  0.00    -0.117 OA 
HETATM   23  H   UNL     1     -11.441   9.945  67.516  1.00  0.00     0.000 HD 
HETATM   24  C   UNL     1      -9.757   9.580  68.643  1.00  0.00    -0.155 C  
BRANCH  24  25
HETATM   25  C   UNL     1     -10.649   8.824  69.656  1.00  0.00    -0.219 C  
BRANCH  25  26
HETATM   26  O   UNL     1     -10.437   9.424  70.949  1.00  0.00    -0.265 OA 
HETATM   27  O   UNL     1     -12.707   9.781  71.140  1.00  0.00    -0.320 OA 
HETATM   28  C   UNL     1     -11.569   9.835  71.574  1.00  0.00    -0.353 C  
ENDBRANCH  25  26
BRANCH  25  29
HETATM   29  C   UNL     1     -10.314   7.338  69.692  1.00  0.00    -0.227 A  
HETATM   30  C   UNL     1      -9.863   6.763  70.887  1.00  0.00    -0.197 A  
HETATM   31  C   UNL     1      -9.533   5.408  70.942  1.00  0.00    -0.214 A  
HETATM   32  C   UNL     1      -9.663   4.608  69.810  1.00  0.00    -0.280 A  
HETATM   33  C   UNL     1     -10.126   5.160  68.619  1.00  0.00    -0.220 A  
HETATM   34  C   UNL     1     -10.450   6.515  68.560  1.00  0.00    -0.257 A  
ENDBRANCH  25  29
ENDBRANCH  24  25
ENDBRANCH   8  21
TORSDOF 7
ENDMDL
MODEL      166
REMARK 921   NORMALIZED FREE ENERGY PREDICTED BY IDOCK:   -4.28 KCAL/MOL
REMARK 922        TOTAL FREE ENERGY PREDICTED BY IDOCK:   -7.52 KCAL/MOL
REMARK 923 INTER-LIGAND FREE ENERGY PREDICTED BY IDOCK:   -6.53 KCAL/MOL
REMARK 924 INTRA-LIGAND FREE ENERGY PREDICTED BY IDOCK:   -0.99 KCAL/MOL
REMARK 927      BINDING AFFINITY PREDICTED BY RF-SCORE:    0.00 PKD
ROOT
HETATM    1  C   UNL     1      -8.978   8.845  71.350  1.00  0.00    -0.229 C  
HETATM    2  S   UNL     1      -8.792   8.646  69.556  1.00  0.00    -0.145 SA 
HETATM    3  C   UNL     1      -9.736  10.138  69.182  1.00  0.00    -0.215 C  
HETATM    4  C   UNL     1     -11.066  10.251  69.918  1.00  0.00    -0.362 C  
HETATM    5  OXT UNL     1     -13.745  10.002  71.004  1.00  0.00    -0.241 OA 
HETATM    6  CA  UNL     1     -11.360   9.574  71.067  1.00  0.00    -0.352 C  
HETATM    7  C   UNL     1     -12.773   9.600  71.628  1.00  0.00    -0.407 C  
HETATM    8  CA  UNL     1      -8.834   7.519  72.176  1.00  0.00    -0.125 C  
HETATM    9  N   UNL     1     -10.393   8.815  71.675  1.00  0.00    -0.292 N  
HETATM   10  O   UNL     1     -12.921   9.216  72.911  1.00  0.00    -0.294 OA 
HETATM   11  C   UNL     1     -10.314   7.833  72.599  1.00  0.00    -0.292 C  
HETATM   12  O   UNL     1     -11.170   7.406  73.342  1.00  0.00    -0.285 OA 
ENDROOT
BRANCH   4  13
HETATM   13  C   UNL     1     -12.035  11.117  69.112  1.00  0.00    -0.343 C  
BRANCH  13  14
HETATM   14  S   UNL     1     -11.488  12.802  68.748  1.00  0.00    -0.326 SA 
BRANCH  14  15
HETATM   15  C   UNL     1     -12.124  13.752  70.026  1.00  0.00    -0.349 A  
HETATM   16  N   UNL     1     -12.647  13.348  71.159  1.00  0.00    -0.367 NA 
HETATM   17  N   UNL     1     -13.042  14.488  71.818  1.00  0.00    -0.327 NA 
HETATM   18  C   UNL     1     -11.709  16.026  68.977  1.00  0.00    -0.318 C  
HETATM   19  N   UNL     1     -12.175  15.116  69.986  1.00  0.00    -0.336 NA 
HETATM   20  N   UNL     1     -12.758  15.572  71.110  1.00  0.00    -0.435 NA 
ENDBRANCH  14  15
ENDBRANCH  13  14
ENDBRANCH   4  13
BRANCH   8  21
HETATM   21  N   UNL     1      -8.651   6.297  71.349  1.00  0.00    -0.131 N  
HETATM   22  O   UNL     1      -6.411   6.511  70.974  1.00  0.00    -0.045 OA 
HETATM   23  H   UNL     1      -9.481   5.747  71.127  1.00  0.00     0.000 HD 
HETATM   24  C   UNL     1      -7.442   5.853  70.862  1.00  0.00    -0.091 C  
BRANCH  24  25
HETATM   25  C   UNL     1      -7.504   4.479  70.155  1.00  0.00    -0.050 C  
BRANCH  25  26
HETATM   26  O   UNL     1      -8.020   4.700  68.828  1.00  0.00    -0.078 OA 
HETATM   27  O   UNL     1      -5.893   4.452  67.974  1.00  0.00    -0.021 OA 
HETATM   28  C   UNL     1      -7.090   4.635  67.841  1.00  0.00    -0.061 C  
ENDBRANCH  25  26
BRANCH  25  29
HETATM   29  C   UNL     1      -8.388   3.500  70.918  1.00  0.00    -0.089 A  
HETATM   30  C   UNL     1      -7.976   3.032  72.172  1.00  0.00    -0.055 A  
HETATM   31  C   UNL     1      -8.759   2.122  72.883  1.00  0.00    -0.068 A  
HETATM   32  C   UNL     1      -9.970   1.679  72.357  1.00  0.00    -0.197 A  
HETATM   33  C   UNL     1     -10.403   2.146  71.120  1.00  0.00     0.564 A  
HETATM   34  C   UNL     1      -9.618   3.050  70.405  1.00  0.00    -0.170 A  
ENDBRANCH  25  29
ENDBRANCH  24  25
ENDBRANCH   8  21
TORSDOF 7
ENDMDL
MODEL      167
REMARK 921   NORMALIZED FREE ENERGY PREDICTED BY IDOCK:   -4.27 KCAL/MOL
REMARK 922        TOTAL FREE ENERGY PREDICTED BY IDOCK:   -7.51 KCAL/MOL
REMARK 923 INTER-LIGAND FREE ENERGY PREDICTED BY IDOCK:   -6.60 KCAL/MOL
REMARK 924 INTRA-LIGAND FREE ENERGY PREDICTED BY IDOCK:   -0.91 KCAL/MOL
REMARK 927      BINDING AFFINITY PREDICTED BY RF-SCORE:    0.00 PKD
ROOT
HETATM    1  C   UNL     1      -8.115  15.453  68.724  1.00  0.00    -0.166 C  
HETATM    2  S   UNL     1      -7.028  14.632  67.527  1.00  0.00    -0.103 SA 
HETATM    3  C   UNL     1      -6.412  16.188  66.853  1.00  0.00     0.029 C  
HETATM    4  C   UNL     1      -7.495  17.203  66.503  1.00  0.00    -0.318 C  
HETATM    5  OXT UNL     1      -9.711  18.743  65.437  1.00  0.00    -0.011 OA 
HETATM    6  CA  UNL     1      -8.756  17.182  67.026  1.00  0.00    -0.225 C  
HETATM    7  C   UNL     1      -9.826  18.114  66.480  1.00  0.00    -0.362 C  
HETATM    8  CA  UNL     1      -9.329  14.586  69.210  1.00  0.00     0.095 C  
HETATM    9  N   UNL     1      -9.072  16.268  67.998  1.00  0.00    -0.187 N  
HETATM   10  O   UNL     1     -10.920  18.291  67.244  1.00  0.00    -0.312 OA 
HETATM   11  C   UNL     1     -10.180  15.739  68.564  1.00  0.00    -0.216 C  
HETATM   12  O   UNL     1     -11.337  16.081  68.454  1.00  0.00    -0.355 OA 
ENDROOT
BRANCH   4  13
HETATM   13  C   UNL     1      -6.994  18.140  65.403  1.00  0.00     0.103 C  
BRANCH  13  14
HETATM   14  S   UNL     1      -6.537  19.811  65.922  1.00  0.00    -0.254 SA 
BRANCH  14  15
HETATM   15  C   UNL     1      -6.582  19.763  67.636  1.00  0.00    -0.231 A  
HETATM   16  N   UNL     1      -5.701  19.247  68.459  1.00  0.00    -0.209 NA 
HETATM   17  N   UNL     1      -6.215  19.427  69.721  1.00  0.00    -0.279 NA 
HETATM   18  C   UNL     1      -8.802  20.956  67.935  1.00  0.00     0.268 C  
HETATM   19  N   UNL     1      -7.616  20.271  68.368  1.00  0.00    -0.135 NA 
HETATM   20  N   UNL     1      -7.385  20.052  69.675  1.00  0.00    -0.044 NA 
ENDBRANCH  14  15
ENDBRANCH  13  14
ENDBRANCH   4  13
BRANCH   8  21
HETATM   21  N   UNL     1      -9.443  13.260  68.546  1.00  0.00    -0.369 N  
HETATM   22  O   UNL     1     -11.666  12.915  68.928  1.00  0.00    -0.289 OA 
HETATM   23  H   UNL     1      -8.591  12.844  68.170  1.00  0.00     0.000 HD 
HETATM   24  C   UNL     1     -10.616  12.554  68.402  1.00  0.00    -0.242 C  
BRANCH  24  25
HETATM   25  C   UNL     1     -10.488  11.272  67.547  1.00  0.00    -0.201 C  
BRANCH  25  26
HETATM   26  O   UNL     1      -9.279  10.601  67.952  1.00  0.00    -0.145 OA 
HETATM   27  O   UNL     1     -10.532   8.801  68.664  1.00  0.00    -0.211 OA 
HETATM   28  C   UNL     1      -9.467   9.364  68.476  1.00  0.00    -0.145 C  
ENDBRANCH  25  26
BRANCH  25  29
HETATM   29  C   UNL     1     -10.447  11.597  66.059  1.00  0.00    -0.294 A  
HETATM   30  C   UNL     1     -10.241  10.566  65.133  1.00  0.00    -0.358 A  
HETATM   31  C   UNL     1     -10.182  10.841  63.766  1.00  0.00    -0.354 A  
HETATM   32  C   UNL     1     -10.342  12.145  63.306  1.00  0.00    -0.352 A  
HETATM   33  C   UNL     1     -10.563  13.179  64.210  1.00  0.00    -0.432 A  
HETATM   34  C   UNL     1     -10.616  12.908  65.577  1.00  0.00    -0.298 A  
ENDBRANCH  25  29
ENDBRANCH  24  25
ENDBRANCH   8  21
TORSDOF 7
ENDMDL
MODEL      168
REMARK 921   NORMALIZED FREE ENERGY PREDICTED BY IDOCK:   -4.22 KCAL/MOL
REMARK 922        TOTAL FREE ENERGY PREDICTED BY IDOCK:   -7.45 KCAL/MOL
REMARK 923 INTER-LIGAND FREE ENERGY PREDICTED BY IDOCK:   -5.89 KCAL/MOL
REMARK 924 INTRA-LIGAND FREE ENERGY PREDICTED BY IDOCK:   -1.55 KCAL/MOL
REMARK 927      BINDING AFFINITY PREDICTED BY RF-SCORE:    0.00 PKD
ROOT
HETATM    1  C   UNL     1      -9.503  11.854  67.064  1.00  0.00    -0.188 C  
HETATM    2  S   UNL     1     -10.644  11.436  68.410  1.00  0.00    -0.214 SA 
HETATM    3  C   UNL     1     -11.104  13.156  68.702  1.00  0.00    -0.269 C  
HETATM    4  C   UNL     1      -9.928  14.119  68.817  1.00  0.00    -0.184 C  
HETATM    5  OXT UNL     1      -7.565  15.650  69.516  1.00  0.00    -0.217 OA 
HETATM    6  CA  UNL     1      -8.682  13.860  68.323  1.00  0.00    -0.183 C  
HETATM    7  C   UNL     1      -7.523  14.790  68.647  1.00  0.00    -0.126 C  
HETATM    8  CA  UNL     1      -8.380  10.790  66.801  1.00  0.00    -0.136 C  
HETATM    9  N   UNL     1      -8.465  12.722  67.590  1.00  0.00    -0.165 N  
HETATM   10  O   UNL     1      -6.427  14.684  67.871  1.00  0.00    -0.136 OA 
HETATM   11  C   UNL     1      -7.418  11.976  67.170  1.00  0.00    -0.138 C  
HETATM   12  O   UNL     1      -6.234  12.225  67.207  1.00  0.00    -0.138 OA 
ENDROOT
BRANCH   4  13
HETATM   13  C   UNL     1     -10.325  15.326  69.668  1.00  0.00    -0.262 C  
BRANCH  13  14
HETATM   14  S   UNL     1     -11.274  16.618  68.829  1.00  0.00    -0.127 SA 
BRANCH  14  15
HETATM   15  C   UNL     1     -10.129  17.428  67.841  1.00  0.00    -0.326 A  
HETATM   16  N   UNL     1      -9.371  18.453  68.147  1.00  0.00    -0.306 NA 
HETATM   17  N   UNL     1      -8.664  18.750  67.006  1.00  0.00    -0.276 NA 
HETATM   18  C   UNL     1     -10.446  16.015  65.756  1.00  0.00    -0.374 C  
HETATM   19  N   UNL     1      -9.888  17.081  66.543  1.00  0.00    -0.280 NA 
HETATM   20  N   UNL     1      -8.973  17.918  66.021  1.00  0.00    -0.509 NA 
ENDBRANCH  14  15
ENDBRANCH  13  14
ENDBRANCH   4  13
BRANCH   8  21
HETATM   21  N   UNL     1      -8.380   9.648  67.754  1.00  0.00    -0.120 N  
HETATM   22  O   UNL     1      -7.014   8.258  66.566  1.00  0.00    -0.066 OA 
HETATM   23  H   UNL     1      -8.963   9.726  68.587  1.00  0.00     0.000 HD 
HETATM   24  C   UNL     1      -7.648   8.493  67.592  1.00  0.00    -0.098 C  
BRANCH  24  25
HETATM   25  C   UNL     1      -7.711   7.524  68.796  1.00  0.00    -0.119 C  
BRANCH  25  26
HETATM   26  O   UNL     1      -6.364   7.339  69.273  1.00  0.00    -0.034 OA 
HETATM   27  O   UNL     1      -6.519   9.321  70.439  1.00  0.00    -0.050 OA 
HETATM   28  C   UNL     1      -5.918   8.316  70.102  1.00  0.00    -0.028 C  
ENDBRANCH  25  26
BRANCH  25  29
HETATM   29  C   UNL     1      -8.328   6.187  68.403  1.00  0.00    -0.114 A  
HETATM   30  C   UNL     1      -7.653   4.999  68.710  1.00  0.00    -0.077 A  
HETATM   31  C   UNL     1      -8.188   3.763  68.345  1.00  0.00    -0.087 A  
HETATM   32  C   UNL     1      -9.411   3.698  67.683  1.00  0.00    -0.234 A  
HETATM   33  C   UNL     1     -10.104   4.867  67.385  1.00  0.00    -0.196 A  
HETATM   34  C   UNL     1      -9.567   6.103  67.742  1.00  0.00    -0.114 A  
ENDBRANCH  25  29
ENDBRANCH  24  25
ENDBRANCH   8  21
TORSDOF 7
ENDMDL
MODEL      169
REMARK 921   NORMALIZED FREE ENERGY PREDICTED BY IDOCK:   -4.19 KCAL/MOL
REMARK 922        TOTAL FREE ENERGY PREDICTED BY IDOCK:   -7.40 KCAL/MOL
REMARK 923 INTER-LIGAND FREE ENERGY PREDICTED BY IDOCK:   -6.11 KCAL/MOL
REMARK 924 INTRA-LIGAND FREE ENERGY PREDICTED BY IDOCK:   -1.29 KCAL/MOL
REMARK 927      BINDING AFFINITY PREDICTED BY RF-SCORE:    0.00 PKD
ROOT
HETATM    1  C   UNL     1     -11.164   7.382  71.271  1.00  0.00    -0.252 C  
HETATM    2  S   UNL     1     -10.896   7.115  69.497  1.00  0.00    -0.196 SA 
HETATM    3  C   UNL     1     -10.467   5.376  69.711  1.00  0.00    -0.307 C  
HETATM    4  C   UNL     1      -9.439   5.104  70.804  1.00  0.00    -0.224 C  
HETATM    5  OXT UNL     1      -7.122   4.884  72.537  1.00  0.00    -0.072 OA 
HETATM    6  CA  UNL     1      -9.173   5.965  71.830  1.00  0.00    -0.147 C  
HETATM    7  C   UNL     1      -8.003   5.701  72.765  1.00  0.00    -0.102 C  
HETATM    8  CA  UNL     1     -11.011   8.871  71.741  1.00  0.00    -0.361 C  
HETATM    9  N   UNL     1      -9.924   7.103  71.973  1.00  0.00    -0.163 N  
HETATM   10  O   UNL     1      -8.000   6.371  73.933  1.00  0.00    -0.101 OA 
HETATM   11  C   UNL     1      -9.849   8.286  72.622  1.00  0.00    -0.287 C  
HETATM   12  O   UNL     1      -9.071   8.645  73.478  1.00  0.00    -0.162 OA 
ENDROOT
BRANCH   4  13
HETATM   13  C   UNL     1      -8.682   3.812  70.496  1.00  0.00    -0.073 C  
BRANCH  13  14
HETATM   14  S   UNL     1      -7.073   3.999  69.691  1.00  0.00    -0.046 SA 
BRANCH  14  15
HETATM   15  C   UNL     1      -7.247   5.376  68.683  1.00  0.00    -0.066 A  
HETATM   16  N   UNL     1      -6.851   6.606  68.909  1.00  0.00    -0.060 NA 
HETATM   17  N   UNL     1      -7.262   7.338  67.821  1.00  0.00    -0.088 NA 
HETATM   18  C   UNL     1      -8.461   4.227  66.773  1.00  0.00    -0.104 C  
HETATM   19  N   UNL     1      -7.877   5.338  67.473  1.00  0.00    -0.096 NA 
HETATM   20  N   UNL     1      -7.890   6.573  66.939  1.00  0.00    -0.106 NA 
ENDBRANCH  14  15
ENDBRANCH  13  14
ENDBRANCH   4  13
BRANCH   8  21
HETATM   21  N   UNL     1     -10.588   9.814  70.671  1.00  0.00    -0.310 N  
HETATM   22  O   UNL     1     -12.658  10.599  70.117  1.00  0.00    -0.318 OA 
HETATM   23  H   UNL     1      -9.597   9.842  70.430  1.00  0.00     0.000 HD 
HETATM   24  C   UNL     1     -11.438  10.650  69.982  1.00  0.00    -0.325 C  
BRANCH  24  25
HETATM   25  C   UNL     1     -10.727  11.634  69.024  1.00  0.00    -0.179 C  
BRANCH  25  26
HETATM   26  O   UNL     1     -11.708  12.594  68.584  1.00  0.00    -0.289 OA 
HETATM   27  O   UNL     1     -10.166  14.283  68.876  1.00  0.00    -0.235 OA 
HETATM   28  C   UNL     1     -11.267  13.876  68.546  1.00  0.00    -0.270 C  
ENDBRANCH  25  26
BRANCH  25  29
HETATM   29  C   UNL     1     -10.117  10.906  67.832  1.00  0.00    -0.199 A  
HETATM   30  C   UNL     1      -8.850  11.283  67.368  1.00  0.00    -0.145 A  
HETATM   31  C   UNL     1      -8.278  10.645  66.267  1.00  0.00    -0.153 A  
HETATM   32  C   UNL     1      -8.957   9.612  65.625  1.00  0.00    -0.208 A  
HETATM   33  C   UNL     1     -10.209   9.214  66.082  1.00  0.00    -0.189 A  
HETATM   34  C   UNL     1     -10.786   9.855  67.178  1.00  0.00    -0.276 A  
ENDBRANCH  25  29
ENDBRANCH  24  25
ENDBRANCH   8  21
TORSDOF 7
ENDMDL
MODEL      170
REMARK 921   NORMALIZED FREE ENERGY PREDICTED BY IDOCK:   -4.18 KCAL/MOL
REMARK 922        TOTAL FREE ENERGY PREDICTED BY IDOCK:   -7.39 KCAL/MOL
REMARK 923 INTER-LIGAND FREE ENERGY PREDICTED BY IDOCK:   -6.39 KCAL/MOL
REMARK 924 INTRA-LIGAND FREE ENERGY PREDICTED BY IDOCK:   -1.00 KCAL/MOL
REMARK 927      BINDING AFFINITY PREDICTED BY RF-SCORE:    0.00 PKD
ROOT
HETATM    1  C   UNL     1      -7.636  10.747  67.550  1.00  0.00    -0.094 C  
HETATM    2  S   UNL     1      -7.311  11.042  69.310  1.00  0.00    -0.085 SA 
HETATM    3  C   UNL     1      -7.057   9.293  69.670  1.00  0.00    -0.061 C  
HETATM    4  C   UNL     1      -8.137   8.367  69.121  1.00  0.00    -0.119 C  
HETATM    5  OXT UNL     1     -10.538   6.881  68.452  1.00  0.00    -0.193 OA 
HETATM    6  CA  UNL     1      -8.974   8.698  68.095  1.00  0.00    -0.141 C  
HETATM    7  C   UNL     1     -10.142   7.792  67.738  1.00  0.00    -0.189 C  
HETATM    8  CA  UNL     1      -8.480  11.864  66.842  1.00  0.00    -0.174 C  
HETATM    9  N   UNL     1      -8.799   9.886  67.432  1.00  0.00    -0.132 N  
HETATM   10  O   UNL     1     -10.709   7.984  66.532  1.00  0.00    -0.081 OA 
HETATM   11  C   UNL     1      -9.499  10.692  66.604  1.00  0.00    -0.167 C  
HETATM   12  O   UNL     1     -10.547  10.483  66.033  1.00  0.00    -0.190 OA 
ENDROOT
BRANCH   4  13
HETATM   13  C   UNL     1      -8.214   7.097  69.970  1.00  0.00    -0.136 C  
BRANCH  13  14
HETATM   14  S   UNL     1      -6.867   6.840  71.149  1.00  0.00    -0.059 SA 
BRANCH  14  15
HETATM   15  C   UNL     1      -7.466   7.453  72.635  1.00  0.00    -0.077 A  
HETATM   16  N   UNL     1      -8.539   7.087  73.293  1.00  0.00    -0.123 NA 
HETATM   17  N   UNL     1      -8.601   7.905  74.396  1.00  0.00    -0.197 NA 
HETATM   18  C   UNL     1      -5.649   9.182  73.027  1.00  0.00    -0.055 C  
HETATM   19  N   UNL     1      -6.860   8.466  73.321  1.00  0.00    -0.193 NA 
HETATM   20  N   UNL     1      -7.579   8.750  74.422  1.00  0.00    -0.422 NA 
ENDBRANCH  14  15
ENDBRANCH  13  14
ENDBRANCH   4  13
BRANCH   8  21
HETATM   21  N   UNL     1      -8.951  12.946  67.747  1.00  0.00    -0.181 N  
HETATM   22  O   UNL     1     -10.202  14.096  66.225  1.00  0.00    -0.279 OA 
HETATM   23  H   UNL     1      -8.602  12.947  68.706  1.00  0.00     0.000 HD 
HETATM   24  C   UNL     1      -9.826  13.946  67.385  1.00  0.00    -0.237 C  
BRANCH  24  25
HETATM   25  C   UNL     1     -10.269  14.860  68.551  1.00  0.00    -0.235 C  
BRANCH  25  26
HETATM   26  O   UNL     1     -11.710  14.863  68.573  1.00  0.00    -0.306 OA 
HETATM   27  O   UNL     1     -11.666  13.904  70.669  1.00  0.00    -0.246 OA 
HETATM   28  C   UNL     1     -12.259  14.369  69.712  1.00  0.00    -0.321 C  
ENDBRANCH  25  26
BRANCH  25  29
HETATM   29  C   UNL     1      -9.733  16.276  68.383  1.00  0.00    -0.222 A  
HETATM   30  C   UNL     1     -10.343  17.331  69.074  1.00  0.00    -0.330 A  
HETATM   31  C   UNL     1      -9.883  18.639  68.924  1.00  0.00    -0.394 A  
HETATM   32  C   UNL     1      -8.798  18.909  68.093  1.00  0.00    -0.341 A  
HETATM   33  C   UNL     1      -8.169  17.871  67.411  1.00  0.00    -0.224 A  
HETATM   34  C   UNL     1      -8.632  16.564  67.555  1.00  0.00    -0.188 A  
ENDBRANCH  25  29
ENDBRANCH  24  25
ENDBRANCH   8  21
TORSDOF 7
ENDMDL
MODEL      171
REMARK 921   NORMALIZED FREE ENERGY PREDICTED BY IDOCK:   -4.14 KCAL/MOL
REMARK 922        TOTAL FREE ENERGY PREDICTED BY IDOCK:   -7.32 KCAL/MOL
REMARK 923 INTER-LIGAND FREE ENERGY PREDICTED BY IDOCK:   -5.85 KCAL/MOL
REMARK 924 INTRA-LIGAND FREE ENERGY PREDICTED BY IDOCK:   -1.48 KCAL/MOL
REMARK 927      BINDING AFFINITY PREDICTED BY RF-SCORE:    0.00 PKD
ROOT
HETATM    1  C   UNL     1      -9.952  12.192  67.286  1.00  0.00    -0.203 C  
HETATM    2  S   UNL     1     -10.507  12.794  65.668  1.00  0.00    -0.282 SA 
HETATM    3  C   UNL     1     -10.015  11.283  64.814  1.00  0.00    -0.277 C  
HETATM    4  C   UNL     1      -8.604  10.801  65.134  1.00  0.00    -0.133 C  
HETATM    5  OXT UNL     1      -5.755  10.376  65.479  1.00  0.00    -0.090 OA 
HETATM    6  CA  UNL     1      -7.912  11.163  66.254  1.00  0.00    -0.125 C  
HETATM    7  C   UNL     1      -6.445  10.790  66.400  1.00  0.00    -0.125 C  
HETATM    8  CA  UNL     1      -9.614  13.319  68.325  1.00  0.00    -0.221 C  
HETATM    9  N   UNL     1      -8.527  11.922  67.216  1.00  0.00    -0.164 N  
HETATM   10  O   UNL     1      -5.923  10.864  67.639  1.00  0.00    -0.043 OA 
HETATM   11  C   UNL     1      -8.177  12.687  68.274  1.00  0.00    -0.164 C  
HETATM   12  O   UNL     1      -7.100  12.801  68.816  1.00  0.00    -0.094 OA 
ENDROOT
BRANCH   4  13
HETATM   13  C   UNL     1      -8.058   9.980  63.965  1.00  0.00    -0.153 C  
BRANCH  13  14
HETATM   14  S   UNL     1      -8.481   8.221  63.956  1.00  0.00     0.151 SA 
BRANCH  14  15
HETATM   15  C   UNL     1      -7.975   7.643  65.490  1.00  0.00    -0.120 A  
HETATM   16  N   UNL     1      -6.788   7.215  65.848  1.00  0.00    -0.056 NA 
HETATM   17  N   UNL     1      -6.910   6.827  67.161  1.00  0.00    -0.066 NA 
HETATM   18  C   UNL     1     -10.200   7.904  66.683  1.00  0.00    -0.233 C  
HETATM   19  N   UNL     1      -8.815   7.542  66.561  1.00  0.00    -0.141 NA 
HETATM   20  N   UNL     1      -8.144   7.023  67.605  1.00  0.00    -0.113 NA 
ENDBRANCH  14  15
ENDBRANCH  13  14
ENDBRANCH   4  13
BRANCH   8  21
HETATM   21  N   UNL     1      -9.723  14.702  67.789  1.00  0.00    -0.213 N  
HETATM   22  O   UNL     1      -9.672  15.809  69.784  1.00  0.00    -0.275 OA 
HETATM   23  H   UNL     1      -9.835  14.812  66.781  1.00  0.00     0.000 HD 
HETATM   24  C   UNL     1      -9.682  15.845  68.556  1.00  0.00    -0.211 C  
BRANCH  24  25
HETATM   25  C   UNL     1      -9.669  17.160  67.741  1.00  0.00    -0.271 C  
BRANCH  25  26
HETATM   26  O   UNL     1     -10.183  16.859  66.429  1.00  0.00    -0.302 OA 
HETATM   27  O   UNL     1     -10.871  19.049  66.212  1.00  0.00    -0.343 OA 
HETATM   28  C   UNL     1     -10.738  17.916  65.783  1.00  0.00    -0.089 C  
ENDBRANCH  25  26
BRANCH  25  29
HETATM   29  C   UNL     1      -8.264  17.741  67.646  1.00  0.00    -0.230 A  
HETATM   30  C   UNL     1      -7.364  17.220  66.707  1.00  0.00    -0.248 A  
HETATM   31  C   UNL     1      -6.066  17.724  66.612  1.00  0.00    -0.207 A  
HETATM   32  C   UNL     1      -5.656  18.764  67.442  1.00  0.00    -0.153 A  
HETATM   33  C   UNL     1      -6.541  19.304  68.369  1.00  0.00    -0.285 A  
HETATM   34  C   UNL     1      -7.837  18.798  68.471  1.00  0.00    -0.367 A  
ENDBRANCH  25  29
ENDBRANCH  24  25
ENDBRANCH   8  21
TORSDOF 7
ENDMDL
MODEL      172
REMARK 921   NORMALIZED FREE ENERGY PREDICTED BY IDOCK:   -4.13 KCAL/MOL
REMARK 922        TOTAL FREE ENERGY PREDICTED BY IDOCK:   -7.31 KCAL/MOL
REMARK 923 INTER-LIGAND FREE ENERGY PREDICTED BY IDOCK:   -6.16 KCAL/MOL
REMARK 924 INTRA-LIGAND FREE ENERGY PREDICTED BY IDOCK:   -1.14 KCAL/MOL
REMARK 927      BINDING AFFINITY PREDICTED BY RF-SCORE:    0.00 PKD
ROOT
HETATM    1  C   UNL     1      -7.878  10.550  68.204  1.00  0.00    -0.109 C  
HETATM    2  S   UNL     1      -8.332  11.214  66.579  1.00  0.00    -0.166 SA 
HETATM    3  C   UNL     1      -9.324  12.549  67.278  1.00  0.00    -0.190 C  
HETATM    4  C   UNL     1     -10.312  12.111  68.354  1.00  0.00    -0.236 C  
HETATM    5  OXT UNL     1     -12.448  10.990  69.966  1.00  0.00    -0.305 OA 
HETATM    6  CA  UNL     1     -10.197  10.952  69.067  1.00  0.00    -0.203 C  
HETATM    7  C   UNL     1     -11.325  10.504  69.982  1.00  0.00    -0.318 C  
HETATM    8  CA  UNL     1      -7.475   9.033  68.205  1.00  0.00    -0.084 C  
HETATM    9  N   UNL     1      -9.091  10.159  68.900  1.00  0.00    -0.155 N  
HETATM   10  O   UNL     1     -11.023   9.564  70.898  1.00  0.00    -0.281 OA 
HETATM   11  C   UNL     1      -8.710   8.890  69.166  1.00  0.00    -0.132 C  
HETATM   12  O   UNL     1      -9.260   8.048  69.840  1.00  0.00    -0.151 OA 
ENDROOT
BRANCH   4  13
HETATM   13  C   UNL     1     -11.487  13.088  68.408  1.00  0.00    -0.310 C  
BRANCH  13  14
HETATM   14  S   UNL     1     -11.542  14.347  67.111  1.00  0.00    -0.399 SA 
BRANCH  14  15
HETATM   15  C   UNL     1     -10.925  15.765  67.853  1.00  0.00    -0.324 A  
HETATM   16  N   UNL     1     -10.875  16.059  69.130  1.00  0.00    -0.260 NA 
HETATM   17  N   UNL     1     -10.332  17.320  69.204  1.00  0.00    -0.328 NA 
HETATM   18  C   UNL     1     -10.222  16.962  65.728  1.00  0.00    -0.268 C  
HETATM   19  N   UNL     1     -10.409  16.811  67.145  1.00  0.00    -0.296 NA 
HETATM   20  N   UNL     1     -10.044  17.788  67.997  1.00  0.00    -0.335 NA 
ENDBRANCH  14  15
ENDBRANCH  13  14
ENDBRANCH   4  13
BRANCH   8  21
HETATM   21  N   UNL     1      -7.611   8.360  66.885  1.00  0.00    -0.090 N  
HETATM   22  O   UNL     1      -5.789   6.997  67.047  1.00  0.00    -0.017 OA 
HETATM   23  H   UNL     1      -8.365   8.670  66.272  1.00  0.00     0.000 HD 
HETATM   24  C   UNL     1      -6.792   7.350  66.433  1.00  0.00    -0.061 C  
BRANCH  24  25
HETATM   25  C   UNL     1      -7.236   6.722  65.091  1.00  0.00    -0.074 C  
BRANCH  25  26
HETATM   26  O   UNL     1      -8.213   7.604  64.504  1.00  0.00    -0.131 OA 
HETATM   27  O   UNL     1      -6.869   7.836  62.646  1.00  0.00    -0.078 OA 
HETATM   28  C   UNL     1      -7.891   8.063  63.269  1.00  0.00    -0.147 C  
ENDBRANCH  25  26
BRANCH  25  29
HETATM   29  C   UNL     1      -7.823   5.331  65.294  1.00  0.00    -0.095 A  
HETATM   30  C   UNL     1      -8.956   5.173  66.104  1.00  0.00    -0.135 A  
HETATM   31  C   UNL     1      -9.502   3.907  66.321  1.00  0.00    -0.198 A  
HETATM   32  C   UNL     1      -8.935   2.787  65.719  1.00  0.00    -0.143 A  
HETATM   33  C   UNL     1      -7.819   2.928  64.899  1.00  0.00    -0.082 A  
HETATM   34  C   UNL     1      -7.267   4.190  64.687  1.00  0.00    -0.066 A  
ENDBRANCH  25  29
ENDBRANCH  24  25
ENDBRANCH   8  21
TORSDOF 7
ENDMDL
MODEL      173
REMARK 921   NORMALIZED FREE ENERGY PREDICTED BY IDOCK:   -4.11 KCAL/MOL
REMARK 922        TOTAL FREE ENERGY PREDICTED BY IDOCK:   -7.29 KCAL/MOL
REMARK 923 INTER-LIGAND FREE ENERGY PREDICTED BY IDOCK:   -6.57 KCAL/MOL
REMARK 924 INTRA-LIGAND FREE ENERGY PREDICTED BY IDOCK:   -0.72 KCAL/MOL
REMARK 927      BINDING AFFINITY PREDICTED BY RF-SCORE:    0.00 PKD
ROOT
HETATM    1  C   UNL     1      -8.459  15.707  68.501  1.00  0.00    -0.175 C  
HETATM    2  S   UNL     1      -8.621  15.171  66.776  1.00  0.00    -0.234 SA 
HETATM    3  C   UNL     1      -8.044  16.747  66.116  1.00  0.00    -0.258 C  
HETATM    4  C   UNL     1      -8.718  17.975  66.719  1.00  0.00    -0.269 C  
HETATM    5  OXT UNL     1     -10.479  20.101  67.612  1.00  0.00    -0.355 OA 
HETATM    6  CA  UNL     1      -9.356  17.976  67.926  1.00  0.00    -0.264 C  
HETATM    7  C   UNL     1     -10.162  19.190  68.363  1.00  0.00    -0.389 C  
HETATM    8  CA  UNL     1      -9.362  14.927  69.519  1.00  0.00     0.023 C  
HETATM    9  N   UNL     1      -9.324  16.853  68.713  1.00  0.00    -0.262 N  
HETATM   10  O   UNL     1     -10.470  19.271  69.672  1.00  0.00     0.235 OA 
HETATM   11  C   UNL     1      -9.991  16.344  69.772  1.00  0.00     0.012 C  
HETATM   12  O   UNL     1     -10.801  16.877  70.498  1.00  0.00    -0.014 OA 
ENDROOT
BRANCH   4  13
HETATM   13  C   UNL     1      -8.680  19.133  65.721  1.00  0.00     0.304 C  
BRANCH  13  14
HETATM   14  S   UNL     1      -7.076  19.937  65.490  1.00  0.00    -0.252 SA 
BRANCH  14  15
HETATM   15  C   UNL     1      -6.524  20.274  67.079  1.00  0.00    -0.208 A  
HETATM   16  N   UNL     1      -6.753  21.337  67.812  1.00  0.00    -0.405 NA 
HETATM   17  N   UNL     1      -6.060  21.142  68.983  1.00  0.00    -0.023 NA 
HETATM   18  C   UNL     1      -5.213  18.128  67.427  1.00  0.00    -0.137 C  
HETATM   19  N   UNL     1      -5.720  19.425  67.783  1.00  0.00    -0.191 NA 
HETATM   20  N   UNL     1      -5.425  19.977  68.974  1.00  0.00    -0.209 NA 
ENDBRANCH  14  15
ENDBRANCH  13  14
ENDBRANCH   4  13
BRANCH   8  21
HETATM   21  N   UNL     1     -10.271  13.928  68.895  1.00  0.00    -0.384 N  
HETATM   22  O   UNL     1      -8.711  12.316  68.474  1.00  0.00    -0.157 OA 
HETATM   23  H   UNL     1     -11.248  14.191  68.769  1.00  0.00     0.000 HD 
HETATM   24  C   UNL     1      -9.886  12.674  68.475  1.00  0.00    -0.148 C  
BRANCH  24  25
HETATM   25  C   UNL     1     -11.052  11.778  67.995  1.00  0.00    -0.242 C  
BRANCH  25  26
HETATM   26  O   UNL     1     -12.106  12.648  67.538  1.00  0.00    -0.411 OA 
HETATM   27  O   UNL     1     -11.183  12.634  65.426  1.00  0.00    -0.285 OA 
HETATM   28  C   UNL     1     -12.042  12.970  66.222  1.00  0.00    -0.386 C  
ENDBRANCH  25  26
BRANCH  25  29
HETATM   29  C   UNL     1     -11.552  10.870  69.112  1.00  0.00    -0.389 A  
HETATM   30  C   UNL     1     -11.196   9.515  69.112  1.00  0.00    -0.004 A  
HETATM   31  C   UNL     1     -11.656   8.660  70.113  1.00  0.00     0.083 A  
HETATM   32  C   UNL     1     -12.465   9.149  71.136  1.00  0.00    -0.315 A  
HETATM   33  C   UNL     1     -12.816  10.495  71.160  1.00  0.00    -0.513 A  
HETATM   34  C   UNL     1     -12.363  11.351  70.157  1.00  0.00    -0.344 A  
ENDBRANCH  25  29
ENDBRANCH  24  25
ENDBRANCH   8  21
TORSDOF 7
ENDMDL
MODEL      174
REMARK 921   NORMALIZED FREE ENERGY PREDICTED BY IDOCK:   -4.06 KCAL/MOL
REMARK 922        TOTAL FREE ENERGY PREDICTED BY IDOCK:   -7.22 KCAL/MOL
REMARK 923 INTER-LIGAND FREE ENERGY PREDICTED BY IDOCK:   -6.00 KCAL/MOL
REMARK 924 INTRA-LIGAND FREE ENERGY PREDICTED BY IDOCK:   -1.22 KCAL/MOL
REMARK 927      BINDING AFFINITY PREDICTED BY RF-SCORE:    0.00 PKD
ROOT
HETATM    1  C   UNL     1      -9.984   5.971  69.968  1.00  0.00    -0.177 C  
HETATM    2  S   UNL     1      -8.285   6.118  69.352  1.00  0.00    -0.113 SA 
HETATM    3  C   UNL     1      -7.571   5.326  70.807  1.00  0.00    -0.083 C  
HETATM    4  C   UNL     1      -8.071   5.874  72.139  1.00  0.00    -0.107 C  
HETATM    5  OXT UNL     1      -8.752   7.404  74.508  1.00  0.00    -0.205 OA 
HETATM    6  CA  UNL     1      -9.241   6.562  72.289  1.00  0.00    -0.138 C  
HETATM    7  C   UNL     1      -9.568   7.234  73.613  1.00  0.00    -0.269 C  
HETATM    8  CA  UNL     1     -10.994   7.008  69.363  1.00  0.00    -0.201 C  
HETATM    9  N   UNL     1     -10.087   6.701  71.219  1.00  0.00    -0.188 N  
HETATM   10  O   UNL     1     -10.852   7.590  73.808  1.00  0.00    -0.316 OA 
HETATM   11  C   UNL     1     -11.137   7.472  70.857  1.00  0.00    -0.263 C  
HETATM   12  O   UNL     1     -11.789   8.245  71.524  1.00  0.00    -0.273 OA 
ENDROOT
BRANCH   4  13
HETATM   13  C   UNL     1      -7.014   5.650  73.222  1.00  0.00    -0.085 C  
BRANCH  13  14
HETATM   14  S   UNL     1      -7.323   4.289  74.373  1.00  0.00    -0.073 SA 
BRANCH  14  15
HETATM   15  C   UNL     1      -8.191   3.130  73.453  1.00  0.00    -0.074 A  
HETATM   16  N   UNL     1      -7.721   2.245  72.606  1.00  0.00    -0.051 NA 
HETATM   17  N   UNL     1      -8.818   1.586  72.105  1.00  0.00    -0.066 NA 
HETATM   18  C   UNL     1     -10.514   3.735  74.278  1.00  0.00    -0.213 C  
HETATM   19  N   UNL     1      -9.550   3.014  73.493  1.00  0.00    -0.094 NA 
HETATM   20  N   UNL     1      -9.940   2.049  72.640  1.00  0.00    -0.116 NA 
ENDBRANCH  14  15
ENDBRANCH  13  14
ENDBRANCH   4  13
BRANCH   8  21
HETATM   21  N   UNL     1     -10.378   8.001  68.442  1.00  0.00    -0.221 N  
HETATM   22  O   UNL     1     -10.896   6.960  66.478  1.00  0.00    -0.131 OA 
HETATM   23  H   UNL     1      -9.883   8.789  68.859  1.00  0.00     0.000 HD 
HETATM   24  C   UNL     1     -10.429   7.932  67.068  1.00  0.00    -0.349 C  
BRANCH  24  25
HETATM   25  C   UNL     1      -9.837   9.164  66.345  1.00  0.00    -0.280 C  
BRANCH  25  26
HETATM   26  O   UNL     1      -8.428   8.923  66.165  1.00  0.00    -0.116 OA 
HETATM   27  O   UNL     1      -8.692   9.159  63.887  1.00  0.00    -0.197 OA 
HETATM   28  C   UNL     1      -8.005   8.973  64.877  1.00  0.00    -0.126 C  
ENDBRANCH  25  26
BRANCH  25  29
HETATM   29  C   UNL     1     -10.064  10.441  67.145  1.00  0.00    -0.254 A  
HETATM   30  C   UNL     1     -11.371  10.896  67.361  1.00  0.00    -0.273 A  
HETATM   31  C   UNL     1     -11.605  12.072  68.074  1.00  0.00    -0.407 A  
HETATM   32  C   UNL     1     -10.538  12.800  68.595  1.00  0.00    -0.256 A  
HETATM   33  C   UNL     1      -9.234  12.354  68.404  1.00  0.00    -0.145 A  
HETATM   34  C   UNL     1      -8.997  11.183  67.685  1.00  0.00    -0.140 A  
ENDBRANCH  25  29
ENDBRANCH  24  25
ENDBRANCH   8  21
TORSDOF 7
ENDMDL
MODEL      175
REMARK 921   NORMALIZED FREE ENERGY PREDICTED BY IDOCK:   -4.04 KCAL/MOL
REMARK 922        TOTAL FREE ENERGY PREDICTED BY IDOCK:   -7.19 KCAL/MOL
REMARK 923 INTER-LIGAND FREE ENERGY PREDICTED BY IDOCK:   -6.54 KCAL/MOL
REMARK 924 INTRA-LIGAND FREE ENERGY PREDICTED BY IDOCK:   -0.65 KCAL/MOL
REMARK 927      BINDING AFFINITY PREDICTED BY RF-SCORE:    0.00 PKD
ROOT
HETATM    1  C   UNL     1     -10.548   5.601  68.715  1.00  0.00    -0.216 C  
HETATM    2  S   UNL     1     -10.796   6.973  67.556  1.00  0.00    -0.245 SA 
HETATM    3  C   UNL     1      -9.422   6.475  66.499  1.00  0.00    -0.154 C  
HETATM    4  C   UNL     1      -8.123   6.178  67.241  1.00  0.00    -0.106 C  
HETATM    5  OXT UNL     1      -5.665   6.179  68.782  1.00  0.00    -0.014 OA 
HETATM    6  CA  UNL     1      -8.059   5.869  68.569  1.00  0.00    -0.106 C  
HETATM    7  C   UNL     1      -6.712   5.774  69.268  1.00  0.00    -0.060 C  
HETATM    8  CA  UNL     1     -11.111   5.850  70.157  1.00  0.00    -0.325 C  
HETATM    9  N   UNL     1      -9.218   5.712  69.286  1.00  0.00    -0.115 N  
HETATM   10  O   UNL     1      -6.691   5.143  70.457  1.00  0.00    -0.037 OA 
HETATM   11  C   UNL     1      -9.607   5.680  70.580  1.00  0.00    -0.174 C  
HETATM   12  O   UNL     1      -8.932   5.625  71.584  1.00  0.00    -0.136 OA 
ENDROOT
BRANCH   4  13
HETATM   13  C   UNL     1      -6.929   6.408  66.313  1.00  0.00    -0.066 C  
BRANCH  13  14
HETATM   14  S   UNL     1      -6.348   8.114  66.165  1.00  0.00    -0.046 SA 
BRANCH  14  15
HETATM   15  C   UNL     1      -6.907   8.633  64.629  1.00  0.00    -0.073 A  
HETATM   16  N   UNL     1      -7.899   8.153  63.918  1.00  0.00    -0.141 NA 
HETATM   17  N   UNL     1      -7.914   8.883  62.753  1.00  0.00    -0.139 NA 
HETATM   18  C   UNL     1      -5.227  10.506  64.290  1.00  0.00    -0.152 C  
HETATM   19  N   UNL     1      -6.326   9.652  63.930  1.00  0.00    -0.104 NA 
HETATM   20  N   UNL     1      -6.957   9.800  62.752  1.00  0.00    -0.109 NA 
ENDBRANCH  14  15
ENDBRANCH  13  14
ENDBRANCH   4  13
BRANCH   8  21
HETATM   21  N   UNL     1     -11.684   7.206  70.368  1.00  0.00    -0.492 N  
HETATM   22  O   UNL     1     -11.083   7.456  72.555  1.00  0.00    -0.262 OA 
HETATM   23  H   UNL     1     -12.195   7.629  69.594  1.00  0.00     0.000 HD 
HETATM   24  C   UNL     1     -11.573   7.931  71.534  1.00  0.00    -0.270 C  
BRANCH  24  25
HETATM   25  C   UNL     1     -12.131   9.370  71.445  1.00  0.00    -0.363 C  
BRANCH  25  26
HETATM   26  O   UNL     1     -13.529   9.272  71.110  1.00  0.00    -0.289 OA 
HETATM   27  O   UNL     1     -14.003   8.738  73.302  1.00  0.00    -0.200 OA 
HETATM   28  C   UNL     1     -14.341   8.966  72.153  1.00  0.00    -0.332 C  
ENDBRANCH  25  26
BRANCH  25  29
HETATM   29  C   UNL     1     -11.386  10.192  70.401  1.00  0.00    -0.401 A  
HETATM   30  C   UNL     1     -12.042  11.252  69.761  1.00  0.00    -0.394 A  
HETATM   31  C   UNL     1     -11.388  12.009  68.788  1.00  0.00    -0.331 A  
HETATM   32  C   UNL     1     -10.066  11.727  68.453  1.00  0.00    -0.201 A  
HETATM   33  C   UNL     1      -9.394  10.688  69.089  1.00  0.00    -0.174 A  
HETATM   34  C   UNL     1     -10.048   9.926  70.057  1.00  0.00    -0.308 A  
ENDBRANCH  25  29
ENDBRANCH  24  25
ENDBRANCH   8  21
TORSDOF 7
ENDMDL
MODEL      176
REMARK 921   NORMALIZED FREE ENERGY PREDICTED BY IDOCK:   -4.04 KCAL/MOL
REMARK 922        TOTAL FREE ENERGY PREDICTED BY IDOCK:   -7.19 KCAL/MOL
REMARK 923 INTER-LIGAND FREE ENERGY PREDICTED BY IDOCK:   -5.54 KCAL/MOL
REMARK 924 INTRA-LIGAND FREE ENERGY PREDICTED BY IDOCK:   -1.64 KCAL/MOL
REMARK 927      BINDING AFFINITY PREDICTED BY RF-SCORE:    0.00 PKD
ROOT
HETATM    1  C   UNL     1      -9.497   8.328  70.924  1.00  0.00    -0.162 C  
HETATM    2  S   UNL     1      -7.696   8.465  71.090  1.00  0.00    -0.111 SA 
HETATM    3  C   UNL     1      -7.587   9.863  69.955  1.00  0.00    -0.163 C  
HETATM    4  C   UNL     1      -8.335   9.675  68.639  1.00  0.00    -0.114 C  
HETATM    5  OXT UNL     1      -9.368   8.897  66.042  1.00  0.00    -0.209 OA 
HETATM    6  CA  UNL     1      -9.350   8.779  68.463  1.00  0.00    -0.141 C  
HETATM    7  C   UNL     1      -9.911   8.524  67.072  1.00  0.00    -0.224 C  
HETATM    8  CA  UNL     1     -10.080   6.911  71.257  1.00  0.00    -0.190 C  
HETATM    9  N   UNL     1      -9.815   8.059  69.534  1.00  0.00    -0.178 N  
HETATM   10  O   UNL     1     -11.108   7.910  67.007  1.00  0.00    -0.078 OA 
HETATM   11  C   UNL     1     -10.555   6.952  69.760  1.00  0.00    -0.233 C  
HETATM   12  O   UNL     1     -11.215   6.297  68.984  1.00  0.00    -0.375 OA 
ENDROOT
BRANCH   4  13
HETATM   13  C   UNL     1      -7.693  10.532  67.548  1.00  0.00    -0.098 C  
BRANCH  13  14
HETATM   14  S   UNL     1      -8.186  12.272  67.504  1.00  0.00    -0.181 SA 
BRANCH  14  15
HETATM   15  C   UNL     1      -9.900  12.238  67.472  1.00  0.00    -0.193 A  
HETATM   16  N   UNL     1     -10.734  12.240  68.484  1.00  0.00    -0.231 NA 
HETATM   17  N   UNL     1     -11.992  12.164  67.935  1.00  0.00    -0.512 NA 
HETATM   18  C   UNL     1     -10.175  12.180  64.949  1.00  0.00    -0.280 C  
HETATM   19  N   UNL     1     -10.622  12.180  66.315  1.00  0.00    -0.243 NA 
HETATM   20  N   UNL     1     -11.934  12.127  66.611  1.00  0.00    -0.629 NA 
ENDBRANCH  14  15
ENDBRANCH  13  14
ENDBRANCH   4  13
BRANCH   8  21
HETATM   21  N   UNL     1      -9.054   5.881  71.574  1.00  0.00    -0.143 N  
HETATM   22  O   UNL     1     -10.463   4.287  72.398  1.00  0.00    -0.181 OA 
HETATM   23  H   UNL     1      -8.076   6.124  71.417  1.00  0.00     0.000 HD 
HETATM   24  C   UNL     1      -9.330   4.624  72.064  1.00  0.00    -0.138 C  
BRANCH  24  25
HETATM   25  C   UNL     1      -8.098   3.697  72.170  1.00  0.00    -0.072 C  
BRANCH  25  26
HETATM   26  O   UNL     1      -7.001   4.491  72.664  1.00  0.00    -0.057 OA 
HETATM   27  O   UNL     1      -6.728   3.004  74.405  1.00  0.00    -0.032 OA 
HETATM   28  C   UNL     1      -6.406   4.000  73.781  1.00  0.00    -0.036 C  
ENDBRANCH  25  26
BRANCH  25  29
HETATM   29  C   UNL     1      -7.747   3.080  70.822  1.00  0.00    -0.039 A  
HETATM   30  C   UNL     1      -8.717   2.346  70.126  1.00  0.00    -0.121 A  
HETATM   31  C   UNL     1      -8.416   1.757  68.898  1.00  0.00    -0.082 A  
HETATM   32  C   UNL     1      -7.148   1.905  68.342  1.00  0.00    -0.039 A  
HETATM   33  C   UNL     1      -6.177   2.643  69.011  1.00  0.00    -0.028 A  
HETATM   34  C   UNL     1      -6.474   3.228  70.242  1.00  0.00    -0.032 A  
ENDBRANCH  25  29
ENDBRANCH  24  25
ENDBRANCH   8  21
TORSDOF 7
ENDMDL
MODEL      177
REMARK 921   NORMALIZED FREE ENERGY PREDICTED BY IDOCK:   -4.04 KCAL/MOL
REMARK 922        TOTAL FREE ENERGY PREDICTED BY IDOCK:   -7.19 KCAL/MOL
REMARK 923 INTER-LIGAND FREE ENERGY PREDICTED BY IDOCK:   -6.91 KCAL/MOL
REMARK 924 INTRA-LIGAND FREE ENERGY PREDICTED BY IDOCK:   -0.28 KCAL/MOL
REMARK 927      BINDING AFFINITY PREDICTED BY RF-SCORE:    0.00 PKD
ROOT
HETATM    1  C   UNL     1      -9.187   5.388  72.966  1.00  0.00    -0.133 C  
HETATM    2  S   UNL     1     -10.625   4.872  71.989  1.00  0.00    -0.087 SA 
HETATM    3  C   UNL     1      -9.709   3.586  71.116  1.00  0.00    -0.167 C  
HETATM    4  C   UNL     1      -8.372   4.039  70.537  1.00  0.00    -0.085 C  
HETATM    5  OXT UNL     1      -6.158   5.237  69.096  1.00  0.00    -0.022 OA 
HETATM    6  CA  UNL     1      -7.686   5.136  70.974  1.00  0.00    -0.095 C  
HETATM    7  C   UNL     1      -6.460   5.621  70.217  1.00  0.00    -0.032 C  
HETATM    8  CA  UNL     1      -9.254   6.860  73.505  1.00  0.00    -0.152 C  
HETATM    9  N   UNL     1      -8.148   5.838  72.058  1.00  0.00    -0.111 N  
HETATM   10  O   UNL     1      -5.644   6.471  70.870  1.00  0.00    -0.022 OA 
HETATM   11  C   UNL     1      -7.964   7.049  72.628  1.00  0.00    -0.100 C  
HETATM   12  O   UNL     1      -7.126   7.891  72.390  1.00  0.00    -0.074 OA 
ENDROOT
BRANCH   4  13
HETATM   13  C   UNL     1      -8.004   3.168  69.336  1.00  0.00    -0.048 C  
BRANCH  13  14
HETATM   14  S   UNL     1      -9.378   2.610  68.301  1.00  0.00    -0.167 SA 
BRANCH  14  15
HETATM   15  C   UNL     1      -9.311   3.612  66.910  1.00  0.00    -0.194 A  
HETATM   16  N   UNL     1      -8.802   3.337  65.733  1.00  0.00    -0.130 NA 
HETATM   17  N   UNL     1      -8.960   4.477  64.981  1.00  0.00    -0.144 NA 
HETATM   18  C   UNL     1     -10.458   5.640  67.917  1.00  0.00    -0.211 C  
HETATM   19  N   UNL     1      -9.791   4.889  66.889  1.00  0.00    -0.178 NA 
HETATM   20  N   UNL     1      -9.562   5.431  65.678  1.00  0.00    -0.064 NA 
ENDBRANCH  14  15
ENDBRANCH  13  14
ENDBRANCH   4  13
BRANCH   8  21
HETATM   21  N   UNL     1     -10.448   7.625  73.057  1.00  0.00    -0.326 N  
HETATM   22  O   UNL     1      -9.353   9.223  71.850  1.00  0.00    -0.299 OA 
HETATM   23  H   UNL     1     -11.360   7.322  73.398  1.00  0.00     0.000 HD 
HETATM   24  C   UNL     1     -10.410   8.713  72.213  1.00  0.00    -0.306 C  
BRANCH  24  25
HETATM   25  C   UNL     1     -11.801   9.238  71.786  1.00  0.00    -0.384 C  
BRANCH  25  26
HETATM   26  O   UNL     1     -12.580   8.101  71.365  1.00  0.00    -0.310 OA 
HETATM   27  O   UNL     1     -14.405   8.954  72.487  1.00  0.00    -0.579 OA 
HETATM   28  C   UNL     1     -13.872   8.115  71.781  1.00  0.00    -0.393 C  
ENDBRANCH  25  26
BRANCH  25  29
HETATM   29  C   UNL     1     -11.689  10.258  70.660  1.00  0.00    -0.438 A  
HETATM   30  C   UNL     1     -11.123   9.876  69.437  1.00  0.00    -0.237 A  
HETATM   31  C   UNL     1     -10.993  10.797  68.396  1.00  0.00    -0.299 A  
HETATM   32  C   UNL     1     -11.441  12.105  68.558  1.00  0.00    -0.349 A  
HETATM   33  C   UNL     1     -12.021  12.498  69.761  1.00  0.00    -0.359 A  
HETATM   34  C   UNL     1     -12.145  11.582  70.805  1.00  0.00    -0.410 A  
ENDBRANCH  25  29
ENDBRANCH  24  25
ENDBRANCH   8  21
TORSDOF 7
ENDMDL
MODEL      178
REMARK 921   NORMALIZED FREE ENERGY PREDICTED BY IDOCK:   -4.01 KCAL/MOL
REMARK 922        TOTAL FREE ENERGY PREDICTED BY IDOCK:   -7.15 KCAL/MOL
REMARK 923 INTER-LIGAND FREE ENERGY PREDICTED BY IDOCK:   -5.67 KCAL/MOL
REMARK 924 INTRA-LIGAND FREE ENERGY PREDICTED BY IDOCK:   -1.48 KCAL/MOL
REMARK 927      BINDING AFFINITY PREDICTED BY RF-SCORE:    0.00 PKD
ROOT
HETATM    1  C   UNL     1     -10.842   9.574  67.198  1.00  0.00    -0.086 C  
HETATM    2  S   UNL     1     -10.752  10.527  68.739  1.00  0.00    -0.234 SA 
HETATM    3  C   UNL     1     -12.029  11.692  68.223  1.00  0.00    -0.166 C  
HETATM    4  C   UNL     1     -11.838  12.267  66.824  1.00  0.00    -0.349 C  
HETATM    5  OXT UNL     1     -11.000  13.608  64.391  1.00  0.00    -0.386 OA 
HETATM    6  CA  UNL     1     -11.073  11.680  65.857  1.00  0.00    -0.264 C  
HETATM    7  C   UNL     1     -10.785  12.416  64.558  1.00  0.00    -0.321 C  
HETATM    8  CA  UNL     1      -9.546   8.762  66.851  1.00  0.00    -0.190 C  
HETATM    9  N   UNL     1     -10.509  10.452  66.091  1.00  0.00    -0.195 N  
HETATM   10  O   UNL     1     -10.332  11.673  63.530  1.00  0.00    -0.360 OA 
HETATM   11  C   UNL     1      -9.530   9.676  65.574  1.00  0.00    -0.266 C  
HETATM   12  O   UNL     1      -8.909   9.809  64.543  1.00  0.00    -0.185 OA 
ENDROOT
BRANCH   4  13
HETATM   13  C   UNL     1     -12.513  13.636  66.727  1.00  0.00    -0.191 C  
BRANCH  13  14
HETATM   14  S   UNL     1     -11.522  15.056  67.250  1.00  0.00    -0.256 SA 
BRANCH  14  15
HETATM   15  C   UNL     1     -11.620  15.049  68.962  1.00  0.00    -0.319 A  
HETATM   16  N   UNL     1     -12.692  15.025  69.716  1.00  0.00    -0.105 NA 
HETATM   17  N   UNL     1     -12.240  15.073  71.014  1.00  0.00    -0.300 NA 
HETATM   18  C   UNL     1      -9.125  15.109  69.428  1.00  0.00    -0.180 C  
HETATM   19  N   UNL     1     -10.521  15.094  69.771  1.00  0.00    -0.250 NA 
HETATM   20  N   UNL     1     -10.915  15.116  71.057  1.00  0.00    -0.243 NA 
ENDBRANCH  14  15
ENDBRANCH  13  14
ENDBRANCH   4  13
BRANCH   8  21
HETATM   21  N   UNL     1      -8.418   8.970  67.799  1.00  0.00    -0.117 N  
HETATM   22  O   UNL     1      -6.838   7.781  66.660  1.00  0.00    -0.067 OA 
HETATM   23  H   UNL     1      -8.610   9.487  68.657  1.00  0.00     0.000 HD 
HETATM   24  C   UNL     1      -7.134   8.514  67.600  1.00  0.00    -0.080 C  
BRANCH  24  25
HETATM   25  C   UNL     1      -6.117   8.989  68.665  1.00  0.00    -0.045 C  
BRANCH  25  26
HETATM   26  O   UNL     1      -6.651   8.638  69.957  1.00  0.00    -0.037 OA 
HETATM   27  O   UNL     1      -5.205   6.845  70.052  1.00  0.00    -0.014 OA 
HETATM   28  C   UNL     1      -6.075   7.551  70.530  1.00  0.00    -0.031 C  
ENDBRANCH  25  26
BRANCH  25  29
HETATM   29  C   UNL     1      -5.877  10.490  68.575  1.00  0.00    -0.040 A  
HETATM   30  C   UNL     1      -5.394  11.041  67.380  1.00  0.00    -0.040 A  
HETATM   31  C   UNL     1      -5.148  12.411  67.277  1.00  0.00    -0.053 A  
HETATM   32  C   UNL     1      -5.396  13.250  68.361  1.00  0.00    -0.083 A  
HETATM   33  C   UNL     1      -5.891  12.723  69.550  1.00  0.00    -0.105 A  
HETATM   34  C   UNL     1      -6.131  11.353  69.657  1.00  0.00    -0.110 A  
ENDBRANCH  25  29
ENDBRANCH  24  25
ENDBRANCH   8  21
TORSDOF 7
ENDMDL
MODEL      179
REMARK 921   NORMALIZED FREE ENERGY PREDICTED BY IDOCK:   -4.00 KCAL/MOL
REMARK 922        TOTAL FREE ENERGY PREDICTED BY IDOCK:   -7.14 KCAL/MOL
REMARK 923 INTER-LIGAND FREE ENERGY PREDICTED BY IDOCK:   -5.83 KCAL/MOL
REMARK 924 INTRA-LIGAND FREE ENERGY PREDICTED BY IDOCK:   -1.31 KCAL/MOL
REMARK 927      BINDING AFFINITY PREDICTED BY RF-SCORE:    0.00 PKD
ROOT
HETATM    1  C   UNL     1      -9.335   6.537  68.166  1.00  0.00    -0.109 C  
HETATM    2  S   UNL     1      -7.658   7.218  68.053  1.00  0.00    -0.117 SA 
HETATM    3  C   UNL     1      -6.926   5.864  68.993  1.00  0.00    -0.068 C  
HETATM    4  C   UNL     1      -7.650   5.526  70.292  1.00  0.00    -0.080 C  
HETATM    5  OXT UNL     1      -8.855   5.414  72.929  1.00  0.00    -0.122 OA 
HETATM    6  CA  UNL     1      -8.948   5.860  70.548  1.00  0.00    -0.144 C  
HETATM    7  C   UNL     1      -9.531   5.653  71.938  1.00  0.00    -0.151 C  
HETATM    8  CA  UNL     1     -10.484   7.593  68.004  1.00  0.00    -0.189 C  
HETATM    9  N   UNL     1      -9.705   6.447  69.567  1.00  0.00    -0.150 N  
HETATM   10  O   UNL     1     -10.873   5.672  72.039  1.00  0.00    -0.231 OA 
HETATM   11  C   UNL     1     -10.858   7.145  69.463  1.00  0.00    -0.225 C  
HETATM   12  O   UNL     1     -11.718   7.335  70.294  1.00  0.00    -0.229 OA 
ENDROOT
BRANCH   4  13
HETATM   13  C   UNL     1      -6.673   4.890  71.282  1.00  0.00    -0.039 C  
BRANCH  13  14
HETATM   14  S   UNL     1      -5.197   5.857  71.681  1.00  0.00    -0.021 SA 
BRANCH  14  15
HETATM   15  C   UNL     1      -5.740   7.041  72.798  1.00  0.00    -0.041 A  
HETATM   16  N   UNL     1      -5.826   6.950  74.103  1.00  0.00    -0.058 NA 
HETATM   17  N   UNL     1      -6.355   8.145  74.528  1.00  0.00    -0.108 NA 
HETATM   18  C   UNL     1      -6.271   8.859  71.108  1.00  0.00    -0.057 C  
HETATM   19  N   UNL     1      -6.189   8.272  72.417  1.00  0.00    -0.059 NA 
HETATM   20  N   UNL     1      -6.580   8.959  73.506  1.00  0.00    -0.330 NA 
ENDBRANCH  14  15
ENDBRANCH  13  14
ENDBRANCH   4  13
BRANCH   8  21
HETATM   21  N   UNL     1     -10.015   8.997  67.868  1.00  0.00    -0.168 N  
HETATM   22  O   UNL     1      -9.921   9.071  65.589  1.00  0.00    -0.176 OA 
HETATM   23  H   UNL     1      -9.818   9.515  68.724  1.00  0.00     0.000 HD 
HETATM   24  C   UNL     1      -9.827   9.648  66.669  1.00  0.00    -0.224 C  
BRANCH  24  25
HETATM   25  C   UNL     1      -9.474  11.148  66.806  1.00  0.00    -0.184 C  
BRANCH  25  26
HETATM   26  O   UNL     1      -9.552  11.483  68.206  1.00  0.00    -0.177 OA 
HETATM   27  O   UNL     1      -7.271  11.204  68.386  1.00  0.00    -0.074 OA 
HETATM   28  C   UNL     1      -8.360  11.486  68.854  1.00  0.00    -0.001 C  
ENDBRANCH  25  26
BRANCH  25  29
HETATM   29  C   UNL     1     -10.423  12.020  65.993  1.00  0.00    -0.284 A  
HETATM   30  C   UNL     1     -11.559  12.562  66.607  1.00  0.00    -0.442 A  
HETATM   31  C   UNL     1     -12.453  13.348  65.880  1.00  0.00    -0.468 A  
HETATM   32  C   UNL     1     -12.215  13.616  64.534  1.00  0.00    -0.444 A  
HETATM   33  C   UNL     1     -11.083  13.100  63.912  1.00  0.00    -0.345 A  
HETATM   34  C   UNL     1     -10.192  12.307  64.635  1.00  0.00    -0.311 A  
ENDBRANCH  25  29
ENDBRANCH  24  25
ENDBRANCH   8  21
TORSDOF 7
ENDMDL
MODEL      180
REMARK 921   NORMALIZED FREE ENERGY PREDICTED BY IDOCK:   -3.94 KCAL/MOL
REMARK 922        TOTAL FREE ENERGY PREDICTED BY IDOCK:   -7.05 KCAL/MOL
REMARK 923 INTER-LIGAND FREE ENERGY PREDICTED BY IDOCK:   -7.81 KCAL/MOL
REMARK 924 INTRA-LIGAND FREE ENERGY PREDICTED BY IDOCK:    0.76 KCAL/MOL
REMARK 927      BINDING AFFINITY PREDICTED BY RF-SCORE:    0.00 PKD
ROOT
HETATM    1  C   UNL     1      -7.634   8.395  68.716  1.00  0.00    -0.101 C  
HETATM    2  S   UNL     1      -7.833   9.529  70.118  1.00  0.00    -0.173 SA 
HETATM    3  C   UNL     1      -8.398   8.228  71.232  1.00  0.00    -0.131 C  
HETATM    4  C   UNL     1      -9.496   7.335  70.664  1.00  0.00    -0.164 C  
HETATM    5  OXT UNL     1     -11.905   6.121  69.596  1.00  0.00    -0.187 OA 
HETATM    6  CA  UNL     1      -9.748   7.195  69.330  1.00  0.00    -0.159 C  
HETATM    7  C   UNL     1     -10.979   6.435  68.861  1.00  0.00    -0.346 C  
HETATM    8  CA  UNL     1      -7.701   9.077  67.305  1.00  0.00    -0.096 C  
HETATM    9  N   UNL     1      -8.924   7.800  68.416  1.00  0.00    -0.133 N  
HETATM   10  O   UNL     1     -10.991   6.039  67.573  1.00  0.00    -0.304 OA 
HETATM   11  C   UNL     1      -8.944   8.137  67.107  1.00  0.00    -0.139 C  
HETATM   12  O   UNL     1      -9.735   7.824  66.245  1.00  0.00    -0.176 OA 
ENDROOT
BRANCH   4  13
HETATM   13  C   UNL     1     -10.328   6.746  71.803  1.00  0.00    -0.199 C  
BRANCH  13  14
HETATM   14  S   UNL     1     -11.130   7.935  72.906  1.00  0.00    -0.298 SA 
BRANCH  14  15
HETATM   15  C   UNL     1     -11.894   9.056  71.857  1.00  0.00    -0.376 A  
HETATM   16  N   UNL     1     -11.386  10.131  71.304  1.00  0.00    -0.266 NA 
HETATM   17  N   UNL     1     -12.410  10.705  70.589  1.00  0.00    -0.339 NA 
HETATM   18  C   UNL     1     -14.174   7.941  71.800  1.00  0.00    -0.451 C  
HETATM   19  N   UNL     1     -13.202   8.951  71.481  1.00  0.00    -0.339 NA 
HETATM   20  N   UNL     1     -13.523   9.992  70.691  1.00  0.00    -0.122 NA 
ENDBRANCH  14  15
ENDBRANCH  13  14
ENDBRANCH   4  13
BRANCH   8  21
HETATM   21  N   UNL     1      -8.001  10.534  67.340  1.00  0.00    -0.110 N  
HETATM   22  O   UNL     1      -8.582  10.780  65.147  1.00  0.00    -0.178 OA 
HETATM   23  H   UNL     1      -7.843  11.029  68.217  1.00  0.00     0.000 HD 
HETATM   24  C   UNL     1      -8.477  11.261  66.272  1.00  0.00    -0.156 C  
BRANCH  24  25
HETATM   25  C   UNL     1      -8.845  12.725  66.611  1.00  0.00    -0.108 C  
BRANCH  25  26
HETATM   26  O   UNL     1      -9.214  12.766  68.004  1.00  0.00    -0.196 OA 
HETATM   27  O   UNL     1     -10.914  11.266  67.583  1.00  0.00    -0.223 OA 
HETATM   28  C   UNL     1     -10.257  11.965  68.336  1.00  0.00    -0.204 C  
ENDBRANCH  25  26
BRANCH  25  29
HETATM   29  C   UNL     1      -9.989  13.227  65.739  1.00  0.00    -0.261 A  
HETATM   30  C   UNL     1     -10.434  12.444  64.667  1.00  0.00    -0.338 A  
HETATM   31  C   UNL     1     -11.468  12.890  63.842  1.00  0.00    -0.504 A  
HETATM   32  C   UNL     1     -12.080  14.116  64.088  1.00  0.00    -0.437 A  
HETATM   33  C   UNL     1     -11.662  14.900  65.158  1.00  0.00    -0.295 A  
HETATM   34  C   UNL     1     -10.624  14.460  65.979  1.00  0.00    -0.304 A  
ENDBRANCH  25  29
ENDBRANCH  24  25
ENDBRANCH   8  21
TORSDOF 7
ENDMDL
MODEL      181
REMARK 921   NORMALIZED FREE ENERGY PREDICTED BY IDOCK:   -3.94 KCAL/MOL
REMARK 922        TOTAL FREE ENERGY PREDICTED BY IDOCK:   -7.05 KCAL/MOL
REMARK 923 INTER-LIGAND FREE ENERGY PREDICTED BY IDOCK:   -6.98 KCAL/MOL
REMARK 924 INTRA-LIGAND FREE ENERGY PREDICTED BY IDOCK:   -0.07 KCAL/MOL
REMARK 927      BINDING AFFINITY PREDICTED BY RF-SCORE:    0.00 PKD
ROOT
HETATM    1  C   UNL     1     -10.822  11.496  67.246  1.00  0.00    -0.256 C  
HETATM    2  S   UNL     1      -9.221  11.678  68.079  1.00  0.00    -0.183 SA 
HETATM    3  C   UNL     1      -9.475  13.431  68.423  1.00  0.00    -0.176 C  
HETATM    4  C   UNL     1      -9.940  14.254  67.227  1.00  0.00    -0.252 C  
HETATM    5  OXT UNL     1     -10.302  15.689  64.731  1.00  0.00    -0.422 OA 
HETATM    6  CA  UNL     1     -10.542  13.720  66.123  1.00  0.00    -0.291 C  
HETATM    7  C   UNL     1     -10.800  14.585  64.900  1.00  0.00    -0.421 C  
HETATM    8  CA  UNL     1     -10.903  10.300  66.233  1.00  0.00     0.085 C  
HETATM    9  N   UNL     1     -10.851  12.384  66.098  1.00  0.00    -0.265 N  
HETATM   10  O   UNL     1     -11.685  14.112  64.001  1.00  0.00    -0.328 OA 
HETATM   11  C   UNL     1     -11.173  11.440  65.186  1.00  0.00    -0.076 C  
HETATM   12  O   UNL     1     -11.457  11.568  64.015  1.00  0.00    -0.350 OA 
ENDROOT
BRANCH   4  13
HETATM   13  C   UNL     1      -9.513  15.712  67.401  1.00  0.00    -0.215 C  
BRANCH  13  14
HETATM   14  S   UNL     1     -10.796  16.860  67.956  1.00  0.00    -0.280 SA 
BRANCH  14  15
HETATM   15  C   UNL     1     -10.317  18.384  67.331  1.00  0.00    -0.391 A  
HETATM   16  N   UNL     1     -11.017  19.490  67.259  1.00  0.00    -0.450 NA 
HETATM   17  N   UNL     1     -10.201  20.411  66.644  1.00  0.00    -0.355 NA 
HETATM   18  C   UNL     1      -7.958  17.730  66.659  1.00  0.00    -0.251 C  
HETATM   19  N   UNL     1      -9.085  18.612  66.790  1.00  0.00    -0.291 NA 
HETATM   20  N   UNL     1      -9.019  19.884  66.354  1.00  0.00    -0.366 NA 
ENDBRANCH  14  15
ENDBRANCH  13  14
ENDBRANCH   4  13
BRANCH   8  21
HETATM   21  N   UNL     1      -9.627   9.558  66.055  1.00  0.00    -0.230 N  
HETATM   22  O   UNL     1     -10.351   7.522  66.787  1.00  0.00    -0.288 OA 
HETATM   23  H   UNL     1      -8.814  10.085  65.737  1.00  0.00     0.000 HD 
HETATM   24  C   UNL     1      -9.464   8.211  66.288  1.00  0.00    -0.190 C  
BRANCH  24  25
HETATM   25  C   UNL     1      -8.077   7.657  65.887  1.00  0.00    -0.122 C  
BRANCH  25  26
HETATM   26  O   UNL     1      -8.242   6.256  65.589  1.00  0.00    -0.129 OA 
HETATM   27  O   UNL     1      -8.156   6.740  63.336  1.00  0.00    -0.099 OA 
HETATM   28  C   UNL     1      -8.242   5.956  64.266  1.00  0.00    -0.088 C  
ENDBRANCH  25  26
BRANCH  25  29
HETATM   29  C   UNL     1      -7.057   7.851  67.001  1.00  0.00    -0.078 A  
HETATM   30  C   UNL     1      -6.302   9.030  67.048  1.00  0.00    -0.060 A  
HETATM   31  C   UNL     1      -5.349   9.224  68.048  1.00  0.00    -0.034 A  
HETATM   32  C   UNL     1      -5.148   8.250  69.023  1.00  0.00    -0.027 A  
HETATM   33  C   UNL     1      -5.899   7.080  69.001  1.00  0.00    -0.019 A  
HETATM   34  C   UNL     1      -6.848   6.881  67.999  1.00  0.00    -0.078 A  
ENDBRANCH  25  29
ENDBRANCH  24  25
ENDBRANCH   8  21
TORSDOF 7
ENDMDL
MODEL      182
REMARK 921   NORMALIZED FREE ENERGY PREDICTED BY IDOCK:   -3.91 KCAL/MOL
REMARK 922        TOTAL FREE ENERGY PREDICTED BY IDOCK:   -7.00 KCAL/MOL
REMARK 923 INTER-LIGAND FREE ENERGY PREDICTED BY IDOCK:   -8.74 KCAL/MOL
REMARK 924 INTRA-LIGAND FREE ENERGY PREDICTED BY IDOCK:    1.75 KCAL/MOL
REMARK 927      BINDING AFFINITY PREDICTED BY RF-SCORE:    0.00 PKD
ROOT
HETATM    1  C   UNL     1     -10.325  15.258  68.125  1.00  0.00    -0.242 C  
HETATM    2  S   UNL     1     -10.572  15.681  66.379  1.00  0.00    -0.298 SA 
HETATM    3  C   UNL     1     -10.674  13.956  65.862  1.00  0.00    -0.286 C  
HETATM    4  C   UNL     1      -9.561  13.063  66.399  1.00  0.00    -0.258 C  
HETATM    5  OXT UNL     1      -7.097  11.696  67.091  1.00  0.00    -0.123 OA 
HETATM    6  CA  UNL     1      -8.809  13.363  67.499  1.00  0.00    -0.210 C  
HETATM    7  C   UNL     1      -7.598  12.513  67.851  1.00  0.00    -0.133 C  
HETATM    8  CA  UNL     1      -9.608  16.366  68.973  1.00  0.00    -0.264 C  
HETATM    9  N   UNL     1      -9.109  14.474  68.244  1.00  0.00    -0.190 N  
HETATM   10  O   UNL     1      -7.115  12.639  69.102  1.00  0.00    -0.070 OA 
HETATM   11  C   UNL     1      -8.519  15.252  69.178  1.00  0.00    -0.234 C  
HETATM   12  O   UNL     1      -7.492  15.069  69.793  1.00  0.00    -0.198 OA 
ENDROOT
BRANCH   4  13
HETATM   13  C   UNL     1      -9.341  11.880  65.455  1.00  0.00    -0.078 C  
BRANCH  13  14
HETATM   14  S   UNL     1     -10.360  10.416  65.757  1.00  0.00    -0.135 SA 
BRANCH  14  15
HETATM   15  C   UNL     1     -10.959  10.623  67.351  1.00  0.00    -0.298 A  
HETATM   16  N   UNL     1     -12.009  11.303  67.744  1.00  0.00    -0.635 NA 
HETATM   17  N   UNL     1     -12.037  11.192  69.114  1.00  0.00    -0.425 NA 
HETATM   18  C   UNL     1      -9.192   9.243  68.541  1.00  0.00    -0.135 C  
HETATM   19  N   UNL     1     -10.354  10.085  68.449  1.00  0.00    -0.181 NA 
HETATM   20  N   UNL     1     -11.029  10.450  69.554  1.00  0.00    -0.244 NA 
ENDBRANCH  14  15
ENDBRANCH  13  14
ENDBRANCH   4  13
BRANCH   8  21
HETATM   21  N   UNL     1      -9.169  17.552  68.191  1.00  0.00    -0.269 N  
HETATM   22  O   UNL     1     -10.377  19.127  69.317  1.00  0.00    -0.155 OA 
HETATM   23  H   UNL     1      -8.549  17.393  67.397  1.00  0.00     0.000 HD 
HETATM   24  C   UNL     1      -9.540  18.851  68.461  1.00  0.00    -0.380 C  
BRANCH  24  25
HETATM   25  C   UNL     1      -8.831  19.912  67.588  1.00  0.00    -0.334 C  
BRANCH  25  26
HETATM   26  O   UNL     1      -9.833  20.525  66.754  1.00  0.00    -0.433 OA 
HETATM   27  O   UNL     1     -10.221  18.488  65.746  1.00  0.00    -0.568 OA 
HETATM   28  C   UNL     1     -10.453  19.675  65.897  1.00  0.00    -0.493 C  
ENDBRANCH  25  26
BRANCH  25  29
HETATM   29  C   UNL     1      -7.733  19.287  66.735  1.00  0.00    -0.267 A  
HETATM   30  C   UNL     1      -7.248  19.982  65.620  1.00  0.00    -0.330 A  
HETATM   31  C   UNL     1      -6.256  19.424  64.812  1.00  0.00    -0.289 A  
HETATM   32  C   UNL     1      -5.725  18.173  65.117  1.00  0.00    -0.104 A  
HETATM   33  C   UNL     1      -6.184  17.476  66.231  1.00  0.00    -0.267 A  
HETATM   34  C   UNL     1      -7.181  18.029  67.035  1.00  0.00    -0.219 A  
ENDBRANCH  25  29
ENDBRANCH  24  25
ENDBRANCH   8  21
TORSDOF 7
ENDMDL
MODEL      183
REMARK 921   NORMALIZED FREE ENERGY PREDICTED BY IDOCK:   -3.88 KCAL/MOL
REMARK 922        TOTAL FREE ENERGY PREDICTED BY IDOCK:   -6.95 KCAL/MOL
REMARK 923 INTER-LIGAND FREE ENERGY PREDICTED BY IDOCK:   -5.84 KCAL/MOL
REMARK 924 INTRA-LIGAND FREE ENERGY PREDICTED BY IDOCK:   -1.12 KCAL/MOL
REMARK 927      BINDING AFFINITY PREDICTED BY RF-SCORE:    0.00 PKD
ROOT
HETATM    1  C   UNL     1     -10.783   8.238  69.236  1.00  0.00    -0.128 C  
HETATM    2  S   UNL     1     -10.951   9.366  70.646  1.00  0.00    -0.317 SA 
HETATM    3  C   UNL     1     -10.868  10.844  69.614  1.00  0.00    -0.216 C  
HETATM    4  C   UNL     1      -9.718  10.857  68.613  1.00  0.00    -0.188 C  
HETATM    5  OXT UNL     1      -7.195  10.899  67.181  1.00  0.00    -0.093 OA 
HETATM    6  CA  UNL     1      -9.069   9.735  68.185  1.00  0.00    -0.125 C  
HETATM    7  C   UNL     1      -7.815   9.855  67.334  1.00  0.00    -0.098 C  
HETATM    8  CA  UNL     1     -10.222   6.817  69.596  1.00  0.00    -0.187 C  
HETATM    9  N   UNL     1      -9.514   8.500  68.582  1.00  0.00    -0.143 N  
HETATM   10  O   UNL     1      -7.427   8.750  66.668  1.00  0.00    -0.084 OA 
HETATM   11  C   UNL     1      -9.056   7.229  68.628  1.00  0.00    -0.133 C  
HETATM   12  O   UNL     1      -8.059   6.753  68.130  1.00  0.00    -0.112 OA 
ENDROOT
BRANCH   4  13
HETATM   13  C   UNL     1      -9.335  12.299  68.279  1.00  0.00    -0.199 C  
BRANCH  13  14
HETATM   14  S   UNL     1     -10.382  13.146  67.071  1.00  0.00    -0.250 SA 
BRANCH  14  15
HETATM   15  C   UNL     1     -10.631  14.710  67.730  1.00  0.00    -0.251 A  
HETATM   16  N   UNL     1     -10.801  15.046  68.986  1.00  0.00    -0.232 NA 
HETATM   17  N   UNL     1     -11.000  16.406  68.987  1.00  0.00    -0.319 NA 
HETATM   18  C   UNL     1     -10.559  15.997  65.543  1.00  0.00    -0.398 C  
HETATM   19  N   UNL     1     -10.705  15.838  66.964  1.00  0.00    -0.317 NA 
HETATM   20  N   UNL     1     -10.944  16.898  67.756  1.00  0.00    -0.273 NA 
ENDBRANCH  14  15
ENDBRANCH  13  14
ENDBRANCH   4  13
BRANCH   8  21
HETATM   21  N   UNL     1      -9.839   6.651  71.024  1.00  0.00    -0.182 N  
HETATM   22  O   UNL     1      -8.454   4.856  70.762  1.00  0.00    -0.105 OA 
HETATM   23  H   UNL     1     -10.275   7.270  71.706  1.00  0.00     0.000 HD 
HETATM   24  C   UNL     1      -8.936   5.721  71.489  1.00  0.00    -0.140 C  
BRANCH  24  25
HETATM   25  C   UNL     1      -8.604   5.852  72.994  1.00  0.00    -0.123 C  
BRANCH  25  26
HETATM   26  O   UNL     1      -9.820   6.221  73.674  1.00  0.00    -0.163 OA 
HETATM   27  O   UNL     1     -10.325   3.989  73.953  1.00  0.00    -0.143 OA 
HETATM   28  C   UNL     1     -10.564   5.174  74.111  1.00  0.00    -0.276 C  
ENDBRANCH  25  26
BRANCH  25  29
HETATM   29  C   UNL     1      -7.518   6.893  73.236  1.00  0.00    -0.078 A  
HETATM   30  C   UNL     1      -7.670   7.819  74.276  1.00  0.00    -0.221 A  
HETATM   31  C   UNL     1      -6.698   8.793  74.507  1.00  0.00    -0.137 A  
HETATM   32  C   UNL     1      -5.556   8.846  73.712  1.00  0.00    -0.117 A  
HETATM   33  C   UNL     1      -5.381   7.924  72.684  1.00  0.00    -0.036 A  
HETATM   34  C   UNL     1      -6.354   6.954  72.447  1.00  0.00    -0.053 A  
ENDBRANCH  25  29
ENDBRANCH  24  25
ENDBRANCH   8  21
TORSDOF 7
ENDMDL
MODEL      184
REMARK 921   NORMALIZED FREE ENERGY PREDICTED BY IDOCK:   -3.82 KCAL/MOL
REMARK 922        TOTAL FREE ENERGY PREDICTED BY IDOCK:   -6.88 KCAL/MOL
REMARK 923 INTER-LIGAND FREE ENERGY PREDICTED BY IDOCK:   -5.58 KCAL/MOL
REMARK 924 INTRA-LIGAND FREE ENERGY PREDICTED BY IDOCK:   -1.29 KCAL/MOL
REMARK 927      BINDING AFFINITY PREDICTED BY RF-SCORE:    0.00 PKD
ROOT
HETATM    1  C   UNL     1      -9.090  11.926  66.497  1.00  0.00    -0.211 C  
HETATM    2  S   UNL     1     -10.283  11.103  67.588  1.00  0.00    -0.187 SA 
HETATM    3  C   UNL     1     -11.148  12.635  67.982  1.00  0.00    -0.251 C  
HETATM    4  C   UNL     1     -10.242  13.792  68.389  1.00  0.00    -0.248 C  
HETATM    5  OXT UNL     1      -8.394  15.658  69.623  1.00  0.00    -0.219 OA 
HETATM    6  CA  UNL     1      -8.914  13.863  68.079  1.00  0.00    -0.184 C  
HETATM    7  C   UNL     1      -8.045  14.955  68.685  1.00  0.00    -0.151 C  
HETATM    8  CA  UNL     1      -7.735  11.159  66.309  1.00  0.00    -0.097 C  
HETATM    9  N   UNL     1      -8.352  12.905  67.275  1.00  0.00    -0.186 N  
HETATM   10  O   UNL     1      -6.858  15.182  68.091  1.00  0.00    -0.109 OA 
HETATM   11  C   UNL     1      -7.119  12.453  66.954  1.00  0.00     0.104 C  
HETATM   12  O   UNL     1      -6.035  12.930  67.210  1.00  0.00    -0.294 OA 
ENDROOT
BRANCH   4  13
HETATM   13  C   UNL     1     -11.009  14.763  69.287  1.00  0.00    -0.261 C  
BRANCH  13  14
HETATM   14  S   UNL     1     -11.968  16.044  68.444  1.00  0.00     0.345 SA 
BRANCH  14  15
HETATM   15  C   UNL     1     -10.794  17.067  67.725  1.00  0.00    -0.269 A  
HETATM   16  N   UNL     1     -10.217  18.128  68.236  1.00  0.00    -0.376 NA 
HETATM   17  N   UNL     1      -9.389  18.614  67.252  1.00  0.00    -0.284 NA 
HETATM   18  C   UNL     1     -10.627  15.854  65.502  1.00  0.00    -0.401 C  
HETATM   19  N   UNL     1     -10.324  16.884  66.457  1.00  0.00    -0.311 NA 
HETATM   20  N   UNL     1      -9.447  17.861  66.162  1.00  0.00    -0.502 NA 
ENDBRANCH  14  15
ENDBRANCH  13  14
ENDBRANCH   4  13
BRANCH   8  21
HETATM   21  N   UNL     1      -7.611   9.920  67.122  1.00  0.00    -0.092 N  
HETATM   22  O   UNL     1      -8.079   8.420  65.468  1.00  0.00    -0.113 OA 
HETATM   23  H   UNL     1      -7.422  10.025  68.119  1.00  0.00     0.000 HD 
HETATM   24  C   UNL     1      -7.733   8.642  66.625  1.00  0.00    -0.096 C  
BRANCH  24  25
HETATM   25  C   UNL     1      -7.416   7.527  67.649  1.00  0.00    -0.104 C  
BRANCH  25  26
HETATM   26  O   UNL     1      -7.605   6.263  66.983  1.00  0.00    -0.092 OA 
HETATM   27  O   UNL     1      -5.475   6.417  66.116  1.00  0.00    -0.013 OA 
HETATM   28  C   UNL     1      -6.533   5.834  66.270  1.00  0.00    -0.043 C  
ENDBRANCH  25  26
BRANCH  25  29
HETATM   29  C   UNL     1      -8.315   7.625  68.875  1.00  0.00    -0.129 A  
HETATM   30  C   UNL     1      -7.752   7.935  70.120  1.00  0.00    -0.088 A  
HETATM   31  C   UNL     1      -8.551   8.014  71.261  1.00  0.00    -0.145 A  
HETATM   32  C   UNL     1      -9.924   7.800  71.171  1.00  0.00    -0.194 A  
HETATM   33  C   UNL     1     -10.503   7.507  69.940  1.00  0.00    -0.232 A  
HETATM   34  C   UNL     1      -9.705   7.421  68.800  1.00  0.00    -0.149 A  
ENDBRANCH  25  29
ENDBRANCH  24  25
ENDBRANCH   8  21
TORSDOF 7
ENDMDL
MODEL      185
REMARK 921   NORMALIZED FREE ENERGY PREDICTED BY IDOCK:   -3.72 KCAL/MOL
REMARK 922        TOTAL FREE ENERGY PREDICTED BY IDOCK:   -6.74 KCAL/MOL
REMARK 923 INTER-LIGAND FREE ENERGY PREDICTED BY IDOCK:   -6.01 KCAL/MOL
REMARK 924 INTRA-LIGAND FREE ENERGY PREDICTED BY IDOCK:   -0.73 KCAL/MOL
REMARK 927      BINDING AFFINITY PREDICTED BY RF-SCORE:    0.00 PKD
ROOT
HETATM    1  C   UNL     1      -6.662   8.126  67.972  1.00  0.00    -0.065 C  
HETATM    2  S   UNL     1      -6.526   6.448  68.647  1.00  0.00    -0.052 SA 
HETATM    3  C   UNL     1      -5.703   5.804  67.176  1.00  0.00    -0.017 C  
HETATM    4  C   UNL     1      -6.379   6.167  65.858  1.00  0.00    -0.038 C  
HETATM    5  OXT UNL     1      -8.100   6.527  63.550  1.00  0.00    -0.098 OA 
HETATM    6  CA  UNL     1      -7.239   7.217  65.708  1.00  0.00    -0.073 C  
HETATM    7  C   UNL     1      -8.012   7.392  64.410  1.00  0.00    -0.109 C  
HETATM    8  CA  UNL     1      -7.809   8.994  68.598  1.00  0.00    -0.101 C  
HETATM    9  N   UNL     1      -7.455   8.074  66.757  1.00  0.00    -0.089 N  
HETATM   10  O   UNL     1      -8.564   8.601  64.194  1.00  0.00    -0.128 OA 
HETATM   11  C   UNL     1      -8.356   9.011  67.125  1.00  0.00    -0.110 C  
HETATM   12  O   UNL     1      -9.247   9.517  66.478  1.00  0.00    -0.148 OA 
ENDROOT
BRANCH   4  13
HETATM   13  C   UNL     1      -6.050   5.116  64.798  1.00  0.00    -0.026 C  
BRANCH  13  14
HETATM   14  S   UNL     1      -6.561   3.420  65.168  1.00  0.00    -0.041 SA 
BRANCH  14  15
HETATM   15  C   UNL     1      -8.084   3.246  64.399  1.00  0.00    -0.086 A  
HETATM   16  N   UNL     1      -8.345   2.755  63.211  1.00  0.00    -0.084 NA 
HETATM   17  N   UNL     1      -9.704   2.873  63.046  1.00  0.00    -0.092 NA 
HETATM   18  C   UNL     1      -9.502   4.219  66.266  1.00  0.00    -0.180 C  
HETATM   19  N   UNL     1      -9.257   3.645  64.971  1.00  0.00    -0.141 NA 
HETATM   20  N   UNL     1     -10.270   3.416  64.116  1.00  0.00    -0.196 NA 
ENDBRANCH  14  15
ENDBRANCH  13  14
ENDBRANCH   4  13
BRANCH   8  21
HETATM   21  N   UNL     1      -8.656   8.274  69.586  1.00  0.00    -0.128 N  
HETATM   22  O   UNL     1     -10.649   8.491  68.496  1.00  0.00    -0.193 OA 
HETATM   23  H   UNL     1      -8.208   7.941  70.440  1.00  0.00     0.000 HD 
HETATM   24  C   UNL     1     -10.001   8.025  69.430  1.00  0.00    -0.190 C  
BRANCH  24  25
HETATM   25  C   UNL     1     -10.616   7.132  70.533  1.00  0.00    -0.225 C  
BRANCH  25  26
HETATM   26  O   UNL     1     -10.956   5.869  69.926  1.00  0.00    -0.344 OA 
HETATM   27  O   UNL     1      -9.032   4.947  70.800  1.00  0.00    -0.124 OA 
HETATM   28  C   UNL     1     -10.072   4.869  70.169  1.00  0.00    -0.261 C  
ENDBRANCH  25  26
BRANCH  25  29
HETATM   29  C   UNL     1     -11.850   7.779  71.149  1.00  0.00    -0.311 A  
HETATM   30  C   UNL     1     -13.034   7.039  71.261  1.00  0.00    -0.357 A  
HETATM   31  C   UNL     1     -14.183   7.614  71.805  1.00  0.00    -0.549 A  
HETATM   32  C   UNL     1     -14.159   8.930  72.260  1.00  0.00    -0.512 A  
HETATM   33  C   UNL     1     -12.987   9.675  72.172  1.00  0.00    -0.493 A  
HETATM   34  C   UNL     1     -11.840   9.104  71.622  1.00  0.00    -0.443 A  
ENDBRANCH  25  29
ENDBRANCH  24  25
ENDBRANCH   8  21
TORSDOF 7
ENDMDL
MODEL      186
REMARK 921   NORMALIZED FREE ENERGY PREDICTED BY IDOCK:   -3.70 KCAL/MOL
REMARK 922        TOTAL FREE ENERGY PREDICTED BY IDOCK:   -6.70 KCAL/MOL
REMARK 923 INTER-LIGAND FREE ENERGY PREDICTED BY IDOCK:   -5.32 KCAL/MOL
REMARK 924 INTRA-LIGAND FREE ENERGY PREDICTED BY IDOCK:   -1.38 KCAL/MOL
REMARK 927      BINDING AFFINITY PREDICTED BY RF-SCORE:    0.00 PKD
ROOT
HETATM    1  C   UNL     1      -8.344   5.492  67.207  1.00  0.00    -0.104 C  
HETATM    2  S   UNL     1      -6.753   6.249  67.636  1.00  0.00    -0.063 SA 
HETATM    3  C   UNL     1      -6.608   5.331  69.182  1.00  0.00    -0.051 C  
HETATM    4  C   UNL     1      -7.856   5.358  70.058  1.00  0.00    -0.081 C  
HETATM    5  OXT UNL     1     -10.116   5.977  71.768  1.00  0.00    -0.183 OA 
HETATM    6  CA  UNL     1      -9.107   5.639  69.590  1.00  0.00    -0.130 C  
HETATM    7  C   UNL     1     -10.261   5.831  70.562  1.00  0.00    -0.221 C  
HETATM    8  CA  UNL     1      -9.228   6.336  66.224  1.00  0.00    -0.145 C  
HETATM    9  N   UNL     1      -9.306   5.817  68.245  1.00  0.00    -0.116 N  
HETATM   10  O   UNL     1     -11.503   5.761  70.047  1.00  0.00    -0.188 OA 
HETATM   11  C   UNL     1     -10.243   6.340  67.424  1.00  0.00    -0.180 C  
HETATM   12  O   UNL     1     -11.369   6.706  67.678  1.00  0.00    -0.246 OA 
ENDROOT
BRANCH   4  13
HETATM   13  C   UNL     1      -7.467   5.157  71.523  1.00  0.00    -0.095 C  
BRANCH  13  14
HETATM   14  S   UNL     1      -5.798   5.676  71.987  1.00  0.00    -0.031 SA 
BRANCH  14  15
HETATM   15  C   UNL     1      -5.999   7.238  72.664  1.00  0.00    -0.040 A  
HETATM   16  N   UNL     1      -6.257   7.559  73.910  1.00  0.00    -0.074 NA 
HETATM   17  N   UNL     1      -6.364   8.929  73.930  1.00  0.00    -0.309 NA 
HETATM   18  C   UNL     1      -5.650   8.564  70.528  1.00  0.00    -0.027 C  
HETATM   19  N   UNL     1      -5.930   8.385  71.926  1.00  0.00    -0.044 NA 
HETATM   20  N   UNL     1      -6.167   9.442  72.724  1.00  0.00    -0.285 NA 
ENDBRANCH  14  15
ENDBRANCH  13  14
ENDBRANCH   4  13
BRANCH   8  21
HETATM   21  N   UNL     1      -8.657   7.662  65.866  1.00  0.00    -0.145 N  
HETATM   22  O   UNL     1      -7.946   7.133  63.764  1.00  0.00    -0.128 OA 
HETATM   23  H   UNL     1      -8.669   8.390  66.580  1.00  0.00     0.000 HD 
HETATM   24  C   UNL     1      -8.114   7.977  64.641  1.00  0.00    -0.140 C  
BRANCH  24  25
HETATM   25  C   UNL     1      -7.723   9.465  64.480  1.00  0.00    -0.118 C  
BRANCH  25  26
HETATM   26  O   UNL     1      -6.781   9.779  65.524  1.00  0.00    -0.080 OA 
HETATM   27  O   UNL     1      -5.184  10.240  63.927  1.00  0.00    -0.098 OA 
HETATM   28  C   UNL     1      -5.559  10.170  65.085  1.00  0.00    -0.100 C  
ENDBRANCH  25  26
BRANCH  25  29
HETATM   29  C   UNL     1      -8.943  10.373  64.567  1.00  0.00    -0.241 A  
HETATM   30  C   UNL     1      -9.187  11.088  65.746  1.00  0.00    -0.226 A  
HETATM   31  C   UNL     1     -10.307  11.913  65.858  1.00  0.00    -0.277 A  
HETATM   32  C   UNL     1     -11.188  12.047  64.788  1.00  0.00    -0.373 A  
HETATM   33  C   UNL     1     -10.952  11.356  63.603  1.00  0.00    -0.443 A  
HETATM   34  C   UNL     1      -9.838  10.526  63.492  1.00  0.00    -0.339 A  
ENDBRANCH  25  29
ENDBRANCH  24  25
ENDBRANCH   8  21
TORSDOF 7
ENDMDL
MODEL      187
REMARK 921   NORMALIZED FREE ENERGY PREDICTED BY IDOCK:   -3.69 KCAL/MOL
REMARK 922        TOTAL FREE ENERGY PREDICTED BY IDOCK:   -6.70 KCAL/MOL
REMARK 923 INTER-LIGAND FREE ENERGY PREDICTED BY IDOCK:   -5.53 KCAL/MOL
REMARK 924 INTRA-LIGAND FREE ENERGY PREDICTED BY IDOCK:   -1.16 KCAL/MOL
REMARK 927      BINDING AFFINITY PREDICTED BY RF-SCORE:    0.00 PKD
ROOT
HETATM    1  C   UNL     1      -9.234   5.579  73.876  1.00  0.00    -0.126 C  
HETATM    2  S   UNL     1     -10.591   4.673  73.084  1.00  0.00    -0.240 SA 
HETATM    3  C   UNL     1      -9.621   3.163  72.898  1.00  0.00    -0.108 C  
HETATM    4  C   UNL     1      -8.235   3.367  72.298  1.00  0.00    -0.075 C  
HETATM    5  OXT UNL     1      -5.890   3.914  70.678  1.00  0.00    -0.013 OA 
HETATM    6  CA  UNL     1      -7.574   4.562  72.297  1.00  0.00    -0.083 C  
HETATM    7  C   UNL     1      -6.282   4.719  71.511  1.00  0.00    -0.018 C  
HETATM    8  CA  UNL     1      -9.327   7.140  73.750  1.00  0.00    -0.232 C  
HETATM    9  N   UNL     1      -8.116   5.638  72.952  1.00  0.00    -0.111 N  
HETATM   10  O   UNL     1      -5.512   5.781  71.820  1.00  0.00    -0.019 OA 
HETATM   11  C   UNL     1      -7.965   6.980  72.983  1.00  0.00    -0.101 C  
HETATM   12  O   UNL     1      -7.099   7.668  72.488  1.00  0.00    -0.067 OA 
ENDROOT
BRANCH   4  13
HETATM   13  C   UNL     1      -7.778   2.086  71.598  1.00  0.00    -0.041 C  
BRANCH  13  14
HETATM   14  S   UNL     1      -8.831   1.489  70.254  1.00  0.00    -0.073 SA 
BRANCH  14  15
HETATM   15  C   UNL     1      -8.830   2.759  69.102  1.00  0.00    -0.097 A  
HETATM   16  N   UNL     1      -9.537   3.864  69.108  1.00  0.00    -0.177 NA 
HETATM   17  N   UNL     1      -9.205   4.528  67.952  1.00  0.00    -0.124 NA 
HETATM   18  C   UNL     1      -7.104   1.767  67.528  1.00  0.00    -0.039 C  
HETATM   19  N   UNL     1      -8.060   2.742  67.975  1.00  0.00    -0.061 NA 
HETATM   20  N   UNL     1      -8.304   3.851  67.253  1.00  0.00    -0.098 NA 
ENDBRANCH  14  15
ENDBRANCH  13  14
ENDBRANCH   4  13
BRANCH   8  21
HETATM   21  N   UNL     1     -10.468   7.625  72.929  1.00  0.00    -0.304 N  
HETATM   22  O   UNL     1      -9.414   9.398  71.954  1.00  0.00    -0.185 OA 
HETATM   23  H   UNL     1     -11.360   7.140  73.026  1.00  0.00     0.000 HD 
HETATM   24  C   UNL     1     -10.407   8.681  72.047  1.00  0.00    -0.346 C  
BRANCH  24  25
HETATM   25  C   UNL     1     -11.691   8.888  71.210  1.00  0.00    -0.306 C  
BRANCH  25  26
HETATM   26  O   UNL     1     -11.781   7.793  70.279  1.00  0.00    -0.123 OA 
HETATM   27  O   UNL     1     -13.270   6.737  71.686  1.00  0.00    -0.314 OA 
HETATM   28  C   UNL     1     -12.629   6.801  70.652  1.00  0.00     0.028 C  
ENDBRANCH  25  26
BRANCH  25  29
HETATM   29  C   UNL     1     -11.663  10.220  70.470  1.00  0.00    -0.418 A  
HETATM   30  C   UNL     1     -12.358  11.316  70.997  1.00  0.00    -0.472 A  
HETATM   31  C   UNL     1     -12.364  12.542  70.329  1.00  0.00    -0.265 A  
HETATM   32  C   UNL     1     -11.663  12.692  69.136  1.00  0.00    -0.375 A  
HETATM   33  C   UNL     1     -10.953  11.618  68.606  1.00  0.00    -0.266 A  
HETATM   34  C   UNL     1     -10.952  10.391  69.268  1.00  0.00    -0.287 A  
ENDBRANCH  25  29
ENDBRANCH  24  25
ENDBRANCH   8  21
TORSDOF 7
ENDMDL
MODEL      188
REMARK 921   NORMALIZED FREE ENERGY PREDICTED BY IDOCK:   -3.62 KCAL/MOL
REMARK 922        TOTAL FREE ENERGY PREDICTED BY IDOCK:   -6.59 KCAL/MOL
REMARK 923 INTER-LIGAND FREE ENERGY PREDICTED BY IDOCK:   -5.18 KCAL/MOL
REMARK 924 INTRA-LIGAND FREE ENERGY PREDICTED BY IDOCK:   -1.41 KCAL/MOL
REMARK 927      BINDING AFFINITY PREDICTED BY RF-SCORE:    0.00 PKD
ROOT
HETATM    1  C   UNL     1     -10.267   4.567  68.496  1.00  0.00     0.149 C  
HETATM    2  S   UNL     1     -10.473   6.009  67.415  1.00  0.00    -0.280 SA 
HETATM    3  C   UNL     1      -9.691   5.201  66.004  1.00  0.00    -0.165 C  
HETATM    4  C   UNL     1      -8.362   4.521  66.316  1.00  0.00    -0.110 C  
HETATM    5  OXT UNL     1      -5.648   3.769  67.012  1.00  0.00    -0.020 OA 
HETATM    6  CA  UNL     1      -7.976   4.144  67.570  1.00  0.00    -0.091 C  
HETATM    7  C   UNL     1      -6.561   3.647  67.817  1.00  0.00    -0.042 C  
HETATM    8  CA  UNL     1     -10.261   4.893  70.031  1.00  0.00    -0.243 C  
HETATM    9  N   UNL     1      -8.850   4.279  68.619  1.00  0.00    -0.097 N  
HETATM   10  O   UNL     1      -6.347   2.978  68.966  1.00  0.00    -0.028 OA 
HETATM   11  C   UNL     1      -8.810   4.294  69.970  1.00  0.00    -0.077 C  
HETATM   12  O   UNL     1      -7.899   4.007  70.714  1.00  0.00    -0.051 OA 
ENDROOT
BRANCH   4  13
HETATM   13  C   UNL     1      -7.502   4.456  65.053  1.00  0.00    -0.073 C  
BRANCH  13  14
HETATM   14  S   UNL     1      -6.380   5.847  64.777  1.00  0.00    -0.038 SA 
BRANCH  14  15
HETATM   15  C   UNL     1      -7.303   7.237  65.172  1.00  0.00    -0.081 A  
HETATM   16  N   UNL     1      -8.137   7.904  64.411  1.00  0.00    -0.131 NA 
HETATM   17  N   UNL     1      -8.587   8.954  65.176  1.00  0.00    -0.176 NA 
HETATM   18  C   UNL     1      -6.502   7.486  67.568  1.00  0.00    -0.058 C  
HETATM   19  N   UNL     1      -7.246   7.847  66.392  1.00  0.00    -0.080 NA 
HETATM   20  N   UNL     1      -8.048   8.927  66.388  1.00  0.00    -0.109 NA 
ENDBRANCH  14  15
ENDBRANCH  13  14
ENDBRANCH   4  13
BRANCH   8  21
HETATM   21  N   UNL     1     -10.340   6.343  70.352  1.00  0.00    -0.198 N  
HETATM   22  O   UNL     1     -11.947   6.213  71.967  1.00  0.00    -0.324 OA 
HETATM   23  H   UNL     1      -9.765   6.981  69.802  1.00  0.00     0.000 HD 
HETATM   24  C   UNL     1     -11.133   6.885  71.338  1.00  0.00    -0.250 C  
BRANCH  24  25
HETATM   25  C   UNL     1     -10.922   8.400  71.566  1.00  0.00    -0.262 C  
BRANCH  25  26
HETATM   26  O   UNL     1     -11.864   9.098  70.727  1.00  0.00    -0.281 OA 
HETATM   27  O   UNL     1     -13.289   9.310  72.527  1.00  0.00    -0.457 OA 
HETATM   28  C   UNL     1     -12.992   9.506  71.361  1.00  0.00    -0.368 C  
ENDBRANCH  25  26
BRANCH  25  29
HETATM   29  C   UNL     1      -9.496   8.819  71.233  1.00  0.00    -0.320 A  
HETATM   30  C   UNL     1      -9.263   9.672  70.146  1.00  0.00    -0.287 A  
HETATM   31  C   UNL     1      -7.964  10.056  69.810  1.00  0.00    -0.190 A  
HETATM   32  C   UNL     1      -6.883   9.607  70.565  1.00  0.00    -0.126 A  
HETATM   33  C   UNL     1      -7.097   8.773  71.657  1.00  0.00    -0.091 A  
HETATM   34  C   UNL     1      -8.394   8.382  71.991  1.00  0.00    -0.231 A  
ENDBRANCH  25  29
ENDBRANCH  24  25
ENDBRANCH   8  21
TORSDOF 7
ENDMDL
MODEL      189
REMARK 921   NORMALIZED FREE ENERGY PREDICTED BY IDOCK:   -3.59 KCAL/MOL
REMARK 922        TOTAL FREE ENERGY PREDICTED BY IDOCK:   -6.56 KCAL/MOL
REMARK 923 INTER-LIGAND FREE ENERGY PREDICTED BY IDOCK:   -5.79 KCAL/MOL
REMARK 924 INTRA-LIGAND FREE ENERGY PREDICTED BY IDOCK:   -0.77 KCAL/MOL
REMARK 927      BINDING AFFINITY PREDICTED BY RF-SCORE:    0.00 PKD
ROOT
HETATM    1  C   UNL     1     -10.818   5.961  68.002  1.00  0.00    -0.232 C  
HETATM    2  S   UNL     1     -10.393   7.679  67.607  1.00  0.00    -0.245 SA 
HETATM    3  C   UNL     1      -9.491   7.229  66.111  1.00  0.00    -0.001 C  
HETATM    4  C   UNL     1      -8.487   6.096  66.290  1.00  0.00    -0.132 C  
HETATM    5  OXT UNL     1      -6.299   4.318  66.975  1.00  0.00    -0.038 OA 
HETATM    6  CA  UNL     1      -8.535   5.190  67.311  1.00  0.00    -0.106 C  
HETATM    7  C   UNL     1      -7.389   4.213  67.520  1.00  0.00    -0.068 C  
HETATM    8  CA  UNL     1     -11.127   5.693  69.516  1.00  0.00    -0.054 C  
HETATM    9  N   UNL     1      -9.589   5.211  68.187  1.00  0.00    -0.128 N  
HETATM   10  O   UNL     1      -7.640   3.145  68.301  1.00  0.00    -0.053 OA 
HETATM   11  C   UNL     1      -9.893   4.725  69.411  1.00  0.00    -0.212 C  
HETATM   12  O   UNL     1      -9.297   3.914  70.086  1.00  0.00    -0.135 OA 
ENDROOT
BRANCH   4  13
HETATM   13  C   UNL     1      -7.374   6.218  65.248  1.00  0.00    -0.077 C  
BRANCH  13  14
HETATM   14  S   UNL     1      -5.929   7.193  65.731  1.00  0.00    -0.037 SA 
BRANCH  14  15
HETATM   15  C   UNL     1      -6.576   8.550  66.558  1.00  0.00    -0.059 A  
HETATM   16  N   UNL     1      -7.020   8.617  67.790  1.00  0.00    -0.074 NA 
HETATM   17  N   UNL     1      -7.467   9.906  67.959  1.00  0.00    -0.085 NA 
HETATM   18  C   UNL     1      -6.368  10.217  64.655  1.00  0.00    -0.130 C  
HETATM   19  N   UNL     1      -6.725   9.775  65.975  1.00  0.00    -0.083 NA 
HETATM   20  N   UNL     1      -7.291  10.621  66.855  1.00  0.00    -0.108 NA 
ENDBRANCH  14  15
ENDBRANCH  13  14
ENDBRANCH   4  13
BRANCH   8  21
HETATM   21  N   UNL     1     -10.939   6.873  70.401  1.00  0.00    -0.259 N  
HETATM   22  O   UNL     1     -13.044   6.937  71.279  1.00  0.00    -0.332 OA 
HETATM   23  H   UNL     1     -10.038   7.350  70.369  1.00  0.00     0.000 HD 
HETATM   24  C   UNL     1     -11.894   7.368  71.260  1.00  0.00    -0.301 C  
BRANCH  24  25
HETATM   25  C   UNL     1     -11.398   8.513  72.174  1.00  0.00    -0.372 C  
BRANCH  25  26
HETATM   26  O   UNL     1     -11.310   9.703  71.366  1.00  0.00    -0.361 OA 
HETATM   27  O   UNL     1     -13.436  10.296  72.032  1.00  0.00    -0.393 OA 
HETATM   28  C   UNL     1     -12.405  10.503  71.416  1.00  0.00    -0.372 C  
ENDBRANCH  25  26
BRANCH  25  29
HETATM   29  C   UNL     1     -10.045   8.185  72.793  1.00  0.00    -0.367 A  
HETATM   30  C   UNL     1      -9.987   7.377  73.935  1.00  0.00    -0.258 A  
HETATM   31  C   UNL     1      -8.761   7.076  74.532  1.00  0.00    -0.227 A  
HETATM   32  C   UNL     1      -7.578   7.566  73.985  1.00  0.00    -0.155 A  
HETATM   33  C   UNL     1      -7.615   8.357  72.841  1.00  0.00    -0.120 A  
HETATM   34  C   UNL     1      -8.839   8.664  72.248  1.00  0.00    -0.218 A  
ENDBRANCH  25  29
ENDBRANCH  24  25
ENDBRANCH   8  21
TORSDOF 7
ENDMDL
MODEL      190
REMARK 921   NORMALIZED FREE ENERGY PREDICTED BY IDOCK:   -3.48 KCAL/MOL
REMARK 922        TOTAL FREE ENERGY PREDICTED BY IDOCK:   -6.40 KCAL/MOL
REMARK 923 INTER-LIGAND FREE ENERGY PREDICTED BY IDOCK:   -5.58 KCAL/MOL
REMARK 924 INTRA-LIGAND FREE ENERGY PREDICTED BY IDOCK:   -0.82 KCAL/MOL
REMARK 927      BINDING AFFINITY PREDICTED BY RF-SCORE:    0.00 PKD
ROOT
HETATM    1  C   UNL     1      -9.506   8.414  70.498  1.00  0.00    -0.169 C  
HETATM    2  S   UNL     1      -7.701   8.341  70.655  1.00  0.00    -0.089 SA 
HETATM    3  C   UNL     1      -7.419   9.081  69.034  1.00  0.00    -0.074 C  
HETATM    4  C   UNL     1      -8.226   8.458  67.901  1.00  0.00    -0.127 C  
HETATM    5  OXT UNL     1      -9.441   6.800  65.854  1.00  0.00    -0.003 OA 
HETATM    6  CA  UNL     1      -9.368   7.734  68.089  1.00  0.00    -0.145 C  
HETATM    7  C   UNL     1     -10.003   6.991  66.923  1.00  0.00    -0.217 C  
HETATM    8  CA  UNL     1     -10.285   7.382  71.386  1.00  0.00    -0.187 C  
HETATM    9  N   UNL     1      -9.903   7.623  69.347  1.00  0.00    -0.169 N  
HETATM   10  O   UNL     1     -11.279   6.593  67.083  1.00  0.00    -0.392 OA 
HETATM   11  C   UNL     1     -10.793   6.844  70.000  1.00  0.00    -0.262 C  
HETATM   12  O   UNL     1     -11.566   6.024  69.557  1.00  0.00    -0.303 OA 
ENDROOT
BRANCH   4  13
HETATM   13  C   UNL     1      -7.496   8.657  66.572  1.00  0.00    -0.088 C  
BRANCH  13  14
HETATM   14  S   UNL     1      -7.336  10.363  65.994  1.00  0.00    -0.137 SA 
BRANCH  14  15
HETATM   15  C   UNL     1      -8.945  10.954  65.928  1.00  0.00    -0.192 A  
HETATM   16  N   UNL     1      -9.696  11.384  66.914  1.00  0.00    -0.190 NA 
HETATM   17  N   UNL     1     -10.908  11.705  66.350  1.00  0.00    -0.277 NA 
HETATM   18  C   UNL     1      -9.284  10.688  63.426  1.00  0.00    -0.270 C  
HETATM   19  N   UNL     1      -9.667  11.020  64.771  1.00  0.00    -0.243 NA 
HETATM   20  N   UNL     1     -10.900  11.486  65.042  1.00  0.00    -0.292 NA 
ENDBRANCH  14  15
ENDBRANCH  13  14
ENDBRANCH   4  13
BRANCH   8  21
HETATM   21  N   UNL     1      -9.415   6.450  72.152  1.00  0.00    -0.150 N  
HETATM   22  O   UNL     1      -9.735   7.362  74.219  1.00  0.00    -0.166 OA 
HETATM   23  H   UNL     1      -8.901   5.743  71.627  1.00  0.00     0.000 HD 
HETATM   24  C   UNL     1      -9.254   6.474  73.520  1.00  0.00    -0.134 C  
BRANCH  24  25
HETATM   25  C   UNL     1      -8.410   5.307  74.083  1.00  0.00    -0.109 C  
BRANCH  25  26
HETATM   26  O   UNL     1      -7.144   5.319  73.394  1.00  0.00    -0.081 OA 
HETATM   27  O   UNL     1      -6.574   7.258  74.504  1.00  0.00    -0.085 OA 
HETATM   28  C   UNL     1      -6.328   6.350  73.729  1.00  0.00    -0.065 C  
ENDBRANCH  25  26
BRANCH  25  29
HETATM   29  C   UNL     1      -9.112   3.969  73.891  1.00  0.00    -0.094 A  
HETATM   30  C   UNL     1     -10.511   3.913  73.921  1.00  0.00    -0.267 A  
HETATM   31  C   UNL     1     -11.177   2.697  73.766  1.00  0.00    -0.284 A  
HETATM   32  C   UNL     1     -10.455   1.524  73.563  1.00  0.00    -0.177 A  
HETATM   33  C   UNL     1      -9.065   1.563  73.513  1.00  0.00    -0.065 A  
HETATM   34  C   UNL     1      -8.397   2.776  73.676  1.00  0.00    -0.072 A  
ENDBRANCH  25  29
ENDBRANCH  24  25
ENDBRANCH   8  21
TORSDOF 7
ENDMDL
MODEL      191
REMARK 921   NORMALIZED FREE ENERGY PREDICTED BY IDOCK:   -3.42 KCAL/MOL
REMARK 922        TOTAL FREE ENERGY PREDICTED BY IDOCK:   -6.31 KCAL/MOL
REMARK 923 INTER-LIGAND FREE ENERGY PREDICTED BY IDOCK:   -6.32 KCAL/MOL
REMARK 924 INTRA-LIGAND FREE ENERGY PREDICTED BY IDOCK:    0.01 KCAL/MOL
REMARK 927      BINDING AFFINITY PREDICTED BY RF-SCORE:    0.00 PKD
ROOT
HETATM    1  C   UNL     1      -9.260   6.230  71.630  1.00  0.00    -0.144 C  
HETATM    2  S   UNL     1     -10.736   5.998  70.602  1.00  0.00    -0.291 SA 
HETATM    3  C   UNL     1     -10.000   4.650  69.656  1.00  0.00    -0.211 C  
HETATM    4  C   UNL     1      -8.599   4.935  69.127  1.00  0.00    -0.091 C  
HETATM    5  OXT UNL     1      -6.199   5.881  67.798  1.00  0.00    -0.030 OA 
HETATM    6  CA  UNL     1      -7.768   5.887  69.645  1.00  0.00    -0.096 C  
HETATM    7  C   UNL     1      -6.467   6.232  68.938  1.00  0.00    -0.043 C  
HETATM    8  CA  UNL     1      -9.121   7.658  72.265  1.00  0.00    -0.140 C  
HETATM    9  N   UNL     1      -8.145   6.578  70.768  1.00  0.00    -0.118 N  
HETATM   10  O   UNL     1      -5.549   6.907  69.657  1.00  0.00    -0.015 OA 
HETATM   11  C   UNL     1      -7.797   7.709  71.420  1.00  0.00    -0.089 C  
HETATM   12  O   UNL     1      -6.839   8.431  71.250  1.00  0.00    -0.053 OA 
ENDROOT
BRANCH   4  13
HETATM   13  C   UNL     1      -8.336   4.098  67.874  1.00  0.00    -0.094 C  
BRANCH  13  14
HETATM   14  S   UNL     1      -9.672   4.038  66.657  1.00  0.00    -0.139 SA 
BRANCH  14  15
HETATM   15  C   UNL     1      -9.010   4.757  65.247  1.00  0.00    -0.151 A  
HETATM   16  N   UNL     1      -8.461   5.940  65.118  1.00  0.00    -0.149 NA 
HETATM   17  N   UNL     1      -8.128   6.057  63.789  1.00  0.00    -0.109 NA 
HETATM   18  C   UNL     1      -9.469   2.831  63.657  1.00  0.00    -0.107 C  
HETATM   19  N   UNL     1      -9.006   4.140  64.029  1.00  0.00    -0.135 NA 
HETATM   20  N   UNL     1      -8.458   4.963  63.116  1.00  0.00    -0.116 NA 
ENDBRANCH  14  15
ENDBRANCH  13  14
ENDBRANCH   4  13
BRANCH   8  21
HETATM   21  N   UNL     1     -10.178   8.620  71.854  1.00  0.00    -0.306 N  
HETATM   22  O   UNL     1      -8.953   9.788  70.325  1.00  0.00    -0.232 OA 
HETATM   23  H   UNL     1     -11.076   8.570  72.335  1.00  0.00     0.000 HD 
HETATM   24  C   UNL     1     -10.032   9.573  70.871  1.00  0.00    -0.238 C  
BRANCH  24  25
HETATM   25  C   UNL     1     -11.327  10.349  70.537  1.00  0.00    -0.341 C  
BRANCH  25  26
HETATM   26  O   UNL     1     -12.425   9.422  70.645  1.00  0.00    -0.146 OA 
HETATM   27  O   UNL     1     -13.406  10.788  72.221  1.00  0.00    -0.385 OA 
HETATM   28  C   UNL     1     -13.396   9.794  71.516  1.00  0.00    -0.385 C  
ENDBRANCH  25  26
BRANCH  25  29
HETATM   29  C   UNL     1     -11.270  10.951  69.138  1.00  0.00    -0.318 A  
HETATM   30  C   UNL     1     -11.455  12.329  68.973  1.00  0.00    -0.349 A  
HETATM   31  C   UNL     1     -11.425  12.903  67.701  1.00  0.00    -0.383 A  
HETATM   32  C   UNL     1     -11.194  12.109  66.580  1.00  0.00    -0.375 A  
HETATM   33  C   UNL     1     -10.992  10.740  66.727  1.00  0.00    -0.214 A  
HETATM   34  C   UNL     1     -11.029  10.164  67.997  1.00  0.00    -0.326 A  
ENDBRANCH  25  29
ENDBRANCH  24  25
ENDBRANCH   8  21
TORSDOF 7
ENDMDL
MODEL      192
REMARK 921   NORMALIZED FREE ENERGY PREDICTED BY IDOCK:   -3.25 KCAL/MOL
REMARK 922        TOTAL FREE ENERGY PREDICTED BY IDOCK:   -6.08 KCAL/MOL
REMARK 923 INTER-LIGAND FREE ENERGY PREDICTED BY IDOCK:   -5.97 KCAL/MOL
REMARK 924 INTRA-LIGAND FREE ENERGY PREDICTED BY IDOCK:   -0.11 KCAL/MOL
REMARK 927      BINDING AFFINITY PREDICTED BY RF-SCORE:    0.00 PKD
ROOT
HETATM    1  C   UNL     1      -9.424  16.696  68.882  1.00  0.00    -0.251 C  
HETATM    2  S   UNL     1      -8.093  15.500  69.180  1.00  0.00    -0.257 SA 
HETATM    3  C   UNL     1      -6.825  16.777  69.307  1.00  0.00    -0.225 C  
HETATM    4  C   UNL     1      -6.843  17.806  68.182  1.00  0.00    -0.206 C  
HETATM    5  OXT UNL     1      -6.734  19.313  65.705  1.00  0.00    -0.249 OA 
HETATM    6  CA  UNL     1      -7.931  18.054  67.395  1.00  0.00    -0.221 C  
HETATM    7  C   UNL     1      -7.804  18.958  66.178  1.00  0.00    -0.250 C  
HETATM    8  CA  UNL     1     -10.674  16.114  68.133  1.00  0.00    -0.315 C  
HETATM    9  N   UNL     1      -9.122  17.431  67.667  1.00  0.00    -0.232 N  
HETATM   10  O   UNL     1      -8.951  19.434  65.657  1.00  0.00    -0.307 OA 
HETATM   11  C   UNL     1     -10.295  17.181  67.044  1.00  0.00    -0.308 C  
HETATM   12  O   UNL     1     -10.720  17.623  65.999  1.00  0.00    -0.274 OA 
ENDROOT
BRANCH   4  13
HETATM   13  C   UNL     1      -5.446  18.400  67.998  1.00  0.00    -0.158 C  
BRANCH  13  14
HETATM   14  S   UNL     1      -5.293  20.183  68.264  1.00  0.00    -0.214 SA 
BRANCH  14  15
HETATM   15  C   UNL     1      -5.857  20.435  69.864  1.00  0.00    -0.354 A  
HETATM   16  N   UNL     1      -5.156  20.520  70.969  1.00  0.00    -0.312 NA 
HETATM   17  N   UNL     1      -6.072  20.683  71.982  1.00  0.00    -0.448 NA 
HETATM   18  C   UNL     1      -8.333  20.557  69.319  1.00  0.00     1.138 C  
HETATM   19  N   UNL     1      -7.180  20.558  70.177  1.00  0.00     0.372 NA 
HETATM   20  N   UNL     1      -7.310  20.707  71.507  1.00  0.00     0.801 NA 
ENDBRANCH  14  15
ENDBRANCH  13  14
ENDBRANCH   4  13
BRANCH   8  21
HETATM   21  N   UNL     1     -10.533  14.694  67.713  1.00  0.00    -0.244 N  
HETATM   22  O   UNL     1     -11.302  13.728  69.631  1.00  0.00    -0.243 OA 
HETATM   23  H   UNL     1     -10.124  14.511  66.796  1.00  0.00     0.000 HD 
HETATM   24  C   UNL     1     -10.915  13.610  68.471  1.00  0.00    -0.267 C  
BRANCH  24  25
HETATM   25  C   UNL     1     -10.796  12.250  67.745  1.00  0.00    -0.221 C  
BRANCH  25  26
HETATM   26  O   UNL     1      -9.436  11.797  67.898  1.00  0.00    -0.178 OA 
HETATM   27  O   UNL     1     -10.213   9.710  68.494  1.00  0.00    -0.178 OA 
HETATM   28  C   UNL     1      -9.311  10.495  68.258  1.00  0.00    -0.156 C  
ENDBRANCH  25  26
BRANCH  25  29
HETATM   29  C   UNL     1     -11.157  12.373  66.270  1.00  0.00    -0.344 A  
HETATM   30  C   UNL     1     -10.193  12.076  65.298  1.00  0.00    -0.304 A  
HETATM   31  C   UNL     1     -10.494  12.198  63.940  1.00  0.00    -0.442 A  
HETATM   32  C   UNL     1     -11.764  12.602  63.537  1.00  0.00    -0.604 A  
HETATM   33  C   UNL     1     -12.738  12.885  64.490  1.00  0.00    -0.359 A  
HETATM   34  C   UNL     1     -12.438  12.771  65.847  1.00  0.00    -0.160 A  
ENDBRANCH  25  29
ENDBRANCH  24  25
ENDBRANCH   8  21
TORSDOF 7
ENDMDL
MODEL      193
REMARK 921   NORMALIZED FREE ENERGY PREDICTED BY IDOCK:   -3.22 KCAL/MOL
REMARK 922        TOTAL FREE ENERGY PREDICTED BY IDOCK:   -6.04 KCAL/MOL
REMARK 923 INTER-LIGAND FREE ENERGY PREDICTED BY IDOCK:   -6.12 KCAL/MOL
REMARK 924 INTRA-LIGAND FREE ENERGY PREDICTED BY IDOCK:    0.08 KCAL/MOL
REMARK 927      BINDING AFFINITY PREDICTED BY RF-SCORE:    0.00 PKD
ROOT
HETATM    1  C   UNL     1     -10.736   8.368  69.599  1.00  0.00    -0.198 C  
HETATM    2  S   UNL     1     -10.571   8.266  67.795  1.00  0.00    -0.115 SA 
HETATM    3  C   UNL     1     -10.292   6.484  67.811  1.00  0.00    -0.192 C  
HETATM    4  C   UNL     1      -9.246   6.012  68.815  1.00  0.00    -0.123 C  
HETATM    5  OXT UNL     1      -6.886   5.415  70.393  1.00  0.00    -0.048 OA 
HETATM    6  CA  UNL     1      -8.860   6.735  69.908  1.00  0.00    -0.141 C  
HETATM    7  C   UNL     1      -7.678   6.276  70.748  1.00  0.00    -0.102 C  
HETATM    8  CA  UNL     1     -10.430   9.781  70.207  1.00  0.00    -0.288 C  
HETATM    9  N   UNL     1      -9.498   7.912  70.203  1.00  0.00    -0.160 N  
HETATM   10  O   UNL     1      -7.564   6.818  71.976  1.00  0.00    -0.093 OA 
HETATM   11  C   UNL     1      -9.288   9.010  70.963  1.00  0.00    -0.271 C  
HETATM   12  O   UNL     1      -8.444   9.210  71.809  1.00  0.00    -0.340 OA 
ENDROOT
BRANCH   4  13
HETATM   13  C   UNL     1      -8.623   4.699  68.340  1.00  0.00    -0.097 C  
BRANCH  13  14
HETATM   14  S   UNL     1      -7.130   4.842  67.329  1.00  0.00    -0.070 SA 
BRANCH  14  15
HETATM   15  C   UNL     1      -7.259   6.377  66.575  1.00  0.00    -0.073 A  
HETATM   16  N   UNL     1      -6.901   7.548  67.045  1.00  0.00    -0.069 NA 
HETATM   17  N   UNL     1      -7.249   8.462  66.079  1.00  0.00    -0.072 NA 
HETATM   18  C   UNL     1      -8.317   5.584  64.408  1.00  0.00    -0.115 C  
HETATM   19  N   UNL     1      -7.803   6.554  65.336  1.00  0.00    -0.100 NA 
HETATM   20  N   UNL     1      -7.801   7.865  65.032  1.00  0.00    -0.113 NA 
ENDBRANCH  14  15
ENDBRANCH  13  14
ENDBRANCH   4  13
BRANCH   8  21
HETATM   21  N   UNL     1      -9.970  10.791  69.216  1.00  0.00    -0.353 N  
HETATM   22  O   UNL     1      -7.751  10.260  69.244  1.00  0.00    -0.104 OA 
HETATM   23  H   UNL     1     -10.664  11.439  68.844  1.00  0.00     0.000 HD 
HETATM   24  C   UNL     1      -8.675  10.913  68.765  1.00  0.00    -0.158 C  
BRANCH  24  25
HETATM   25  C   UNL     1      -8.490  11.945  67.628  1.00  0.00    -0.156 C  
BRANCH  25  26
HETATM   26  O   UNL     1      -7.956  13.146  68.220  1.00  0.00    -0.136 OA 
HETATM   27  O   UNL     1      -6.015  12.864  67.007  1.00  0.00    -0.292 OA 
HETATM   28  C   UNL     1      -6.713  13.483  67.791  1.00  0.00    -0.168 C  
ENDBRANCH  25  26
BRANCH  25  29
HETATM   29  C   UNL     1      -9.807  12.237  66.921  1.00  0.00    -0.216 A  
HETATM   30  C   UNL     1     -10.193  11.449  65.829  1.00  0.00    -0.295 A  
HETATM   31  C   UNL     1     -11.386  11.706  65.153  1.00  0.00    -0.223 A  
HETATM   32  C   UNL     1     -12.217  12.744  65.569  1.00  0.00    -0.519 A  
HETATM   33  C   UNL     1     -11.858  13.526  66.662  1.00  0.00    -0.450 A  
HETATM   34  C   UNL     1     -10.662  13.275  67.334  1.00  0.00    -0.266 A  
ENDBRANCH  25  29
ENDBRANCH  24  25
ENDBRANCH   8  21
TORSDOF 7
ENDMDL
MODEL      194
REMARK 921   NORMALIZED FREE ENERGY PREDICTED BY IDOCK:   -3.19 KCAL/MOL
REMARK 922        TOTAL FREE ENERGY PREDICTED BY IDOCK:   -6.00 KCAL/MOL
REMARK 923 INTER-LIGAND FREE ENERGY PREDICTED BY IDOCK:   -4.07 KCAL/MOL
REMARK 924 INTRA-LIGAND FREE ENERGY PREDICTED BY IDOCK:   -1.92 KCAL/MOL
REMARK 927      BINDING AFFINITY PREDICTED BY RF-SCORE:    0.00 PKD
ROOT
HETATM    1  C   UNL     1      -8.144   5.123  66.722  1.00  0.00    -0.108 C  
HETATM    2  S   UNL     1      -6.490   5.397  67.413  1.00  0.00    -0.053 SA 
HETATM    3  C   UNL     1      -6.796   4.350  68.850  1.00  0.00    -0.047 C  
HETATM    4  C   UNL     1      -8.107   4.632  69.575  1.00  0.00    -0.065 C  
HETATM    5  OXT UNL     1     -10.357   5.681  71.077  1.00  0.00    -0.211 OA 
HETATM    6  CA  UNL     1      -9.171   5.270  69.004  1.00  0.00    -0.118 C  
HETATM    7  C   UNL     1     -10.364   5.677  69.854  1.00  0.00    -0.277 C  
HETATM    8  CA  UNL     1      -8.643   6.247  65.748  1.00  0.00    -0.150 C  
HETATM    9  N   UNL     1      -9.129   5.602  67.674  1.00  0.00    -0.107 N  
HETATM   10  O   UNL     1     -11.500   5.979  69.196  1.00  0.00    -0.316 OA 
HETATM   11  C   UNL     1      -9.781   6.419  66.817  1.00  0.00    -0.158 C  
HETATM   12  O   UNL     1     -10.804   7.046  66.982  1.00  0.00    -0.348 OA 
ENDROOT
BRANCH   4  13
HETATM   13  C   UNL     1      -7.990   4.216  71.042  1.00  0.00    -0.071 C  
BRANCH  13  14
HETATM   14  S   UNL     1      -6.683   5.021  71.999  1.00  0.00    -0.050 SA 
BRANCH  14  15
HETATM   15  C   UNL     1      -7.415   6.437  72.632  1.00  0.00    -0.091 A  
HETATM   16  N   UNL     1      -7.866   6.648  73.845  1.00  0.00    -0.095 NA 
HETATM   17  N   UNL     1      -8.392   7.918  73.834  1.00  0.00    -0.222 NA 
HETATM   18  C   UNL     1      -7.308   7.831  70.512  1.00  0.00    -0.072 C  
HETATM   19  N   UNL     1      -7.639   7.557  71.884  1.00  0.00    -0.082 NA 
HETATM   20  N   UNL     1      -8.259   8.481  72.641  1.00  0.00    -0.364 NA 
ENDBRANCH  14  15
ENDBRANCH  13  14
ENDBRANCH   4  13
BRANCH   8  21
HETATM   21  N   UNL     1      -7.714   7.401  65.613  1.00  0.00    -0.098 N  
HETATM   22  O   UNL     1      -8.991   8.659  64.201  1.00  0.00     0.079 OA 
HETATM   23  H   UNL     1      -6.812   7.340  66.085  1.00  0.00     0.000 HD 
HETATM   24  C   UNL     1      -7.986   8.546  64.898  1.00  0.00    -0.137 C  
BRANCH  24  25
HETATM   25  C   UNL     1      -6.915   9.654  65.037  1.00  0.00    -0.111 C  
BRANCH  25  26
HETATM   26  O   UNL     1      -5.634   9.051  64.773  1.00  0.00    -0.059 OA 
HETATM   27  O   UNL     1      -5.724   9.839  62.608  1.00  0.00    -0.088 OA 
HETATM   28  C   UNL     1      -5.164   9.249  63.515  1.00  0.00    -0.065 C  
ENDBRANCH  25  26
BRANCH  25  29
HETATM   29  C   UNL     1      -6.937  10.278  66.427  1.00  0.00    -0.111 A  
HETATM   30  C   UNL     1      -8.131  10.821  66.920  1.00  0.00    -0.132 A  
HETATM   31  C   UNL     1      -8.173  11.415  68.182  1.00  0.00    -0.143 A  
HETATM   32  C   UNL     1      -7.028  11.459  68.974  1.00  0.00    -0.106 A  
HETATM   33  C   UNL     1      -5.838  10.910  68.507  1.00  0.00    -0.043 A  
HETATM   34  C   UNL     1      -5.792  10.323  67.243  1.00  0.00    -0.049 A  
ENDBRANCH  25  29
ENDBRANCH  24  25
ENDBRANCH   8  21
TORSDOF 7
ENDMDL
MODEL      195
REMARK 921   NORMALIZED FREE ENERGY PREDICTED BY IDOCK:   -3.13 KCAL/MOL
REMARK 922        TOTAL FREE ENERGY PREDICTED BY IDOCK:   -5.90 KCAL/MOL
REMARK 923 INTER-LIGAND FREE ENERGY PREDICTED BY IDOCK:   -3.91 KCAL/MOL
REMARK 924 INTRA-LIGAND FREE ENERGY PREDICTED BY IDOCK:   -1.99 KCAL/MOL
REMARK 927      BINDING AFFINITY PREDICTED BY RF-SCORE:    0.00 PKD
ROOT
HETATM    1  C   UNL     1     -10.416   5.909  67.667  1.00  0.00    -0.238 C  
HETATM    2  S   UNL     1      -8.800   5.094  67.557  1.00  0.00    -0.105 SA 
HETATM    3  C   UNL     1      -9.260   3.780  68.705  1.00  0.00    -0.156 C  
HETATM    4  C   UNL     1      -9.913   4.263  69.995  1.00  0.00    -0.196 C  
HETATM    5  OXT UNL     1     -10.637   5.422  72.555  1.00  0.00    -0.208 OA 
HETATM    6  CA  UNL     1     -10.514   5.481  70.135  1.00  0.00    -0.300 C  
HETATM    7  C   UNL     1     -10.970   5.955  71.506  1.00  0.00    -0.262 C  
HETATM    8  CA  UNL     1     -10.407   7.436  67.306  1.00  0.00    -0.286 C  
HETATM    9  N   UNL     1     -10.643   6.303  69.046  1.00  0.00    -0.235 N  
HETATM   10  O   UNL     1     -11.844   6.979  71.531  1.00  0.00    -0.277 OA 
HETATM   11  C   UNL     1     -10.899   7.605  68.789  1.00  0.00     0.009 C  
HETATM   12  O   UNL     1     -11.279   8.476  69.540  1.00  0.00    -0.040 OA 
ENDROOT
BRANCH   4  13
HETATM   13  C   UNL     1      -9.674   3.245  71.111  1.00  0.00    -0.142 C  
BRANCH  13  14
HETATM   14  S   UNL     1      -7.946   2.888  71.511  1.00  0.00    -0.056 SA 
BRANCH  14  15
HETATM   15  C   UNL     1      -7.217   4.429  71.709  1.00  0.00    -0.063 A  
HETATM   16  N   UNL     1      -7.450   5.327  72.636  1.00  0.00    -0.094 NA 
HETATM   17  N   UNL     1      -6.644   6.398  72.331  1.00  0.00    -0.059 NA 
HETATM   18  C   UNL     1      -5.669   4.313  69.700  1.00  0.00    -0.017 C  
HETATM   19  N   UNL     1      -6.274   4.921  70.853  1.00  0.00    -0.018 NA 
HETATM   20  N   UNL     1      -5.923   6.159  71.244  1.00  0.00    -0.030 NA 
ENDBRANCH  14  15
ENDBRANCH  13  14
ENDBRANCH   4  13
BRANCH   8  21
HETATM   21  N   UNL     1      -9.059   7.991  67.014  1.00  0.00    -0.139 N  
HETATM   22  O   UNL     1      -9.643  10.195  66.945  1.00  0.00    -0.167 OA 
HETATM   23  H   UNL     1      -8.294   7.329  66.877  1.00  0.00     0.000 HD 
HETATM   24  C   UNL     1      -8.768   9.333  66.916  1.00  0.00    -0.127 C  
BRANCH  24  25
HETATM   25  C   UNL     1      -7.263   9.650  66.749  1.00  0.00    -0.090 C  
BRANCH  25  26
HETATM   26  O   UNL     1      -6.590   8.407  66.466  1.00  0.00    -0.054 OA 
HETATM   27  O   UNL     1      -5.952   9.236  64.412  1.00  0.00    -0.069 OA 
HETATM   28  C   UNL     1      -5.964   8.364  65.263  1.00  0.00    -0.045 C  
ENDBRANCH  25  26
BRANCH  25  29
HETATM   29  C   UNL     1      -6.689  10.297  68.002  1.00  0.00    -0.066 A  
HETATM   30  C   UNL     1      -6.356  11.658  67.985  1.00  0.00    -0.047 A  
HETATM   31  C   UNL     1      -5.811  12.271  69.114  1.00  0.00    -0.074 A  
HETATM   32  C   UNL     1      -5.607  11.537  70.279  1.00  0.00    -0.135 A  
HETATM   33  C   UNL     1      -5.947  10.188  70.320  1.00  0.00    -0.081 A  
HETATM   34  C   UNL     1      -6.484   9.572  69.190  1.00  0.00    -0.045 A  
ENDBRANCH  25  29
ENDBRANCH  24  25
ENDBRANCH   8  21
TORSDOF 7
ENDMDL
MODEL      196
REMARK 921   NORMALIZED FREE ENERGY PREDICTED BY IDOCK:   -3.10 KCAL/MOL
REMARK 922        TOTAL FREE ENERGY PREDICTED BY IDOCK:   -5.86 KCAL/MOL
REMARK 923 INTER-LIGAND FREE ENERGY PREDICTED BY IDOCK:   -6.08 KCAL/MOL
REMARK 924 INTRA-LIGAND FREE ENERGY PREDICTED BY IDOCK:    0.22 KCAL/MOL
REMARK 927      BINDING AFFINITY PREDICTED BY RF-SCORE:    0.00 PKD
ROOT
HETATM    1  C   UNL     1      -6.510   8.327  67.352  1.00  0.00    -0.058 C  
HETATM    2  S   UNL     1      -6.985   6.634  67.796  1.00  0.00    -0.086 SA 
HETATM    3  C   UNL     1      -6.465   5.953  66.208  1.00  0.00    -0.046 C  
HETATM    4  C   UNL     1      -6.975   6.717  64.991  1.00  0.00    -0.058 C  
HETATM    5  OXT UNL     1      -8.469   7.990  62.854  1.00  0.00    -0.079 OA 
HETATM    6  CA  UNL     1      -7.398   8.014  65.029  1.00  0.00    -0.079 C  
HETATM    7  C   UNL     1      -8.067   8.636  63.812  1.00  0.00    -0.163 C  
HETATM    8  CA  UNL     1      -7.259   9.450  68.152  1.00  0.00    -0.078 C  
HETATM    9  N   UNL     1      -7.279   8.734  66.190  1.00  0.00    -0.084 N  
HETATM   10  O   UNL     1      -8.145   9.980  63.786  1.00  0.00    -0.146 OA 
HETATM   11  C   UNL     1      -7.777   9.869  66.729  1.00  0.00    -0.099 C  
HETATM   12  O   UNL     1      -8.429  10.746  66.206  1.00  0.00    -0.150 OA 
ENDROOT
BRANCH   4  13
HETATM   13  C   UNL     1      -7.059   5.778  63.786  1.00  0.00    -0.052 C  
BRANCH  13  14
HETATM   14  S   UNL     1      -8.635   4.923  63.547  1.00  0.00    -0.101 SA 
BRANCH  14  15
HETATM   15  C   UNL     1      -8.942   4.148  65.046  1.00  0.00    -0.137 A  
HETATM   16  N   UNL     1      -9.743   4.530  66.012  1.00  0.00    -0.189 NA 
HETATM   17  N   UNL     1      -9.603   3.594  67.008  1.00  0.00    -0.199 NA 
HETATM   18  C   UNL     1      -7.389   2.168  64.711  1.00  0.00    -0.062 C  
HETATM   19  N   UNL     1      -8.328   2.989  65.425  1.00  0.00    -0.095 NA 
HETATM   20  N   UNL     1      -8.741   2.649  66.659  1.00  0.00    -0.116 NA 
ENDBRANCH  14  15
ENDBRANCH  13  14
ENDBRANCH   4  13
BRANCH   8  21
HETATM   21  N   UNL     1      -8.301   8.948  69.087  1.00  0.00    -0.121 N  
HETATM   22  O   UNL     1     -10.047   8.924  67.618  1.00  0.00    -0.189 OA 
HETATM   23  H   UNL     1      -8.033   8.802  70.061  1.00  0.00     0.000 HD 
HETATM   24  C   UNL     1      -9.601   8.665  68.734  1.00  0.00    -0.156 C  
BRANCH  24  25
HETATM   25  C   UNL     1     -10.443   8.019  69.859  1.00  0.00    -0.233 C  
BRANCH  25  26
HETATM   26  O   UNL     1     -11.173   6.922  69.277  1.00  0.00    -0.211 OA 
HETATM   27  O   UNL     1      -9.797   5.438  70.382  1.00  0.00    -0.177 OA 
HETATM   28  C   UNL     1     -10.739   5.692  69.652  1.00  0.00    -0.328 C  
ENDBRANCH  25  26
BRANCH  25  29
HETATM   29  C   UNL     1     -11.399   9.026  70.487  1.00  0.00    -0.282 A  
HETATM   30  C   UNL     1     -11.325  10.374  70.112  1.00  0.00    -0.397 A  
HETATM   31  C   UNL     1     -12.178  11.318  70.685  1.00  0.00    -0.489 A  
HETATM   32  C   UNL     1     -13.125  10.926  71.627  1.00  0.00    -0.538 A  
HETATM   33  C   UNL     1     -13.223   9.589  72.000  1.00  0.00    -0.539 A  
HETATM   34  C   UNL     1     -12.368   8.645  71.434  1.00  0.00    -0.344 A  
ENDBRANCH  25  29
ENDBRANCH  24  25
ENDBRANCH   8  21
TORSDOF 7
ENDMDL
MODEL      197
REMARK 921   NORMALIZED FREE ENERGY PREDICTED BY IDOCK:   -3.05 KCAL/MOL
REMARK 922        TOTAL FREE ENERGY PREDICTED BY IDOCK:   -5.80 KCAL/MOL
REMARK 923 INTER-LIGAND FREE ENERGY PREDICTED BY IDOCK:   -5.52 KCAL/MOL
REMARK 924 INTRA-LIGAND FREE ENERGY PREDICTED BY IDOCK:   -0.28 KCAL/MOL
REMARK 927      BINDING AFFINITY PREDICTED BY RF-SCORE:    0.00 PKD
ROOT
HETATM    1  C   UNL     1      -6.961   9.867  68.517  1.00  0.00    -0.067 C  
HETATM    2  S   UNL     1      -8.764   9.684  68.434  1.00  0.00    -0.120 SA 
HETATM    3  C   UNL     1      -8.970  11.112  67.351  1.00  0.00    -0.139 C  
HETATM    4  C   UNL     1      -8.235  12.368  67.807  1.00  0.00    -0.163 C  
HETATM    5  OXT UNL     1      -7.207  14.740  69.124  1.00  0.00    -0.128 OA 
HETATM    6  CA  UNL     1      -7.176  12.360  68.668  1.00  0.00    -0.104 C  
HETATM    7  C   UNL     1      -6.627  13.668  69.216  1.00  0.00    -0.110 C  
HETATM    8  CA  UNL     1      -6.294   9.228  69.785  1.00  0.00    -0.039 C  
HETATM    9  N   UNL     1      -6.653  11.165  69.090  1.00  0.00    -0.075 N  
HETATM   10  O   UNL     1      -5.399  13.624  69.768  1.00  0.00    -0.085 OA 
HETATM   11  C   UNL     1      -5.849  10.707  70.075  1.00  0.00    -0.076 C  
HETATM   12  O   UNL     1      -5.168  11.327  70.861  1.00  0.00    -0.103 OA 
ENDROOT
BRANCH   4  13
HETATM   13  C   UNL     1      -8.944  13.610  67.265  1.00  0.00    -0.225 C  
BRANCH  13  14
HETATM   14  S   UNL     1      -9.167  13.685  65.471  1.00  0.00     0.805 SA 
BRANCH  14  15
HETATM   15  C   UNL     1     -10.022  15.146  65.198  1.00  0.00    -0.231 A  
HETATM   16  N   UNL     1     -11.152  15.320  64.556  1.00  0.00    -0.308 NA 
HETATM   17  N   UNL     1     -11.394  16.673  64.581  1.00  0.00    -0.782 NA 
HETATM   18  C   UNL     1      -8.406  16.695  66.396  1.00  0.00    -0.318 C  
HETATM   19  N   UNL     1      -9.576  16.362  65.630  1.00  0.00    -0.507 NA 
HETATM   20  N   UNL     1     -10.437  17.318  65.235  1.00  0.00    -0.656 NA 
ENDBRANCH  14  15
ENDBRANCH  13  14
ENDBRANCH   4  13
BRANCH   8  21
HETATM   21  N   UNL     1      -7.256   8.648  70.759  1.00  0.00    -0.059 N  
HETATM   22  O   UNL     1      -6.506   6.494  70.686  1.00  0.00    -0.045 OA 
HETATM   23  H   UNL     1      -7.972   9.265  71.143  1.00  0.00     0.000 HD 
HETATM   24  C   UNL     1      -7.249   7.337  71.181  1.00  0.00    -0.072 C  
BRANCH  24  25
HETATM   25  C   UNL     1      -8.262   7.024  72.307  1.00  0.00    -0.099 C  
BRANCH  25  26
HETATM   26  O   UNL     1      -7.832   5.808  72.949  1.00  0.00    -0.103 OA 
HETATM   27  O   UNL     1      -6.448   7.038  74.323  1.00  0.00    -0.078 OA 
HETATM   28  C   UNL     1      -6.936   5.984  73.952  1.00  0.00    -0.081 C  
ENDBRANCH  25  26
BRANCH  25  29
HETATM   29  C   UNL     1      -9.675   6.869  71.758  1.00  0.00    -0.163 A  
HETATM   30  C   UNL     1      -9.911   7.080  70.393  1.00  0.00    -0.184 A  
HETATM   31  C   UNL     1     -11.199   6.962  69.869  1.00  0.00    -0.334 A  
HETATM   32  C   UNL     1     -12.263   6.617  70.697  1.00  0.00    -0.262 A  
HETATM   33  C   UNL     1     -12.045   6.388  72.052  1.00  0.00    -0.353 A  
HETATM   34  C   UNL     1     -10.760   6.512  72.579  1.00  0.00    -0.255 A  
ENDBRANCH  25  29
ENDBRANCH  24  25
ENDBRANCH   8  21
TORSDOF 7
ENDMDL
MODEL      198
REMARK 921   NORMALIZED FREE ENERGY PREDICTED BY IDOCK:   -3.05 KCAL/MOL
REMARK 922        TOTAL FREE ENERGY PREDICTED BY IDOCK:   -5.79 KCAL/MOL
REMARK 923 INTER-LIGAND FREE ENERGY PREDICTED BY IDOCK:   -4.93 KCAL/MOL
REMARK 924 INTRA-LIGAND FREE ENERGY PREDICTED BY IDOCK:   -0.86 KCAL/MOL
REMARK 927      BINDING AFFINITY PREDICTED BY RF-SCORE:    0.00 PKD
ROOT
HETATM    1  C   UNL     1      -7.274  10.623  68.159  1.00  0.00    -0.086 C  
HETATM    2  S   UNL     1      -8.131  10.685  69.756  1.00  0.00     0.302 SA 
HETATM    3  C   UNL     1      -8.248   8.889  69.887  1.00  0.00    -0.118 C  
HETATM    4  C   UNL     1      -8.773   8.193  68.636  1.00  0.00    -0.134 C  
HETATM    5  OXT UNL     1     -10.265   7.151  66.376  1.00  0.00    -0.104 OA 
HETATM    6  CA  UNL     1      -8.748   8.748  67.389  1.00  0.00    -0.130 C  
HETATM    7  C   UNL     1      -9.463   8.064  66.234  1.00  0.00    -0.172 C  
HETATM    8  CA  UNL     1      -7.419  11.919  67.286  1.00  0.00    -0.151 C  
HETATM    9  N   UNL     1      -8.134   9.959  67.197  1.00  0.00    -0.116 N  
HETATM   10  O   UNL     1      -9.122   8.460  64.993  1.00  0.00     0.014 OA 
HETATM   11  C   UNL     1      -8.107  10.940  66.268  1.00  0.00    -0.165 C  
HETATM   12  O   UNL     1      -8.560  10.947  65.144  1.00  0.00    -0.165 OA 
ENDROOT
BRANCH   4  13
HETATM   13  C   UNL     1      -9.434   6.868  69.018  1.00  0.00    -0.137 C  
BRANCH  13  14
HETATM   14  S   UNL     1      -8.340   5.432  69.131  1.00  0.00    -0.097 SA 
BRANCH  14  15
HETATM   15  C   UNL     1      -8.337   4.760  67.553  1.00  0.00    -0.104 A  
HETATM   16  N   UNL     1      -9.201   3.929  67.021  1.00  0.00    -0.161 NA 
HETATM   17  N   UNL     1      -8.734   3.661  65.756  1.00  0.00    -0.114 NA 
HETATM   18  C   UNL     1      -6.214   5.880  66.728  1.00  0.00    -0.030 C  
HETATM   19  N   UNL     1      -7.361   5.019  66.635  1.00  0.00    -0.084 NA 
HETATM   20  N   UNL     1      -7.611   4.322  65.511  1.00  0.00    -0.084 NA 
ENDBRANCH  14  15
ENDBRANCH  13  14
ENDBRANCH   4  13
BRANCH   8  21
HETATM   21  N   UNL     1      -8.306  12.959  67.871  1.00  0.00    -0.157 N  
HETATM   22  O   UNL     1      -7.281  14.784  66.963  1.00  0.00    -0.127 OA 
HETATM   23  H   UNL     1      -9.042  12.650  68.507  1.00  0.00     0.000 HD 
HETATM   24  C   UNL     1      -8.207  14.308  67.616  1.00  0.00    -0.185 C  
BRANCH  24  25
HETATM   25  C   UNL     1      -9.340  15.160  68.234  1.00  0.00    -0.193 C  
BRANCH  25  26
HETATM   26  O   UNL     1     -10.586  14.679  67.691  1.00  0.00    -0.252 OA 
HETATM   27  O   UNL     1     -11.502  14.705  69.806  1.00  0.00    -0.258 OA 
HETATM   28  C   UNL     1     -11.577  14.520  68.604  1.00  0.00    -0.315 C  
ENDBRANCH  25  26
BRANCH  25  29
HETATM   29  C   UNL     1      -9.157  16.640  67.923  1.00  0.00    -0.218 A  
HETATM   30  C   UNL     1      -8.855  17.038  66.614  1.00  0.00    -0.282 A  
HETATM   31  C   UNL     1      -8.665  18.386  66.308  1.00  0.00    -0.209 A  
HETATM   32  C   UNL     1      -8.788  19.354  67.301  1.00  0.00    -0.342 A  
HETATM   33  C   UNL     1      -9.104  18.979  68.603  1.00  0.00    -0.401 A  
HETATM   34  C   UNL     1      -9.287  17.632  68.913  1.00  0.00    -0.157 A  
ENDBRANCH  25  29
ENDBRANCH  24  25
ENDBRANCH   8  21
TORSDOF 7
ENDMDL
MODEL      199
REMARK 921   NORMALIZED FREE ENERGY PREDICTED BY IDOCK:   -3.05 KCAL/MOL
REMARK 922        TOTAL FREE ENERGY PREDICTED BY IDOCK:   -5.79 KCAL/MOL
REMARK 923 INTER-LIGAND FREE ENERGY PREDICTED BY IDOCK:   -5.03 KCAL/MOL
REMARK 924 INTRA-LIGAND FREE ENERGY PREDICTED BY IDOCK:   -0.76 KCAL/MOL
REMARK 927      BINDING AFFINITY PREDICTED BY RF-SCORE:    0.00 PKD
ROOT
HETATM    1  C   UNL     1      -9.097  12.040  67.973  1.00  0.00    -0.188 C  
HETATM    2  S   UNL     1      -9.505  12.586  66.292  1.00  0.00    -0.170 SA 
HETATM    3  C   UNL     1      -9.548  10.905  65.637  1.00  0.00    -0.224 C  
HETATM    4  C   UNL     1      -8.346  10.045  66.013  1.00  0.00    -0.126 C  
HETATM    5  OXT UNL     1      -5.761   8.786  66.402  1.00  0.00    -0.045 OA 
HETATM    6  CA  UNL     1      -7.529  10.302  67.076  1.00  0.00    -0.093 C  
HETATM    7  C   UNL     1      -6.248   9.505  67.265  1.00  0.00    -0.064 C  
HETATM    8  CA  UNL     1      -8.381  13.118  68.858  1.00  0.00     0.246 C  
HETATM    9  N   UNL     1      -7.833  11.327  67.934  1.00  0.00    -0.111 N  
HETATM   10  O   UNL     1      -5.676   9.559  68.483  1.00  0.00    -0.040 OA 
HETATM   11  C   UNL     1      -7.217  12.063  68.885  1.00  0.00    -0.089 C  
HETATM   12  O   UNL     1      -6.136  11.896  69.406  1.00  0.00    -0.077 OA 
ENDROOT
BRANCH   4  13
HETATM   13  C   UNL     1      -8.134   8.959  64.958  1.00  0.00    -0.137 C  
BRANCH  13  14
HETATM   14  S   UNL     1      -8.692   7.295  65.398  1.00  0.00     0.119 SA 
BRANCH  14  15
HETATM   15  C   UNL     1      -7.425   6.260  64.884  1.00  0.00    -0.084 A  
HETATM   16  N   UNL     1      -6.449   5.752  65.598  1.00  0.00    -0.042 NA 
HETATM   17  N   UNL     1      -5.679   5.028  64.719  1.00  0.00    -0.017 NA 
HETATM   18  C   UNL     1      -8.099   6.113  62.441  1.00  0.00    -0.100 C  
HETATM   19  N   UNL     1      -7.278   5.848  63.591  1.00  0.00    -0.055 NA 
HETATM   20  N   UNL     1      -6.178   5.081  63.491  1.00  0.00    -0.022 NA 
ENDBRANCH  14  15
ENDBRANCH  13  14
ENDBRANCH   4  13
BRANCH   8  21
HETATM   21  N   UNL     1      -8.073  14.390  68.150  1.00  0.00    -0.128 N  
HETATM   22  O   UNL     1      -8.847  15.825  69.746  1.00  0.00    -0.166 OA 
HETATM   23  H   UNL     1      -7.686  14.325  67.209  1.00  0.00     0.000 HD 
HETATM   24  C   UNL     1      -8.274  15.647  68.674  1.00  0.00    -0.168 C  
BRANCH  24  25
HETATM   25  C   UNL     1      -7.737  16.799  67.793  1.00  0.00    -0.168 C  
BRANCH  25  26
HETATM   26  O   UNL     1      -6.550  17.312  68.429  1.00  0.00    -0.164 OA 
HETATM   27  O   UNL     1      -5.257  16.248  66.845  1.00  0.00    -0.339 OA 
HETATM   28  C   UNL     1      -5.388  16.963  67.823  1.00  0.00    -0.122 C  
ENDBRANCH  25  26
BRANCH  25  29
HETATM   29  C   UNL     1      -8.775  17.902  67.625  1.00  0.00    -0.242 A  
HETATM   30  C   UNL     1      -9.351  18.122  66.367  1.00  0.00    -0.274 A  
HETATM   31  C   UNL     1     -10.290  19.137  66.184  1.00  0.00    -0.561 A  
HETATM   32  C   UNL     1     -10.677  19.936  67.257  1.00  0.00    -0.460 A  
HETATM   33  C   UNL     1     -10.128  19.721  68.517  1.00  0.00    -0.555 A  
HETATM   34  C   UNL     1      -9.184  18.711  68.701  1.00  0.00    -0.361 A  
ENDBRANCH  25  29
ENDBRANCH  24  25
ENDBRANCH   8  21
TORSDOF 7
ENDMDL
MODEL      200
REMARK 921   NORMALIZED FREE ENERGY PREDICTED BY IDOCK:   -3.00 KCAL/MOL
REMARK 922        TOTAL FREE ENERGY PREDICTED BY IDOCK:   -5.71 KCAL/MOL
REMARK 923 INTER-LIGAND FREE ENERGY PREDICTED BY IDOCK:   -4.86 KCAL/MOL
REMARK 924 INTRA-LIGAND FREE ENERGY PREDICTED BY IDOCK:   -0.85 KCAL/MOL
REMARK 927      BINDING AFFINITY PREDICTED BY RF-SCORE:    0.00 PKD
ROOT
HETATM    1  C   UNL     1     -10.868   7.901  69.703  1.00  0.00    -0.176 C  
HETATM    2  S   UNL     1     -10.670   7.403  67.970  1.00  0.00    -0.075 SA 
HETATM    3  C   UNL     1     -10.373   5.673  68.386  1.00  0.00    -0.196 C  
HETATM    4  C   UNL     1      -9.340   5.451  69.485  1.00  0.00    -0.166 C  
HETATM    5  OXT UNL     1      -7.001   5.252  71.191  1.00  0.00    -0.052 OA 
HETATM    6  CA  UNL     1      -8.980   6.403  70.395  1.00  0.00    -0.155 C  
HETATM    7  C   UNL     1      -7.809   6.159  71.334  1.00  0.00    -0.108 C  
HETATM    8  CA  UNL     1     -10.587   9.418  69.987  1.00  0.00    -0.235 C  
HETATM    9  N   UNL     1      -9.636   7.608  70.413  1.00  0.00    -0.168 N  
HETATM   10  O   UNL     1      -7.722   6.962  72.413  1.00  0.00    -0.094 OA 
HETATM   11  C   UNL     1      -9.451   8.850  70.912  1.00  0.00    -0.236 C  
HETATM   12  O   UNL     1      -8.624   9.244  71.705  1.00  0.00    -0.309 OA 
ENDROOT
BRANCH   4  13
HETATM   13  C   UNL     1      -8.695   4.074  69.323  1.00  0.00    -0.082 C  
BRANCH  13  14
HETATM   14  S   UNL     1      -7.197   4.006  68.311  1.00  0.00    -0.059 SA 
BRANCH  14  15
HETATM   15  C   UNL     1      -7.760   4.082  66.693  1.00  0.00    -0.089 A  
HETATM   16  N   UNL     1      -7.615   5.055  65.825  1.00  0.00    -0.085 NA 
HETATM   17  N   UNL     1      -8.278   4.648  64.692  1.00  0.00    -0.107 NA 
HETATM   18  C   UNL     1      -8.882   1.806  66.634  1.00  0.00    -0.118 C  
HETATM   19  N   UNL     1      -8.483   3.082  66.109  1.00  0.00    -0.102 NA 
HETATM   20  N   UNL     1      -8.812   3.445  64.855  1.00  0.00    -0.119 NA 
ENDBRANCH  14  15
ENDBRANCH  13  14
ENDBRANCH   4  13
BRANCH   8  21
HETATM   21  N   UNL     1     -10.120  10.189  68.803  1.00  0.00    -0.178 N  
HETATM   22  O   UNL     1     -11.118  12.175  69.319  1.00  0.00    -0.226 OA 
HETATM   23  H   UNL     1      -9.575   9.691  68.099  1.00  0.00     0.000 HD 
HETATM   24  C   UNL     1     -10.371  11.526  68.591  1.00  0.00    -0.210 C  
BRANCH  24  25
HETATM   25  C   UNL     1      -9.652  12.121  67.358  1.00  0.00    -0.177 C  
BRANCH  25  26
HETATM   26  O   UNL     1      -9.580  11.086  66.358  1.00  0.00    -0.189 OA 
HETATM   27  O   UNL     1     -11.708  11.631  65.660  1.00  0.00    -0.269 OA 
HETATM   28  C   UNL     1     -10.682  10.979  65.574  1.00  0.00    -0.148 C  
ENDBRANCH  25  26
BRANCH  25  29
HETATM   29  C   UNL     1      -8.257  12.619  67.714  1.00  0.00    -0.171 A  
HETATM   30  C   UNL     1      -7.145  11.815  67.433  1.00  0.00    -0.126 A  
HETATM   31  C   UNL     1      -5.858  12.241  67.766  1.00  0.00    -0.098 A  
HETATM   32  C   UNL     1      -5.664  13.481  68.369  1.00  0.00    -0.097 A  
HETATM   33  C   UNL     1      -6.756  14.299  68.641  1.00  0.00    -0.092 A  
HETATM   34  C   UNL     1      -8.043  13.873  68.316  1.00  0.00    -0.150 A  
ENDBRANCH  25  29
ENDBRANCH  24  25
ENDBRANCH   8  21
TORSDOF 7
ENDMDL
MODEL      201
REMARK 921   NORMALIZED FREE ENERGY PREDICTED BY IDOCK:   -2.97 KCAL/MOL
REMARK 922        TOTAL FREE ENERGY PREDICTED BY IDOCK:   -5.67 KCAL/MOL
REMARK 923 INTER-LIGAND FREE ENERGY PREDICTED BY IDOCK:   -7.77 KCAL/MOL
REMARK 924 INTRA-LIGAND FREE ENERGY PREDICTED BY IDOCK:    2.10 KCAL/MOL
REMARK 927      BINDING AFFINITY PREDICTED BY RF-SCORE:    0.00 PKD
ROOT
HETATM    1  C   UNL     1     -10.328  15.364  68.139  1.00  0.00    -0.239 C  
HETATM    2  S   UNL     1     -10.600  15.844  66.411  1.00  0.00    -0.268 SA 
HETATM    3  C   UNL     1     -10.751  14.137  65.846  1.00  0.00    -0.298 C  
HETATM    4  C   UNL     1      -9.648  13.205  66.333  1.00  0.00    -0.259 C  
HETATM    5  OXT UNL     1      -7.201  11.765  66.933  1.00  0.00    -0.144 OA 
HETATM    6  CA  UNL     1      -8.867  13.455  67.425  1.00  0.00    -0.214 C  
HETATM    7  C   UNL     1      -7.669  12.569  67.727  1.00  0.00    -0.142 C  
HETATM    8  CA  UNL     1      -9.569  16.430  69.005  1.00  0.00    -0.264 C  
HETATM    9  N   UNL     1      -9.128  14.549  68.209  1.00  0.00    -0.190 N  
HETATM   10  O   UNL     1      -7.158  12.647  68.971  1.00  0.00    -0.094 OA 
HETATM   11  C   UNL     1      -8.501  15.287  69.153  1.00  0.00    -0.234 C  
HETATM   12  O   UNL     1      -7.466  15.062  69.741  1.00  0.00    -0.198 OA 
ENDROOT
BRANCH   4  13
HETATM   13  C   UNL     1      -9.474  12.046  65.350  1.00  0.00    -0.066 C  
BRANCH  13  14
HETATM   14  S   UNL     1     -10.369  10.524  65.742  1.00  0.00    -0.156 SA 
BRANCH  14  15
HETATM   15  C   UNL     1      -9.220   9.271  65.512  1.00  0.00    -0.231 A  
HETATM   16  N   UNL     1      -8.714   8.457  66.407  1.00  0.00    -0.132 NA 
HETATM   17  N   UNL     1      -7.813   7.670  65.730  1.00  0.00    -0.099 NA 
HETATM   18  C   UNL     1      -8.901   9.580  63.013  1.00  0.00    -0.229 C  
HETATM   19  N   UNL     1      -8.660   8.988  64.300  1.00  0.00    -0.178 NA 
HETATM   20  N   UNL     1      -7.772   7.987  64.443  1.00  0.00    -0.122 NA 
ENDBRANCH  14  15
ENDBRANCH  13  14
ENDBRANCH   4  13
BRANCH   8  21
HETATM   21  N   UNL     1      -9.119  17.629  68.248  1.00  0.00    -0.269 N  
HETATM   22  O   UNL     1     -10.408  19.172  69.326  1.00  0.00    -0.155 OA 
HETATM   23  H   UNL     1      -8.460  17.486  67.483  1.00  0.00     0.000 HD 
HETATM   24  C   UNL     1      -9.528  18.918  68.508  1.00  0.00    -0.366 C  
BRANCH  24  25
HETATM   25  C   UNL     1      -8.802  19.998  67.673  1.00  0.00    -0.328 C  
BRANCH  25  26
HETATM   26  O   UNL     1      -9.784  20.615  66.817  1.00  0.00    -0.382 OA 
HETATM   27  O   UNL     1     -10.185  18.572  65.827  1.00  0.00    -0.568 OA 
HETATM   28  C   UNL     1     -10.403  19.763  65.961  1.00  0.00    -0.511 C  
ENDBRANCH  25  26
BRANCH  25  29
HETATM   29  C   UNL     1      -7.673  19.396  66.846  1.00  0.00    -0.270 A  
HETATM   30  C   UNL     1      -6.936  18.323  67.362  1.00  0.00    -0.207 A  
HETATM   31  C   UNL     1      -5.886  17.765  66.632  1.00  0.00    -0.203 A  
HETATM   32  C   UNL     1      -5.568  18.262  65.371  1.00  0.00    -0.216 A  
HETATM   33  C   UNL     1      -6.299  19.318  64.835  1.00  0.00    -0.267 A  
HETATM   34  C   UNL     1      -7.345  19.881  65.566  1.00  0.00    -0.270 A  
ENDBRANCH  25  29
ENDBRANCH  24  25
ENDBRANCH   8  21
TORSDOF 7
ENDMDL
MODEL      202
REMARK 921   NORMALIZED FREE ENERGY PREDICTED BY IDOCK:   -2.91 KCAL/MOL
REMARK 922        TOTAL FREE ENERGY PREDICTED BY IDOCK:   -5.60 KCAL/MOL
REMARK 923 INTER-LIGAND FREE ENERGY PREDICTED BY IDOCK:   -4.34 KCAL/MOL
REMARK 924 INTRA-LIGAND FREE ENERGY PREDICTED BY IDOCK:   -1.26 KCAL/MOL
REMARK 927      BINDING AFFINITY PREDICTED BY RF-SCORE:    0.00 PKD
ROOT
HETATM    1  C   UNL     1      -6.419  14.728  67.697  1.00  0.00    -0.139 C  
HETATM    2  S   UNL     1      -7.753  15.470  66.717  1.00  0.00     0.050 SA 
HETATM    3  C   UNL     1      -6.923  17.067  66.592  1.00  0.00    -0.249 C  
HETATM    4  C   UNL     1      -6.396  17.615  67.914  1.00  0.00    -0.171 C  
HETATM    5  OXT UNL     1      -5.957  18.689  70.574  1.00  0.00    -0.143 OA 
HETATM    6  CA  UNL     1      -6.149  16.844  69.014  1.00  0.00    -0.179 C  
HETATM    7  C   UNL     1      -5.807  17.497  70.344  1.00  0.00    -0.036 C  
HETATM    8  CA  UNL     1      -6.854  13.505  68.578  1.00  0.00    -0.099 C  
HETATM    9  N   UNL     1      -6.276  15.481  68.930  1.00  0.00    -0.101 N  
HETATM   10  O   UNL     1      -5.247  16.706  71.279  1.00  0.00    -0.159 OA 
HETATM   11  C   UNL     1      -6.392  14.426  69.765  1.00  0.00    -0.146 C  
HETATM   12  O   UNL     1      -6.247  14.377  70.967  1.00  0.00    -0.173 OA 
ENDROOT
BRANCH   4  13
HETATM   13  C   UNL     1      -6.322  19.141  67.851  1.00  0.00    -0.215 C  
BRANCH  13  14
HETATM   14  S   UNL     1      -7.638  19.969  66.927  1.00  0.00    -0.293 SA 
BRANCH  14  15
HETATM   15  C   UNL     1      -9.090  19.463  67.689  1.00  0.00    -0.303 A  
HETATM   16  N   UNL     1      -9.246  18.956  68.888  1.00  0.00    -0.306 NA 
HETATM   17  N   UNL     1     -10.587  18.679  69.006  1.00  0.00     0.199 NA 
HETATM   18  C   UNL     1     -10.666  20.014  65.777  1.00  0.00    -0.252 C  
HETATM   19  N   UNL     1     -10.309  19.518  67.078  1.00  0.00    -0.420 NA 
HETATM   20  N   UNL     1     -11.245  19.019  67.906  1.00  0.00     0.087 NA 
ENDBRANCH  14  15
ENDBRANCH  13  14
ENDBRANCH   4  13
BRANCH   8  21
HETATM   21  N   UNL     1      -8.309  13.202  68.534  1.00  0.00    -0.300 N  
HETATM   22  O   UNL     1      -8.174  11.204  67.442  1.00  0.00    -0.126 OA 
HETATM   23  H   UNL     1      -8.950  13.901  68.910  1.00  0.00     0.000 HD 
HETATM   24  C   UNL     1      -8.854  12.045  68.023  1.00  0.00    -0.179 C  
BRANCH  24  25
HETATM   25  C   UNL     1     -10.381  11.914  68.230  1.00  0.00    -0.201 C  
BRANCH  25  26
HETATM   26  O   UNL     1     -10.841  13.136  68.838  1.00  0.00    -0.242 OA 
HETATM   27  O   UNL     1     -12.469  13.314  67.216  1.00  0.00    -0.163 OA 
HETATM   28  C   UNL     1     -11.908  13.707  68.223  1.00  0.00    -0.369 C  
ENDBRANCH  25  26
BRANCH  25  29
HETATM   29  C   UNL     1     -10.723  10.717  69.108  1.00  0.00    -0.264 A  
HETATM   30  C   UNL     1     -10.553  10.809  70.496  1.00  0.00     0.544 A  
HETATM   31  C   UNL     1     -10.842   9.721  71.321  1.00  0.00    -0.276 A  
HETATM   32  C   UNL     1     -11.318   8.533  70.772  1.00  0.00    -0.296 A  
HETATM   33  C   UNL     1     -11.508   8.429  69.397  1.00  0.00     0.519 A  
HETATM   34  C   UNL     1     -11.213   9.513  68.571  1.00  0.00     0.060 A  
ENDBRANCH  25  29
ENDBRANCH  24  25
ENDBRANCH   8  21
TORSDOF 7
ENDMDL
MODEL      203
REMARK 921   NORMALIZED FREE ENERGY PREDICTED BY IDOCK:   -2.87 KCAL/MOL
REMARK 922        TOTAL FREE ENERGY PREDICTED BY IDOCK:   -5.54 KCAL/MOL
REMARK 923 INTER-LIGAND FREE ENERGY PREDICTED BY IDOCK:   -5.18 KCAL/MOL
REMARK 924 INTRA-LIGAND FREE ENERGY PREDICTED BY IDOCK:   -0.36 KCAL/MOL
REMARK 927      BINDING AFFINITY PREDICTED BY RF-SCORE:    0.00 PKD
ROOT
HETATM    1  C   UNL     1     -10.698   8.252  69.566  1.00  0.00    -0.174 C  
HETATM    2  S   UNL     1     -10.843   7.377  67.984  1.00  0.00     0.006 SA 
HETATM    3  C   UNL     1     -10.854   5.748  68.760  1.00  0.00    -0.215 C  
HETATM    4  C   UNL     1      -9.749   5.525  69.788  1.00  0.00    -0.236 C  
HETATM    5  OXT UNL     1      -7.293   5.148  71.285  1.00  0.00    -0.072 OA 
HETATM    6  CA  UNL     1      -9.082   6.535  70.419  1.00  0.00    -0.156 C  
HETATM    7  C   UNL     1      -7.870   6.226  71.284  1.00  0.00    -0.108 C  
HETATM    8  CA  UNL     1     -10.075   9.688  69.467  1.00  0.00    -0.209 C  
HETATM    9  N   UNL     1      -9.468   7.835  70.215  1.00  0.00    -0.160 N  
HETATM   10  O   UNL     1      -7.475   7.191  72.137  1.00  0.00    -0.083 OA 
HETATM   11  C   UNL     1      -8.966   9.076  70.397  1.00  0.00    -0.205 C  
HETATM   12  O   UNL     1      -7.976   9.424  71.003  1.00  0.00    -0.303 OA 
ENDROOT
BRANCH   4  13
HETATM   13  C   UNL     1      -9.429   4.033  69.892  1.00  0.00    -0.194 C  
BRANCH  13  14
HETATM   14  S   UNL     1      -9.283   3.135  68.328  1.00  0.00    -0.193 SA 
BRANCH  14  15
HETATM   15  C   UNL     1      -7.734   2.400  68.391  1.00  0.00    -0.054 A  
HETATM   16  N   UNL     1      -7.048   2.037  69.448  1.00  0.00    -0.036 NA 
HETATM   17  N   UNL     1      -5.860   1.538  68.971  1.00  0.00    -0.022 NA 
HETATM   18  C   UNL     1      -7.320   2.304  65.889  1.00  0.00    -0.066 C  
HETATM   19  N   UNL     1      -6.998   2.118  67.277  1.00  0.00    -0.039 NA 
HETATM   20  N   UNL     1      -5.820   1.584  67.646  1.00  0.00    -0.019 NA 
ENDBRANCH  14  15
ENDBRANCH  13  14
ENDBRANCH   4  13
BRANCH   8  21
HETATM   21  N   UNL     1      -9.625  10.070  68.102  1.00  0.00    -0.138 N  
HETATM   22  O   UNL     1      -7.935  11.474  68.719  1.00  0.00    -0.145 OA 
HETATM   23  H   UNL     1     -10.150   9.701  67.310  1.00  0.00     0.000 HD 
HETATM   24  C   UNL     1      -8.549  10.887  67.832  1.00  0.00    -0.130 C  
BRANCH  24  25
HETATM   25  C   UNL     1      -8.203  11.010  66.330  1.00  0.00    -0.164 C  
BRANCH  25  26
HETATM   26  O   UNL     1      -7.088  11.915  66.217  1.00  0.00     0.201 OA 
HETATM   27  O   UNL     1      -5.658  10.205  66.806  1.00  0.00    -0.044 OA 
HETATM   28  C   UNL     1      -5.878  11.355  66.467  1.00  0.00    -0.138 C  
ENDBRANCH  25  26
BRANCH  25  29
HETATM   29  C   UNL     1      -9.392  11.521  65.525  1.00  0.00    -0.203 A  
HETATM   30  C   UNL     1      -9.678  10.950  64.279  1.00  0.00    -0.347 A  
HETATM   31  C   UNL     1     -10.750  11.413  63.514  1.00  0.00    -0.453 A  
HETATM   32  C   UNL     1     -11.559  12.440  63.992  1.00  0.00    -0.488 A  
HETATM   33  C   UNL     1     -11.299  13.008  65.235  1.00  0.00    -0.325 A  
HETATM   34  C   UNL     1     -10.225  12.553  65.998  1.00  0.00    -0.269 A  
ENDBRANCH  25  29
ENDBRANCH  24  25
ENDBRANCH   8  21
TORSDOF 7
ENDMDL
MODEL      204
REMARK 921   NORMALIZED FREE ENERGY PREDICTED BY IDOCK:   -2.87 KCAL/MOL
REMARK 922        TOTAL FREE ENERGY PREDICTED BY IDOCK:   -5.53 KCAL/MOL
REMARK 923 INTER-LIGAND FREE ENERGY PREDICTED BY IDOCK:   -5.00 KCAL/MOL
REMARK 924 INTRA-LIGAND FREE ENERGY PREDICTED BY IDOCK:   -0.54 KCAL/MOL
REMARK 927      BINDING AFFINITY PREDICTED BY RF-SCORE:    0.00 PKD
ROOT
HETATM    1  C   UNL     1     -10.658   8.374  69.462  1.00  0.00    -0.213 C  
HETATM    2  S   UNL     1     -10.854   7.798  67.753  1.00  0.00     0.046 SA 
HETATM    3  C   UNL     1     -10.661   6.061  68.200  1.00  0.00    -0.262 C  
HETATM    4  C   UNL     1      -9.462   5.762  69.094  1.00  0.00    -0.157 C  
HETATM    5  OXT UNL     1      -6.870   5.362  70.334  1.00  0.00    -0.048 OA 
HETATM    6  CA  UNL     1      -8.836   6.699  69.865  1.00  0.00    -0.144 C  
HETATM    7  C   UNL     1      -7.537   6.359  70.577  1.00  0.00    -0.096 C  
HETATM    8  CA  UNL     1     -10.172   9.859  69.603  1.00  0.00    -0.237 C  
HETATM    9  N   UNL     1      -9.348   7.969  69.940  1.00  0.00    -0.156 N  
HETATM   10  O   UNL     1      -7.159   7.182  71.573  1.00  0.00    -0.067 OA 
HETATM   11  C   UNL     1      -8.943   9.199  70.326  1.00  0.00    -0.217 C  
HETATM   12  O   UNL     1      -7.942   9.526  70.924  1.00  0.00    -0.297 OA 
ENDROOT
BRANCH   4  13
HETATM   13  C   UNL     1      -9.007   4.317  68.889  1.00  0.00    -0.109 C  
BRANCH  13  14
HETATM   14  S   UNL     1      -8.784   3.785  67.174  1.00  0.00    -0.121 SA 
BRANCH  14  15
HETATM   15  C   UNL     1      -7.170   3.208  67.103  1.00  0.00    -0.058 A  
HETATM   16  N   UNL     1      -6.443   2.702  68.071  1.00  0.00    -0.032 NA 
HETATM   17  N   UNL     1      -5.215   2.433  67.515  1.00  0.00    -0.012 NA 
HETATM   18  C   UNL     1      -6.768   3.675  64.641  1.00  0.00    -0.044 C  
HETATM   19  N   UNL     1      -6.418   3.238  65.964  1.00  0.00    -0.032 NA 
HETATM   20  N   UNL     1      -5.190   2.757  66.229  1.00  0.00    -0.008 NA 
ENDBRANCH  14  15
ENDBRANCH  13  14
ENDBRANCH   4  13
BRANCH   8  21
HETATM   21  N   UNL     1      -9.868  10.531  68.312  1.00  0.00    -0.146 N  
HETATM   22  O   UNL     1     -11.994  11.179  67.795  1.00  0.00    -0.630 OA 
HETATM   23  H   UNL     1      -8.905  10.500  67.977  1.00  0.00     0.000 HD 
HETATM   24  C   UNL     1     -10.794  11.193  67.536  1.00  0.00    -0.254 C  
BRANCH  24  25
HETATM   25  C   UNL     1     -10.193  11.930  66.316  1.00  0.00    -0.216 C  
BRANCH  25  26
HETATM   26  O   UNL     1      -9.525  10.945  65.503  1.00  0.00    -0.191 OA 
HETATM   27  O   UNL     1     -11.409  10.776  64.185  1.00  0.00     0.349 OA 
HETATM   28  C   UNL     1     -10.261  10.477  64.463  1.00  0.00    -0.285 C  
ENDBRANCH  25  26
BRANCH  25  29
HETATM   29  C   UNL     1      -9.218  13.018  66.747  1.00  0.00    -0.229 A  
HETATM   30  C   UNL     1      -9.415  14.334  66.309  1.00  0.00    -0.277 A  
HETATM   31  C   UNL     1      -8.527  15.346  66.676  1.00  0.00    -0.296 A  
HETATM   32  C   UNL     1      -7.439  15.059  67.497  1.00  0.00    -0.226 A  
HETATM   33  C   UNL     1      -7.237  13.761  67.955  1.00  0.00    -0.156 A  
HETATM   34  C   UNL     1      -8.120  12.747  67.584  1.00  0.00    -0.175 A  
ENDBRANCH  25  29
ENDBRANCH  24  25
ENDBRANCH   8  21
TORSDOF 7
ENDMDL
MODEL      205
REMARK 921   NORMALIZED FREE ENERGY PREDICTED BY IDOCK:   -2.87 KCAL/MOL
REMARK 922        TOTAL FREE ENERGY PREDICTED BY IDOCK:   -5.53 KCAL/MOL
REMARK 923 INTER-LIGAND FREE ENERGY PREDICTED BY IDOCK:   -5.62 KCAL/MOL
REMARK 924 INTRA-LIGAND FREE ENERGY PREDICTED BY IDOCK:    0.09 KCAL/MOL
REMARK 927      BINDING AFFINITY PREDICTED BY RF-SCORE:    0.00 PKD
ROOT
HETATM    1  C   UNL     1      -5.415   7.814  70.515  1.00  0.00    -0.023 C  
HETATM    2  S   UNL     1      -6.841   7.182  69.588  1.00  0.00    -0.051 SA 
HETATM    3  C   UNL     1      -6.650   8.385  68.258  1.00  0.00    -0.060 C  
HETATM    4  C   UNL     1      -6.475   9.827  68.724  1.00  0.00    -0.046 C  
HETATM    5  OXT UNL     1      -6.688  12.511  69.806  1.00  0.00    -0.012 OA 
HETATM    6  CA  UNL     1      -6.055  10.177  69.975  1.00  0.00    -0.065 C  
HETATM    7  C   UNL     1      -6.091  11.632  70.414  1.00  0.00    -0.074 C  
HETATM    8  CA  UNL     1      -5.442   7.505  72.052  1.00  0.00    -0.036 C  
HETATM    9  N   UNL     1      -5.664   9.203  70.857  1.00  0.00    -0.038 N  
HETATM   10  O   UNL     1      -5.359  11.955  71.497  1.00  0.00    -0.343 OA 
HETATM   11  C   UNL     1      -5.453   9.070  72.185  1.00  0.00    -0.063 C  
HETATM   12  O   UNL     1      -5.402   9.923  73.044  1.00  0.00    -0.295 OA 
ENDROOT
BRANCH   4  13
HETATM   13  C   UNL     1      -6.963  10.787  67.638  1.00  0.00    -0.082 C  
BRANCH  13  14
HETATM   14  S   UNL     1      -8.695  10.623  67.144  1.00  0.00    -0.130 SA 
BRANCH  14  15
HETATM   15  C   UNL     1      -9.183  12.214  66.731  1.00  0.00    -0.207 A  
HETATM   16  N   UNL     1      -8.932  13.334  67.366  1.00  0.00    -0.204 NA 
HETATM   17  N   UNL     1      -9.576  14.320  66.657  1.00  0.00    -0.278 NA 
HETATM   18  C   UNL     1     -10.464  11.621  64.620  1.00  0.00    -0.302 C  
HETATM   19  N   UNL     1      -9.952  12.497  65.639  1.00  0.00    -0.259 NA 
HETATM   20  N   UNL     1     -10.201  13.819  65.600  1.00  0.00    -0.305 NA 
ENDBRANCH  14  15
ENDBRANCH  13  14
ENDBRANCH   4  13
BRANCH   8  21
HETATM   21  N   UNL     1      -6.674   6.815  72.520  1.00  0.00    -0.062 N  
HETATM   22  O   UNL     1      -7.962   8.672  72.837  1.00  0.00    -0.381 OA 
HETATM   23  H   UNL     1      -6.638   5.802  72.627  1.00  0.00     0.000 HD 
HETATM   24  C   UNL     1      -7.860   7.448  72.818  1.00  0.00    -0.092 C  
BRANCH  24  25
HETATM   25  C   UNL     1      -9.031   6.490  73.142  1.00  0.00    -0.128 C  
BRANCH  25  26
HETATM   26  O   UNL     1      -8.537   5.143  73.002  1.00  0.00    -0.114 OA 
HETATM   27  O   UNL     1     -10.252   4.389  74.345  1.00  0.00    -0.186 OA 
HETATM   28  C   UNL     1      -9.270   4.202  73.649  1.00  0.00    -0.100 C  
ENDBRANCH  25  26
BRANCH  25  29
HETATM   29  C   UNL     1     -10.215   6.725  72.213  1.00  0.00    -0.210 A  
HETATM   30  C   UNL     1     -10.203   6.173  70.926  1.00  0.00    -0.250 A  
HETATM   31  C   UNL     1     -11.268   6.389  70.050  1.00  0.00    -0.475 A  
HETATM   32  C   UNL     1     -12.365   7.145  70.454  1.00  0.00    -0.008 A  
HETATM   33  C   UNL     1     -12.401   7.688  71.734  1.00  0.00    -0.349 A  
HETATM   34  C   UNL     1     -11.335   7.479  72.609  1.00  0.00    -0.395 A  
ENDBRANCH  25  29
ENDBRANCH  24  25
ENDBRANCH   8  21
TORSDOF 7
ENDMDL
MODEL      206
REMARK 921   NORMALIZED FREE ENERGY PREDICTED BY IDOCK:   -2.63 KCAL/MOL
REMARK 922        TOTAL FREE ENERGY PREDICTED BY IDOCK:   -5.20 KCAL/MOL
REMARK 923 INTER-LIGAND FREE ENERGY PREDICTED BY IDOCK:   -5.44 KCAL/MOL
REMARK 924 INTRA-LIGAND FREE ENERGY PREDICTED BY IDOCK:    0.24 KCAL/MOL
REMARK 927      BINDING AFFINITY PREDICTED BY RF-SCORE:    0.00 PKD
ROOT
HETATM    1  C   UNL     1     -11.105   6.592  70.142  1.00  0.00    -0.329 C  
HETATM    2  S   UNL     1     -10.600   7.785  71.412  1.00  0.00    -0.215 SA 
HETATM    3  C   UNL     1     -10.841   9.207  70.329  1.00  0.00    -0.246 C  
HETATM    4  C   UNL     1     -10.204   9.073  68.950  1.00  0.00    -0.223 C  
HETATM    5  OXT UNL     1      -8.491   8.819  66.622  1.00  0.00    -0.105 OA 
HETATM    6  CA  UNL     1      -9.869   7.878  68.380  1.00  0.00    -0.173 C  
HETATM    7  C   UNL     1      -9.068   7.846  67.088  1.00  0.00    -0.137 C  
HETATM    8  CA  UNL     1     -10.550   5.139  70.348  1.00  0.00    -0.154 C  
HETATM    9  N   UNL     1     -10.200   6.707  69.013  1.00  0.00    -0.168 N  
HETATM   10  O   UNL     1      -9.067   6.685  66.406  1.00  0.00    -0.147 OA 
HETATM   11  C   UNL     1      -9.856   5.401  68.963  1.00  0.00    -0.168 C  
HETATM   12  O   UNL     1      -9.187   4.814  68.141  1.00  0.00    -0.113 OA 
ENDROOT
BRANCH   4  13
HETATM   13  C   UNL     1      -9.888  10.458  68.386  1.00  0.00    -0.162 C  
BRANCH  13  14
HETATM   14  S   UNL     1     -10.996  11.066  67.091  1.00  0.00    -0.261 SA 
BRANCH  14  15
HETATM   15  C   UNL     1     -10.888  12.775  67.192  1.00  0.00    -0.256 A  
HETATM   16  N   UNL     1     -11.021  13.538  68.251  1.00  0.00    -0.249 NA 
HETATM   17  N   UNL     1     -10.888  14.830  67.801  1.00  0.00    -0.272 NA 
HETATM   18  C   UNL     1     -10.426  13.215  64.735  1.00  0.00    -0.372 C  
HETATM   19  N   UNL     1     -10.661  13.572  66.108  1.00  0.00    -0.286 NA 
HETATM   20  N   UNL     1     -10.668  14.861  66.493  1.00  0.00    -0.303 NA 
ENDBRANCH  14  15
ENDBRANCH  13  14
ENDBRANCH   4  13
BRANCH   8  21
HETATM   21  N   UNL     1      -9.629   4.991  71.506  1.00  0.00    -0.152 N  
HETATM   22  O   UNL     1      -7.702   4.674  70.326  1.00  0.00    -0.056 OA 
HETATM   23  H   UNL     1     -10.037   5.011  72.440  1.00  0.00     0.000 HD 
HETATM   24  C   UNL     1      -8.265   4.830  71.406  1.00  0.00    -0.103 C  
BRANCH  24  25
HETATM   25  C   UNL     1      -7.520   4.846  72.762  1.00  0.00    -0.091 C  
BRANCH  25  26
HETATM   26  O   UNL     1      -8.473   4.486  73.782  1.00  0.00    -0.103 OA 
HETATM   27  O   UNL     1      -7.489   2.407  73.947  1.00  0.00    -0.039 OA 
HETATM   28  C   UNL     1      -8.313   3.238  74.289  1.00  0.00    -0.070 C  
ENDBRANCH  25  26
BRANCH  25  29
HETATM   29  C   UNL     1      -6.919   6.216  73.051  1.00  0.00    -0.079 A  
HETATM   30  C   UNL     1      -6.240   6.900  72.034  1.00  0.00    -0.041 A  
HETATM   31  C   UNL     1      -5.665   8.148  72.278  1.00  0.00    -0.040 A  
HETATM   32  C   UNL     1      -5.774   8.735  73.535  1.00  0.00    -0.111 A  
HETATM   33  C   UNL     1      -6.459   8.078  74.553  1.00  0.00    -0.126 A  
HETATM   34  C   UNL     1      -7.028   6.828  74.313  1.00  0.00    -0.090 A  
ENDBRANCH  25  29
ENDBRANCH  24  25
ENDBRANCH   8  21
TORSDOF 7
ENDMDL
MODEL      207
REMARK 921   NORMALIZED FREE ENERGY PREDICTED BY IDOCK:   -2.58 KCAL/MOL
REMARK 922        TOTAL FREE ENERGY PREDICTED BY IDOCK:   -5.12 KCAL/MOL
REMARK 923 INTER-LIGAND FREE ENERGY PREDICTED BY IDOCK:   -5.44 KCAL/MOL
REMARK 924 INTRA-LIGAND FREE ENERGY PREDICTED BY IDOCK:    0.32 KCAL/MOL
REMARK 927      BINDING AFFINITY PREDICTED BY RF-SCORE:    0.00 PKD
ROOT
HETATM    1  C   UNL     1      -7.189  11.495  67.155  1.00  0.00    -0.140 C  
HETATM    2  S   UNL     1      -8.985  11.709  67.021  1.00  0.00    -0.188 SA 
HETATM    3  C   UNL     1      -8.887  13.509  67.083  1.00  0.00    -0.226 C  
HETATM    4  C   UNL     1      -8.020  14.061  68.209  1.00  0.00    -0.146 C  
HETATM    5  OXT UNL     1      -6.774  14.879  70.699  1.00  0.00    -0.001 OA 
HETATM    6  CA  UNL     1      -7.051  13.341  68.846  1.00  0.00    -0.079 C  
HETATM    7  C   UNL     1      -6.366  13.906  70.081  1.00  0.00    -0.083 C  
HETATM    8  CA  UNL     1      -6.733  10.105  67.721  1.00  0.00    -0.071 C  
HETATM    9  N   UNL     1      -6.746  12.077  68.409  1.00  0.00    -0.060 N  
HETATM   10  O   UNL     1      -5.210  13.322  70.451  1.00  0.00    -0.097 OA 
HETATM   11  C   UNL     1      -6.104  10.979  68.866  1.00  0.00    -0.041 C  
HETATM   12  O   UNL     1      -5.410  10.848  69.850  1.00  0.00    -0.041 OA 
ENDROOT
BRANCH   4  13
HETATM   13  C   UNL     1      -8.490  15.466  68.587  1.00  0.00    -0.170 C  
BRANCH  13  14
HETATM   14  S   UNL     1      -7.206  16.734  68.711  1.00  0.00    -0.228 SA 
BRANCH  14  15
HETATM   15  C   UNL     1      -7.414  17.703  67.312  1.00  0.00    -0.191 A  
HETATM   16  N   UNL     1      -6.791  17.616  66.161  1.00  0.00    -0.280 NA 
HETATM   17  N   UNL     1      -7.285  18.641  65.388  1.00  0.00    -0.501 NA 
HETATM   18  C   UNL     1      -9.215  19.231  68.242  1.00  0.00    -0.341 C  
HETATM   19  N   UNL     1      -8.291  18.748  67.253  1.00  0.00    -0.266 NA 
HETATM   20  N   UNL     1      -8.201  19.337  66.047  1.00  0.00    -0.440 NA 
ENDBRANCH  14  15
ENDBRANCH  13  14
ENDBRANCH   4  13
BRANCH   8  21
HETATM   21  N   UNL     1      -7.850   9.215  68.138  1.00  0.00    -0.099 N  
HETATM   22  O   UNL     1      -8.019   8.011  66.207  1.00  0.00    -0.099 OA 
HETATM   23  H   UNL     1      -8.261   9.371  69.058  1.00  0.00     0.000 HD 
HETATM   24  C   UNL     1      -8.367   8.195  67.370  1.00  0.00    -0.122 C  
BRANCH  24  25
HETATM   25  C   UNL     1      -9.424   7.327  68.092  1.00  0.00    -0.133 C  
BRANCH  25  26
HETATM   26  O   UNL     1      -9.018   7.210  69.470  1.00  0.00    -0.140 OA 
HETATM   27  O   UNL     1     -11.229   7.317  70.116  1.00  0.00    -0.269 OA 
HETATM   28  C   UNL     1     -10.041   7.201  70.362  1.00  0.00    -0.191 C  
ENDBRANCH  25  26
BRANCH  25  29
HETATM   29  C   UNL     1      -9.545   5.950  67.451  1.00  0.00    -0.117 A  
HETATM   30  C   UNL     1      -8.904   4.855  68.044  1.00  0.00    -0.112 A  
HETATM   31  C   UNL     1      -8.984   3.587  67.467  1.00  0.00    -0.170 A  
HETATM   32  C   UNL     1      -9.719   3.394  66.299  1.00  0.00     0.019 A  
HETATM   33  C   UNL     1     -10.375   4.467  65.706  1.00  0.00    -0.287 A  
HETATM   34  C   UNL     1     -10.290   5.737  66.277  1.00  0.00    -0.131 A  
ENDBRANCH  25  29
ENDBRANCH  24  25
ENDBRANCH   8  21
TORSDOF 7
ENDMDL
MODEL      208
REMARK 921   NORMALIZED FREE ENERGY PREDICTED BY IDOCK:   -2.54 KCAL/MOL
REMARK 922        TOTAL FREE ENERGY PREDICTED BY IDOCK:   -5.08 KCAL/MOL
REMARK 923 INTER-LIGAND FREE ENERGY PREDICTED BY IDOCK:   -4.74 KCAL/MOL
REMARK 924 INTRA-LIGAND FREE ENERGY PREDICTED BY IDOCK:   -0.33 KCAL/MOL
REMARK 927      BINDING AFFINITY PREDICTED BY RF-SCORE:    0.00 PKD
ROOT
HETATM    1  C   UNL     1      -8.444   7.213  69.987  1.00  0.00    -0.140 C  
HETATM    2  S   UNL     1      -8.290   8.234  68.496  1.00  0.00    -0.129 SA 
HETATM    3  C   UNL     1      -8.756   9.752  69.353  1.00  0.00    -0.174 C  
HETATM    4  C   UNL     1     -10.010   9.638  70.212  1.00  0.00    -0.326 C  
HETATM    5  OXT UNL     1     -12.668   9.338  71.338  1.00  0.00    -0.315 OA 
HETATM    6  CA  UNL     1     -10.509   8.455  70.678  1.00  0.00    -0.200 C  
HETATM    7  C   UNL     1     -11.865   8.416  71.365  1.00  0.00    -0.296 C  
HETATM    8  CA  UNL     1      -8.704   5.690  69.715  1.00  0.00    -0.125 C  
HETATM    9  N   UNL     1      -9.814   7.293  70.463  1.00  0.00    -0.183 N  
HETATM   10  O   UNL     1     -12.142   7.317  72.093  1.00  0.00    -0.293 OA 
HETATM   11  C   UNL     1     -10.039   5.961  70.498  1.00  0.00    -0.197 C  
HETATM   12  O   UNL     1     -10.996   5.355  70.926  1.00  0.00    -0.184 OA 
ENDROOT
BRANCH   4  13
HETATM   13  C   UNL     1     -10.673  11.009  70.349  1.00  0.00     0.612 C  
BRANCH  13  14
HETATM   14  S   UNL     1     -12.010  11.371  69.186  1.00  0.00    -0.285 SA 
BRANCH  14  15
HETATM   15  C   UNL     1     -11.989  13.078  69.015  1.00  0.00    -0.267 A  
HETATM   16  N   UNL     1     -12.006  13.991  69.956  1.00  0.00    -0.318 NA 
HETATM   17  N   UNL     1     -12.018  15.201  69.305  1.00  0.00    -0.309 NA 
HETATM   18  C   UNL     1     -11.928  13.147  66.478  1.00  0.00    -0.398 C  
HETATM   19  N   UNL     1     -11.974  13.704  67.802  1.00  0.00    -0.367 NA 
HETATM   20  N   UNL     1     -11.999  15.036  67.989  1.00  0.00    -0.233 NA 
ENDBRANCH  14  15
ENDBRANCH  13  14
ENDBRANCH   4  13
BRANCH   8  21
HETATM   21  N   UNL     1      -8.866   5.340  68.278  1.00  0.00    -0.105 N  
HETATM   22  O   UNL     1      -6.704   4.743  67.862  1.00  0.00    -0.051 OA 
HETATM   23  H   UNL     1      -9.784   5.485  67.857  1.00  0.00     0.000 HD 
HETATM   24  C   UNL     1      -7.867   4.836  67.477  1.00  0.00    -0.094 C  
BRANCH  24  25
HETATM   25  C   UNL     1      -8.332   4.419  66.062  1.00  0.00    -0.113 C  
BRANCH  25  26
HETATM   26  O   UNL     1      -9.457   3.532  66.221  1.00  0.00    -0.181 OA 
HETATM   27  O   UNL     1     -10.373   4.365  64.277  1.00  0.00    -0.053 OA 
HETATM   28  C   UNL     1     -10.384   3.611  65.234  1.00  0.00     0.167 C  
ENDBRANCH  25  26
BRANCH  25  29
HETATM   29  C   UNL     1      -7.214   3.734  65.287  1.00  0.00    -0.067 A  
HETATM   30  C   UNL     1      -7.165   2.334  65.241  1.00  0.00    -0.058 A  
HETATM   31  C   UNL     1      -6.141   1.682  64.554  1.00  0.00    -0.017 A  
HETATM   32  C   UNL     1      -5.162   2.418  63.890  1.00  0.00    -0.008 A  
HETATM   33  C   UNL     1      -5.205   3.809  63.912  1.00  0.00    -0.009 A  
HETATM   34  C   UNL     1      -6.224   4.463  64.604  1.00  0.00    -0.030 A  
ENDBRANCH  25  29
ENDBRANCH  24  25
ENDBRANCH   8  21
TORSDOF 7
ENDMDL
MODEL      209
REMARK 921   NORMALIZED FREE ENERGY PREDICTED BY IDOCK:   -2.50 KCAL/MOL
REMARK 922        TOTAL FREE ENERGY PREDICTED BY IDOCK:   -5.02 KCAL/MOL
REMARK 923 INTER-LIGAND FREE ENERGY PREDICTED BY IDOCK:   -4.95 KCAL/MOL
REMARK 924 INTRA-LIGAND FREE ENERGY PREDICTED BY IDOCK:   -0.07 KCAL/MOL
REMARK 927      BINDING AFFINITY PREDICTED BY RF-SCORE:    0.00 PKD
ROOT
HETATM    1  C   UNL     1     -10.682   8.266  69.583  1.00  0.00    -0.194 C  
HETATM    2  S   UNL     1     -10.742   7.428  67.976  1.00  0.00    -0.075 SA 
HETATM    3  C   UNL     1     -10.749   5.781  68.711  1.00  0.00    -0.247 C  
HETATM    4  C   UNL     1      -9.684   5.555  69.779  1.00  0.00    -0.236 C  
HETATM    5  OXT UNL     1      -7.285   5.193  71.369  1.00  0.00    -0.064 OA 
HETATM    6  CA  UNL     1      -9.066   6.563  70.462  1.00  0.00    -0.152 C  
HETATM    7  C   UNL     1      -7.885   6.259  71.370  1.00  0.00    -0.104 C  
HETATM    8  CA  UNL     1     -10.087   9.717  69.544  1.00  0.00    -0.217 C  
HETATM    9  N   UNL     1      -9.471   7.859  70.273  1.00  0.00    -0.163 N  
HETATM   10  O   UNL     1      -7.547   7.210  72.261  1.00  0.00    -0.087 OA 
HETATM   11  C   UNL     1      -9.005   9.106  70.505  1.00  0.00    -0.232 C  
HETATM   12  O   UNL     1      -8.049   9.459  71.161  1.00  0.00    -0.322 OA 
ENDROOT
BRANCH   4  13
HETATM   13  C   UNL     1      -9.336   4.068  69.861  1.00  0.00    -0.170 C  
BRANCH  13  14
HETATM   14  S   UNL     1      -9.076   3.220  68.285  1.00  0.00    -0.176 SA 
BRANCH  14  15
HETATM   15  C   UNL     1      -7.515   2.520  68.419  1.00  0.00    -0.048 A  
HETATM   16  N   UNL     1      -6.883   2.144  69.504  1.00  0.00    -0.033 NA 
HETATM   17  N   UNL     1      -5.656   1.687  69.084  1.00  0.00    -0.013 NA 
HETATM   18  C   UNL     1      -6.954   2.505  65.943  1.00  0.00    -0.052 C  
HETATM   19  N   UNL     1      -6.709   2.288  67.342  1.00  0.00    -0.039 NA 
HETATM   20  N   UNL     1      -5.540   1.771  67.765  1.00  0.00    -0.017 NA 
ENDBRANCH  14  15
ENDBRANCH  13  14
ENDBRANCH   4  13
BRANCH   8  21
HETATM   21  N   UNL     1      -9.589  10.143  68.209  1.00  0.00    -0.139 N  
HETATM   22  O   UNL     1     -11.614  10.364  67.182  1.00  0.00    -0.166 OA 
HETATM   23  H   UNL     1      -8.579  10.178  68.071  1.00  0.00     0.000 HD 
HETATM   24  C   UNL     1     -10.393  10.492  67.148  1.00  0.00    -0.235 C  
BRANCH  24  25
HETATM   25  C   UNL     1      -9.627  11.036  65.919  1.00  0.00    -0.218 C  
BRANCH  25  26
HETATM   26  O   UNL     1     -10.604  11.370  64.914  1.00  0.00    -0.289 OA 
HETATM   27  O   UNL     1     -10.974  13.389  65.963  1.00  0.00    -0.273 OA 
HETATM   28  C   UNL     1     -11.176  12.591  65.064  1.00  0.00    -0.306 C  
ENDBRANCH  25  26
BRANCH  25  29
HETATM   29  C   UNL     1      -8.636  10.011  65.383  1.00  0.00    -0.162 A  
HETATM   30  C   UNL     1      -7.358  10.428  64.988  1.00  0.00    -0.070 A  
HETATM   31  C   UNL     1      -6.438   9.512  64.477  1.00  0.00    -0.093 A  
HETATM   32  C   UNL     1      -6.777   8.165  64.368  1.00  0.00    -0.065 A  
HETATM   33  C   UNL     1      -8.035   7.731  64.771  1.00  0.00    -0.142 A  
HETATM   34  C   UNL     1      -8.959   8.646  65.275  1.00  0.00    -0.150 A  
ENDBRANCH  25  29
ENDBRANCH  24  25
ENDBRANCH   8  21
TORSDOF 7
ENDMDL
MODEL      210
REMARK 921   NORMALIZED FREE ENERGY PREDICTED BY IDOCK:   -2.42 KCAL/MOL
REMARK 922        TOTAL FREE ENERGY PREDICTED BY IDOCK:   -4.90 KCAL/MOL
REMARK 923 INTER-LIGAND FREE ENERGY PREDICTED BY IDOCK:   -4.12 KCAL/MOL
REMARK 924 INTRA-LIGAND FREE ENERGY PREDICTED BY IDOCK:   -0.78 KCAL/MOL
REMARK 927      BINDING AFFINITY PREDICTED BY RF-SCORE:    0.00 PKD
ROOT
HETATM    1  C   UNL     1     -11.813   8.867  69.569  1.00  0.00     0.876 C  
HETATM    2  S   UNL     1     -11.030   9.983  70.764  1.00  0.00    -0.233 SA 
HETATM    3  C   UNL     1     -11.251  11.437  69.719  1.00  0.00    -0.192 C  
HETATM    4  C   UNL     1     -10.810  11.253  68.271  1.00  0.00    -0.249 C  
HETATM    5  OXT UNL     1      -9.439  10.849  65.746  1.00  0.00    -0.193 OA 
HETATM    6  CA  UNL     1     -10.678  10.036  67.664  1.00  0.00    -0.284 C  
HETATM    7  C   UNL     1     -10.052   9.936  66.282  1.00  0.00    -0.241 C  
HETATM    8  CA  UNL     1     -11.394   7.361  69.705  1.00  0.00     0.044 C  
HETATM    9  N   UNL     1     -11.049   8.899  68.335  1.00  0.00     0.149 N  
HETATM   10  O   UNL     1     -10.261   8.790  65.606  1.00  0.00     0.244 OA 
HETATM   11  C   UNL     1     -10.855   7.565  68.243  1.00  0.00     0.008 C  
HETATM   12  O   UNL     1     -10.360   6.921  67.344  1.00  0.00    -0.179 OA 
ENDROOT
BRANCH   4  13
HETATM   13  C   UNL     1     -10.422  12.604  67.670  1.00  0.00    -0.219 C  
BRANCH  13  14
HETATM   14  S   UNL     1     -11.753  13.539  66.877  1.00  0.00    -0.404 SA 
BRANCH  14  15
HETATM   15  C   UNL     1     -11.012  14.995  66.356  1.00  0.00    -0.336 A  
HETATM   16  N   UNL     1     -10.168  15.758  67.008  1.00  0.00    -0.274 NA 
HETATM   17  N   UNL     1      -9.904  16.821  66.178  1.00  0.00    -0.348 NA 
HETATM   18  C   UNL     1     -12.085  15.099  64.058  1.00  0.00    -0.049 C  
HETATM   19  N   UNL     1     -11.257  15.561  65.138  1.00  0.00    -0.345 NA 
HETATM   20  N   UNL     1     -10.564  16.710  65.034  1.00  0.00    -0.703 NA 
ENDBRANCH  14  15
ENDBRANCH  13  14
ENDBRANCH   4  13
BRANCH   8  21
HETATM   21  N   UNL     1     -10.356   7.102  70.738  1.00  0.00    -0.206 N  
HETATM   22  O   UNL     1     -11.213   5.150  71.551  1.00  0.00     0.030 OA 
HETATM   23  H   UNL     1      -9.625   7.802  70.860  1.00  0.00     0.000 HD 
HETATM   24  C   UNL     1     -10.312   5.985  71.541  1.00  0.00    -0.214 C  
BRANCH  24  25
HETATM   25  C   UNL     1      -9.050   5.888  72.431  1.00  0.00    -0.140 C  
BRANCH  25  26
HETATM   26  O   UNL     1      -8.422   7.185  72.431  1.00  0.00    -0.112 OA 
HETATM   27  O   UNL     1      -9.404   7.645  74.465  1.00  0.00     0.045 OA 
HETATM   28  C   UNL     1      -8.682   7.939  73.529  1.00  0.00    -0.261 C  
ENDBRANCH  25  26
BRANCH  25  29
HETATM   29  C   UNL     1      -8.086   4.826  71.916  1.00  0.00    -0.109 A  
HETATM   30  C   UNL     1      -6.794   4.750  72.452  1.00  0.00    -0.057 A  
HETATM   31  C   UNL     1      -5.887   3.798  71.985  1.00  0.00    -0.009 A  
HETATM   32  C   UNL     1      -6.263   2.901  70.989  1.00  0.00    -0.019 A  
HETATM   33  C   UNL     1      -7.547   2.952  70.456  1.00  0.00    -0.043 A  
HETATM   34  C   UNL     1      -8.454   3.907  70.916  1.00  0.00    -0.098 A  
ENDBRANCH  25  29
ENDBRANCH  24  25
ENDBRANCH   8  21
TORSDOF 7
ENDMDL
MODEL      211
REMARK 921   NORMALIZED FREE ENERGY PREDICTED BY IDOCK:   -2.38 KCAL/MOL
REMARK 922        TOTAL FREE ENERGY PREDICTED BY IDOCK:   -4.84 KCAL/MOL
REMARK 923 INTER-LIGAND FREE ENERGY PREDICTED BY IDOCK:   -4.99 KCAL/MOL
REMARK 924 INTRA-LIGAND FREE ENERGY PREDICTED BY IDOCK:    0.14 KCAL/MOL
REMARK 927      BINDING AFFINITY PREDICTED BY RF-SCORE:    0.00 PKD
ROOT
HETATM    1  C   UNL     1     -10.647   5.862  69.851  1.00  0.00    -0.299 C  
HETATM    2  S   UNL     1     -10.133   7.537  70.321  1.00  0.00    -0.196 SA 
HETATM    3  C   UNL     1     -10.704   8.266  68.772  1.00  0.00    -0.042 C  
HETATM    4  C   UNL     1     -10.250   7.529  67.517  1.00  0.00    -0.288 C  
HETATM    5  OXT UNL     1      -8.854   6.294  65.293  1.00  0.00    -0.069 OA 
HETATM    6  CA  UNL     1      -9.843   6.225  67.504  1.00  0.00    -0.120 C  
HETATM    7  C   UNL     1      -9.228   5.629  66.248  1.00  0.00    -0.156 C  
HETATM    8  CA  UNL     1      -9.883   4.709  70.592  1.00  0.00    -0.226 C  
HETATM    9  N   UNL     1      -9.927   5.477  68.650  1.00  0.00    -0.154 N  
HETATM   10  O   UNL     1      -9.169   4.285  66.184  1.00  0.00    -0.129 OA 
HETATM   11  C   UNL     1      -9.425   4.322  69.140  1.00  0.00    -0.175 C  
HETATM   12  O   UNL     1      -8.804   3.451  68.571  1.00  0.00    -0.094 OA 
ENDROOT
BRANCH   4  13
HETATM   13  C   UNL     1     -10.198   8.498  66.335  1.00  0.00    -0.123 C  
BRANCH  13  14
HETATM   14  S   UNL     1      -9.648  10.181  66.704  1.00  0.00    -0.192 SA 
BRANCH  14  15
HETATM   15  C   UNL     1      -9.935  11.060  65.259  1.00  0.00    -0.266 A  
HETATM   16  N   UNL     1      -9.503  10.800  64.049  1.00  0.00    -0.248 NA 
HETATM   17  N   UNL     1      -9.972  11.820  63.256  1.00  0.00    -0.427 NA 
HETATM   18  C   UNL     1     -11.374  12.888  66.275  1.00  0.00    -0.323 C  
HETATM   19  N   UNL     1     -10.672  12.208  65.221  1.00  0.00    -0.278 NA 
HETATM   20  N   UNL     1     -10.687  12.685  63.963  1.00  0.00    -0.398 NA 
ENDBRANCH  14  15
ENDBRANCH  13  14
ENDBRANCH   4  13
BRANCH   8  21
HETATM   21  N   UNL     1      -8.801   5.173  71.500  1.00  0.00    -0.132 N  
HETATM   22  O   UNL     1      -7.029   4.636  70.166  1.00  0.00    -0.045 OA 
HETATM   23  H   UNL     1      -9.072   5.529  72.417  1.00  0.00     0.000 HD 
HETATM   24  C   UNL     1      -7.459   5.157  71.192  1.00  0.00    -0.079 C  
BRANCH  24  25
HETATM   25  C   UNL     1      -6.553   5.829  72.251  1.00  0.00    -0.062 C  
BRANCH  25  26
HETATM   26  O   UNL     1      -7.271   5.822  73.500  1.00  0.00    -0.085 OA 
HETATM   27  O   UNL     1      -5.564   4.606  74.460  1.00  0.00    -0.018 OA 
HETATM   28  C   UNL     1      -6.635   5.186  74.515  1.00  0.00    -0.067 C  
ENDBRANCH  25  26
BRANCH  25  29
HETATM   29  C   UNL     1      -6.189   7.253  71.849  1.00  0.00    -0.040 A  
HETATM   30  C   UNL     1      -5.718   8.144  72.822  1.00  0.00    -0.051 A  
HETATM   31  C   UNL     1      -5.395   9.459  72.483  1.00  0.00    -0.058 A  
HETATM   32  C   UNL     1      -5.524   9.895  71.167  1.00  0.00    -0.073 A  
HETATM   33  C   UNL     1      -5.975   9.018  70.185  1.00  0.00    -0.034 A  
HETATM   34  C   UNL     1      -6.305   7.706  70.522  1.00  0.00    -0.038 A  
ENDBRANCH  25  29
ENDBRANCH  24  25
ENDBRANCH   8  21
TORSDOF 7
ENDMDL
MODEL      212
REMARK 921   NORMALIZED FREE ENERGY PREDICTED BY IDOCK:   -2.16 KCAL/MOL
REMARK 922        TOTAL FREE ENERGY PREDICTED BY IDOCK:   -4.53 KCAL/MOL
REMARK 923 INTER-LIGAND FREE ENERGY PREDICTED BY IDOCK:   -4.67 KCAL/MOL
REMARK 924 INTRA-LIGAND FREE ENERGY PREDICTED BY IDOCK:    0.14 KCAL/MOL
REMARK 927      BINDING AFFINITY PREDICTED BY RF-SCORE:    0.00 PKD
ROOT
HETATM    1  C   UNL     1      -7.875   9.530  69.592  1.00  0.00    -0.116 C  
HETATM    2  S   UNL     1      -7.325   7.945  68.902  1.00  0.00    -0.087 SA 
HETATM    3  C   UNL     1      -6.762   8.687  67.357  1.00  0.00    -0.063 C  
HETATM    4  C   UNL     1      -7.766   9.628  66.700  1.00  0.00    -0.098 C  
HETATM    5  OXT UNL     1      -9.995  10.939  65.385  1.00  0.00    -0.233 OA 
HETATM    6  CA  UNL     1      -8.794  10.231  67.367  1.00  0.00    -0.131 C  
HETATM    7  C   UNL     1      -9.856  11.001  66.598  1.00  0.00    -0.200 C  
HETATM    8  CA  UNL     1      -8.975   9.415  70.704  1.00  0.00    -0.228 C  
HETATM    9  N   UNL     1      -8.902  10.081  68.726  1.00  0.00    -0.130 N  
HETATM   10  O   UNL     1     -10.627  11.843  67.313  1.00  0.00    -0.217 OA 
HETATM   11  C   UNL     1      -9.835  10.251  69.689  1.00  0.00    -0.198 C  
HETATM   12  O   UNL     1     -10.917  10.792  69.623  1.00  0.00    -0.243 OA 
ENDROOT
BRANCH   4  13
HETATM   13  C   UNL     1      -7.520   9.680  65.192  1.00  0.00    -0.115 C  
BRANCH  13  14
HETATM   14  S   UNL     1      -8.404   8.456  64.195  1.00  0.00    -0.009 SA 
BRANCH  14  15
HETATM   15  C   UNL     1      -7.316   7.138  64.055  1.00  0.00    -0.081 A  
HETATM   16  N   UNL     1      -7.345   5.988  64.684  1.00  0.00    -0.067 NA 
HETATM   17  N   UNL     1      -6.236   5.298  64.255  1.00  0.00    -0.022 NA 
HETATM   18  C   UNL     1      -5.768   8.179  62.333  1.00  0.00    -0.074 C  
HETATM   19  N   UNL     1      -6.222   7.160  63.239  1.00  0.00    -0.044 NA 
HETATM   20  N   UNL     1      -5.544   6.005  63.373  1.00  0.00    -0.017 NA 
ENDBRANCH  14  15
ENDBRANCH  13  14
ENDBRANCH   4  13
BRANCH   8  21
HETATM   21  N   UNL     1      -9.454   8.030  70.956  1.00  0.00    -0.155 N  
HETATM   22  O   UNL     1     -11.220   8.047  69.511  1.00  0.00    -0.041 OA 
HETATM   23  H   UNL     1      -8.969   7.484  71.669  1.00  0.00     0.000 HD 
HETATM   24  C   UNL     1     -10.503   7.431  70.295  1.00  0.00    -0.221 C  
BRANCH  24  25
HETATM   25  C   UNL     1     -10.704   5.936  70.641  1.00  0.00    -0.285 C  
BRANCH  25  26
HETATM   26  O   UNL     1     -10.067   5.697  71.911  1.00  0.00    -0.179 OA 
HETATM   27  O   UNL     1     -12.105   5.939  72.963  1.00  0.00     0.110 OA 
HETATM   28  C   UNL     1     -10.907   5.712  72.976  1.00  0.00    -0.271 C  
ENDBRANCH  25  26
BRANCH  25  29
HETATM   29  C   UNL     1     -10.113   5.032  69.566  1.00  0.00    -0.301 A  
HETATM   30  C   UNL     1      -9.325   3.937  69.944  1.00  0.00    -0.245 A  
HETATM   31  C   UNL     1      -8.757   3.104  68.979  1.00  0.00    -0.135 A  
HETATM   32  C   UNL     1      -8.981   3.346  67.626  1.00  0.00    -0.174 A  
HETATM   33  C   UNL     1      -9.774   4.420  67.233  1.00  0.00    -0.222 A  
HETATM   34  C   UNL     1     -10.337   5.257  68.195  1.00  0.00    -0.181 A  
ENDBRANCH  25  29
ENDBRANCH  24  25
ENDBRANCH   8  21
TORSDOF 7
ENDMDL
MODEL      213
REMARK 921   NORMALIZED FREE ENERGY PREDICTED BY IDOCK:   -2.12 KCAL/MOL
REMARK 922        TOTAL FREE ENERGY PREDICTED BY IDOCK:   -4.48 KCAL/MOL
REMARK 923 INTER-LIGAND FREE ENERGY PREDICTED BY IDOCK:   -4.48 KCAL/MOL
REMARK 924 INTRA-LIGAND FREE ENERGY PREDICTED BY IDOCK:    0.00 KCAL/MOL
REMARK 927      BINDING AFFINITY PREDICTED BY RF-SCORE:    0.00 PKD
ROOT
HETATM    1  C   UNL     1      -7.148  11.507  67.154  1.00  0.00    -0.140 C  
HETATM    2  S   UNL     1      -8.960  11.584  67.101  1.00  0.00    -0.171 SA 
HETATM    3  C   UNL     1      -8.996  13.386  67.184  1.00  0.00    -0.226 C  
HETATM    4  C   UNL     1      -8.124  13.990  68.279  1.00  0.00    -0.148 C  
HETATM    5  OXT UNL     1      -6.835  14.874  70.724  1.00  0.00     0.159 OA 
HETATM    6  CA  UNL     1      -7.075  13.339  68.863  1.00  0.00    -0.079 C  
HETATM    7  C   UNL     1      -6.382  13.942  70.075  1.00  0.00    -0.099 C  
HETATM    8  CA  UNL     1      -6.564  10.150  67.680  1.00  0.00    -0.067 C  
HETATM    9  N   UNL     1      -6.695  12.108  68.396  1.00  0.00    -0.058 N  
HETATM   10  O   UNL     1      -5.169  13.445  70.386  1.00  0.00    -0.096 OA 
HETATM   11  C   UNL     1      -5.953  11.056  68.809  1.00  0.00    -0.043 C  
HETATM   12  O   UNL     1      -5.208  10.969  69.760  1.00  0.00    -0.041 OA 
ENDROOT
BRANCH   4  13
HETATM   13  C   UNL     1      -8.682  15.351  68.696  1.00  0.00    -0.191 C  
BRANCH  13  14
HETATM   14  S   UNL     1      -7.492  16.710  68.790  1.00  0.00    -0.234 SA 
BRANCH  14  15
HETATM   15  C   UNL     1      -7.722  17.591  67.336  1.00  0.00    -0.198 A  
HETATM   16  N   UNL     1      -8.151  17.153  66.178  1.00  0.00    -0.458 NA 
HETATM   17  N   UNL     1      -8.118  18.235  65.331  1.00  0.00     0.218 NA 
HETATM   18  C   UNL     1      -6.972  19.854  68.209  1.00  0.00    -0.297 C  
HETATM   19  N   UNL     1      -7.442  18.922  67.221  1.00  0.00    -0.224 NA 
HETATM   20  N   UNL     1      -7.686  19.320  65.959  1.00  0.00    -0.362 NA 
ENDBRANCH  14  15
ENDBRANCH  13  14
ENDBRANCH   4  13
BRANCH   8  21
HETATM   21  N   UNL     1      -7.590   9.172  68.132  1.00  0.00    -0.084 N  
HETATM   22  O   UNL     1      -6.487   7.268  67.527  1.00  0.00    -0.051 OA 
HETATM   23  H   UNL     1      -8.461   9.542  68.511  1.00  0.00     0.000 HD 
HETATM   24  C   UNL     1      -7.447   7.804  68.077  1.00  0.00    -0.108 C  
BRANCH  24  25
HETATM   25  C   UNL     1      -8.597   7.015  68.743  1.00  0.00    -0.125 C  
BRANCH  25  26
HETATM   26  O   UNL     1      -9.829   7.690  68.419  1.00  0.00    -0.158 OA 
HETATM   27  O   UNL     1     -10.876   5.648  68.203  1.00  0.00    -0.202 OA 
HETATM   28  C   UNL     1     -10.883   6.866  68.194  1.00  0.00    -0.194 C  
ENDBRANCH  25  26
BRANCH  25  29
HETATM   29  C   UNL     1      -8.414   6.932  70.254  1.00  0.00    -0.139 A  
HETATM   30  C   UNL     1      -9.131   7.803  71.084  1.00  0.00    -0.152 A  
HETATM   31  C   UNL     1      -8.967   7.760  72.469  1.00  0.00    -0.213 A  
HETATM   32  C   UNL     1      -8.097   6.836  73.043  1.00  0.00    -0.113 A  
HETATM   33  C   UNL     1      -7.389   5.953  72.235  1.00  0.00    -0.094 A  
HETATM   34  C   UNL     1      -7.546   5.999  70.850  1.00  0.00    -0.096 A  
ENDBRANCH  25  29
ENDBRANCH  24  25
ENDBRANCH   8  21
TORSDOF 7
ENDMDL
MODEL      214
REMARK 921   NORMALIZED FREE ENERGY PREDICTED BY IDOCK:   -1.99 KCAL/MOL
REMARK 922        TOTAL FREE ENERGY PREDICTED BY IDOCK:   -4.30 KCAL/MOL
REMARK 923 INTER-LIGAND FREE ENERGY PREDICTED BY IDOCK:   -5.60 KCAL/MOL
REMARK 924 INTRA-LIGAND FREE ENERGY PREDICTED BY IDOCK:    1.30 KCAL/MOL
REMARK 927      BINDING AFFINITY PREDICTED BY RF-SCORE:    0.00 PKD
ROOT
HETATM    1  C   UNL     1     -10.756   8.836  67.760  1.00  0.00    -0.125 C  
HETATM    2  S   UNL     1     -10.365  10.309  68.744  1.00  0.00    -0.208 SA 
HETATM    3  C   UNL     1     -10.335  11.397  67.306  1.00  0.00    -0.198 C  
HETATM    4  C   UNL     1      -9.509  10.880  66.133  1.00  0.00    -0.230 C  
HETATM    5  OXT UNL     1      -7.486   9.964  64.266  1.00  0.00    -0.128 OA 
HETATM    6  CA  UNL     1      -9.178   9.568  65.955  1.00  0.00    -0.206 C  
HETATM    7  C   UNL     1      -8.195   9.168  64.866  1.00  0.00    -0.153 C  
HETATM    8  CA  UNL     1     -10.345   7.475  68.424  1.00  0.00    -0.195 C  
HETATM    9  N   UNL     1      -9.684   8.619  66.806  1.00  0.00    -0.210 N  
HETATM   10  O   UNL     1      -8.175   7.867  64.517  1.00  0.00    -0.136 OA 
HETATM   11  C   UNL     1      -9.432   7.337  67.152  1.00  0.00    -0.145 C  
HETATM   12  O   UNL     1      -8.691   6.532  66.633  1.00  0.00    -0.120 OA 
ENDROOT
BRANCH   4  13
HETATM   13  C   UNL     1      -9.012  12.055  65.289  1.00  0.00     0.403 C  
BRANCH  13  14
HETATM   14  S   UNL     1      -9.519  13.703  65.835  1.00  0.00     0.063 SA 
BRANCH  14  15
HETATM   15  C   UNL     1     -10.965  14.023  64.970  1.00  0.00    -0.375 A  
HETATM   16  N   UNL     1     -11.851  14.966  65.185  1.00  0.00    -0.303 NA 
HETATM   17  N   UNL     1     -12.839  14.773  64.250  1.00  0.00    -0.552 NA 
HETATM   18  C   UNL     1     -10.753  12.141  63.279  1.00  0.00    -0.318 C  
HETATM   19  N   UNL     1     -11.382  13.268  63.912  1.00  0.00    -0.363 NA 
HETATM   20  N   UNL     1     -12.562  13.737  63.468  1.00  0.00    -0.808 NA 
ENDBRANCH  14  15
ENDBRANCH  13  14
ENDBRANCH   4  13
BRANCH   8  21
HETATM   21  N   UNL     1      -9.623   7.615  69.716  1.00  0.00    -0.164 N  
HETATM   22  O   UNL     1      -8.232   5.820  69.486  1.00  0.00    -0.105 OA 
HETATM   23  H   UNL     1      -9.922   8.358  70.348  1.00  0.00     0.000 HD 
HETATM   24  C   UNL     1      -8.580   6.812  70.121  1.00  0.00    -0.140 C  
BRANCH  24  25
HETATM   25  C   UNL     1      -7.908   7.258  71.441  1.00  0.00    -0.096 C  
BRANCH  25  26
HETATM   26  O   UNL     1      -8.956   7.649  72.349  1.00  0.00    -0.128 OA 
HETATM   27  O   UNL     1      -9.866   5.537  72.186  1.00  0.00    -0.159 OA 
HETATM   28  C   UNL     1      -9.849   6.669  72.638  1.00  0.00    -0.168 C  
ENDBRANCH  25  26
BRANCH  25  29
HETATM   29  C   UNL     1      -6.940   8.413  71.211  1.00  0.00    -0.068 A  
HETATM   30  C   UNL     1      -6.865   9.007  69.945  1.00  0.00    -0.047 A  
HETATM   31  C   UNL     1      -5.975  10.054  69.703  1.00  0.00    -0.042 A  
HETATM   32  C   UNL     1      -5.160  10.531  70.727  1.00  0.00    -0.077 A  
HETATM   33  C   UNL     1      -5.233   9.963  71.995  1.00  0.00    -0.044 A  
HETATM   34  C   UNL     1      -6.117   8.912  72.237  1.00  0.00    -0.054 A  
ENDBRANCH  25  29
ENDBRANCH  24  25
ENDBRANCH   8  21
TORSDOF 7
ENDMDL
MODEL      215
REMARK 921   NORMALIZED FREE ENERGY PREDICTED BY IDOCK:   -1.98 KCAL/MOL
REMARK 922        TOTAL FREE ENERGY PREDICTED BY IDOCK:   -4.28 KCAL/MOL
REMARK 923 INTER-LIGAND FREE ENERGY PREDICTED BY IDOCK:   -4.66 KCAL/MOL
REMARK 924 INTRA-LIGAND FREE ENERGY PREDICTED BY IDOCK:    0.38 KCAL/MOL
REMARK 927      BINDING AFFINITY PREDICTED BY RF-SCORE:    0.00 PKD
ROOT
HETATM    1  C   UNL     1      -5.453   7.745  70.866  1.00  0.00    -0.030 C  
HETATM    2  S   UNL     1      -6.844   7.200  69.838  1.00  0.00    -0.057 SA 
HETATM    3  C   UNL     1      -6.553   8.462  68.582  1.00  0.00    -0.055 C  
HETATM    4  C   UNL     1      -6.365   9.873  69.128  1.00  0.00    -0.044 C  
HETATM    5  OXT UNL     1      -6.563  12.505  70.332  1.00  0.00     0.098 OA 
HETATM    6  CA  UNL     1      -6.001  10.149  70.415  1.00  0.00    -0.092 C  
HETATM    7  C   UNL     1      -6.022  11.582  70.924  1.00  0.00     0.181 C  
HETATM    8  CA  UNL     1      -5.568   7.361  72.383  1.00  0.00    -0.037 C  
HETATM    9  N   UNL     1      -5.682   9.122  71.265  1.00  0.00    -0.050 N  
HETATM   10  O   UNL     1      -5.340  11.829  72.058  1.00  0.00    -0.348 OA 
HETATM   11  C   UNL     1      -5.545   8.918  72.594  1.00  0.00    -0.082 C  
HETATM   12  O   UNL     1      -5.516   9.726  73.496  1.00  0.00    -0.315 OA 
ENDROOT
BRANCH   4  13
HETATM   13  C   UNL     1      -6.770  10.899  68.068  1.00  0.00    -0.063 C  
BRANCH  13  14
HETATM   14  S   UNL     1      -8.512  11.385  68.050  1.00  0.00    -0.152 SA 
BRANCH  14  15
HETATM   15  C   UNL     1      -9.350   9.985  67.519  1.00  0.00    -0.144 A  
HETATM   16  N   UNL     1     -10.346   9.363  68.102  1.00  0.00    -0.201 NA 
HETATM   17  N   UNL     1     -10.632   8.282  67.303  1.00  0.00    -0.301 NA 
HETATM   18  C   UNL     1      -8.035   9.614  65.380  1.00  0.00    -0.120 C  
HETATM   19  N   UNL     1      -9.031   9.317  66.372  1.00  0.00    -0.147 NA 
HETATM   20  N   UNL     1      -9.834   8.245  66.244  1.00  0.00    -0.206 NA 
ENDBRANCH  14  15
ENDBRANCH  13  14
ENDBRANCH   4  13
BRANCH   8  21
HETATM   21  N   UNL     1      -6.840   6.686  72.752  1.00  0.00    -0.068 N  
HETATM   22  O   UNL     1      -8.151   8.549  72.877  1.00  0.00    -0.341 OA 
HETATM   23  H   UNL     1      -6.816   5.677  72.897  1.00  0.00     0.000 HD 
HETATM   24  C   UNL     1      -8.049   7.325  72.911  1.00  0.00    -0.106 C  
BRANCH  24  25
HETATM   25  C   UNL     1      -9.246   6.376  73.152  1.00  0.00    -0.128 C  
BRANCH  25  26
HETATM   26  O   UNL     1      -8.762   5.026  73.010  1.00  0.00    -0.114 OA 
HETATM   27  O   UNL     1     -10.408   4.299  74.451  1.00  0.00    -0.203 OA 
HETATM   28  C   UNL     1      -9.462   4.098  73.709  1.00  0.00    -0.105 C  
ENDBRANCH  25  26
BRANCH  25  29
HETATM   29  C   UNL     1     -10.377   6.646  72.167  1.00  0.00    -0.222 A  
HETATM   30  C   UNL     1     -11.309   7.654  72.447  1.00  0.00    -0.381 A  
HETATM   31  C   UNL     1     -12.365   7.908  71.570  1.00  0.00    -0.340 A  
HETATM   32  C   UNL     1     -12.494   7.170  70.396  1.00  0.00     0.069 A  
HETATM   33  C   UNL     1     -11.568   6.176  70.095  1.00  0.00    -0.260 A  
HETATM   34  C   UNL     1     -10.517   5.915  70.973  1.00  0.00    -0.296 A  
ENDBRANCH  25  29
ENDBRANCH  24  25
ENDBRANCH   8  21
TORSDOF 7
ENDMDL
MODEL      216
REMARK 921   NORMALIZED FREE ENERGY PREDICTED BY IDOCK:   -1.88 KCAL/MOL
REMARK 922        TOTAL FREE ENERGY PREDICTED BY IDOCK:   -4.14 KCAL/MOL
REMARK 923 INTER-LIGAND FREE ENERGY PREDICTED BY IDOCK:   -3.07 KCAL/MOL
REMARK 924 INTRA-LIGAND FREE ENERGY PREDICTED BY IDOCK:   -1.07 KCAL/MOL
REMARK 927      BINDING AFFINITY PREDICTED BY RF-SCORE:    0.00 PKD
ROOT
HETATM    1  C   UNL     1      -8.533  13.713  68.514  1.00  0.00    -0.106 C  
HETATM    2  S   UNL     1      -6.916  13.437  67.740  1.00  0.00    -0.168 SA 
HETATM    3  C   UNL     1      -6.732  15.163  67.250  1.00  0.00     0.010 C  
HETATM    4  C   UNL     1      -7.949  15.759  66.550  1.00  0.00    -0.172 C  
HETATM    5  OXT UNL     1     -10.139  16.508  64.800  1.00  0.00    -0.107 OA 
HETATM    6  CA  UNL     1      -9.211  15.249  66.652  1.00  0.00    -0.274 C  
HETATM    7  C   UNL     1     -10.327  15.790  65.772  1.00  0.00    -0.369 C  
HETATM    8  CA  UNL     1      -9.438  12.435  68.618  1.00  0.00    -0.011 C  
HETATM    9  N   UNL     1      -9.453  14.200  67.501  1.00  0.00    -0.205 N  
HETATM   10  O   UNL     1     -11.588  15.502  66.149  1.00  0.00    -0.016 OA 
HETATM   11  C   UNL     1     -10.409  13.267  67.706  1.00  0.00    -0.233 C  
HETATM   12  O   UNL     1     -11.520  13.189  67.230  1.00  0.00    -0.296 OA 
ENDROOT
BRANCH   4  13
HETATM   13  C   UNL     1      -7.513  16.905  65.636  1.00  0.00     0.965 C  
BRANCH  13  14
HETATM   14  S   UNL     1      -7.545  18.562  66.361  1.00  0.00    -0.264 SA 
BRANCH  14  15
HETATM   15  C   UNL     1      -6.833  18.375  67.910  1.00  0.00    -0.217 A  
HETATM   16  N   UNL     1      -5.566  18.453  68.238  1.00  0.00    -0.173 NA 
HETATM   17  N   UNL     1      -5.510  18.187  69.586  1.00  0.00    -0.199 NA 
HETATM   18  C   UNL     1      -8.973  17.920  69.197  1.00  0.00     0.118 C  
HETATM   19  N   UNL     1      -7.555  18.083  69.031  1.00  0.00    -0.196 NA 
HETATM   20  N   UNL     1      -6.720  17.960  70.079  1.00  0.00     0.268 NA 
ENDBRANCH  14  15
ENDBRANCH  13  14
ENDBRANCH   4  13
BRANCH   8  21
HETATM   21  N   UNL     1      -8.858  11.218  67.990  1.00  0.00    -0.143 N  
HETATM   22  O   UNL     1      -8.587   9.990  69.893  1.00  0.00    -0.194 OA 
HETATM   23  H   UNL     1      -8.689  11.240  66.984  1.00  0.00     0.000 HD 
HETATM   24  C   UNL     1      -8.533  10.065  68.669  1.00  0.00    -0.118 C  
BRANCH  24  25
HETATM   25  C   UNL     1      -8.083   8.896  67.761  1.00  0.00    -0.106 C  
BRANCH  25  26
HETATM   26  O   UNL     1      -9.219   8.505  66.966  1.00  0.00    -0.142 OA 
HETATM   27  O   UNL     1      -8.031   8.994  65.052  1.00  0.00    -0.111 OA 
HETATM   28  C   UNL     1      -9.029   8.592  65.626  1.00  0.00    -0.182 C  
ENDBRANCH  25  26
BRANCH  25  29
HETATM   29  C   UNL     1      -7.573   7.719  68.582  1.00  0.00    -0.105 A  
HETATM   30  C   UNL     1      -6.212   7.642  68.907  1.00  0.00    -0.035 A  
HETATM   31  C   UNL     1      -5.717   6.565  69.643  1.00  0.00    -0.014 A  
HETATM   32  C   UNL     1      -6.576   5.559  70.077  1.00  0.00    -0.043 A  
HETATM   33  C   UNL     1      -7.933   5.627  69.777  1.00  0.00    -0.098 A  
HETATM   34  C   UNL     1      -8.429   6.699  69.036  1.00  0.00    -0.130 A  
ENDBRANCH  25  29
ENDBRANCH  24  25
ENDBRANCH   8  21
TORSDOF 7
ENDMDL
MODEL      217
REMARK 921   NORMALIZED FREE ENERGY PREDICTED BY IDOCK:   -1.51 KCAL/MOL
REMARK 922        TOTAL FREE ENERGY PREDICTED BY IDOCK:   -3.62 KCAL/MOL
REMARK 923 INTER-LIGAND FREE ENERGY PREDICTED BY IDOCK:   -2.67 KCAL/MOL
REMARK 924 INTRA-LIGAND FREE ENERGY PREDICTED BY IDOCK:   -0.95 KCAL/MOL
REMARK 927      BINDING AFFINITY PREDICTED BY RF-SCORE:    0.00 PKD
ROOT
HETATM    1  C   UNL     1      -8.858   9.726  70.478  1.00  0.00     0.020 C  
HETATM    2  S   UNL     1      -7.419   8.634  70.309  1.00  0.00    -0.072 SA 
HETATM    3  C   UNL     1      -6.946   9.322  68.710  1.00  0.00    -0.061 C  
HETATM    4  C   UNL     1      -8.085   9.434  67.703  1.00  0.00    -0.106 C  
HETATM    5  OXT UNL     1     -10.252   9.066  65.809  1.00  0.00    -0.071 OA 
HETATM    6  CA  UNL     1      -9.406   9.453  68.047  1.00  0.00    -0.129 C  
HETATM    7  C   UNL     1     -10.477   9.376  66.970  1.00  0.00    -0.231 C  
HETATM    8  CA  UNL     1      -9.984   9.186  71.428  1.00  0.00    -0.303 C  
HETATM    9  N   UNL     1      -9.762   9.474  69.371  1.00  0.00    -0.173 N  
HETATM   10  O   UNL     1     -11.723   9.740  67.330  1.00  0.00     0.663 OA 
HETATM   11  C   UNL     1     -10.859   9.238  70.124  1.00  0.00    -0.242 C  
HETATM   12  O   UNL     1     -12.007   9.067  69.777  1.00  0.00     0.375 OA 
ENDROOT
BRANCH   4  13
HETATM   13  C   UNL     1      -7.527   9.387  66.280  1.00  0.00    -0.096 C  
BRANCH  13  14
HETATM   14  S   UNL     1      -7.096  10.978  65.536  1.00  0.00     0.344 SA 
BRANCH  14  15
HETATM   15  C   UNL     1      -8.577  11.840  65.462  1.00  0.00     0.383 A  
HETATM   16  N   UNL     1      -9.070  12.687  66.332  1.00  0.00    -0.164 NA 
HETATM   17  N   UNL     1     -10.293  13.069  65.833  1.00  0.00    -0.283 NA 
HETATM   18  C   UNL     1      -9.372  10.923  63.232  1.00  0.00    -0.309 C  
HETATM   19  N   UNL     1      -9.463  11.708  64.432  1.00  0.00    -0.097 NA 
HETATM   20  N   UNL     1     -10.542  12.476  64.673  1.00  0.00    -0.300 NA 
ENDBRANCH  14  15
ENDBRANCH  13  14
ENDBRANCH   4  13
BRANCH   8  21
HETATM   21  N   UNL     1      -9.729   7.826  71.972  1.00  0.00    -0.165 N  
HETATM   22  O   UNL     1     -11.885   7.301  72.507  1.00  0.00    -0.247 OA 
HETATM   23  H   UNL     1      -8.761   7.509  72.022  1.00  0.00     0.000 HD 
HETATM   24  C   UNL     1     -10.707   6.963  72.414  1.00  0.00    -0.226 C  
BRANCH  24  25
HETATM   25  C   UNL     1     -10.192   5.556  72.795  1.00  0.00    -0.186 C  
BRANCH  25  26
HETATM   26  O   UNL     1     -10.563   5.317  74.167  1.00  0.00    -0.278 OA 
HETATM   27  O   UNL     1     -10.927   3.096  73.669  1.00  0.00    -0.205 OA 
HETATM   28  C   UNL     1     -10.886   4.030  74.450  1.00  0.00    -0.037 C  
ENDBRANCH  25  26
BRANCH  25  29
HETATM   29  C   UNL     1      -8.682   5.451  72.623  1.00  0.00    -0.123 A  
HETATM   30  C   UNL     1      -8.154   5.064  71.384  1.00  0.00    -0.112 A  
HETATM   31  C   UNL     1      -6.776   4.942  71.205  1.00  0.00    -0.039 A  
HETATM   32  C   UNL     1      -5.906   5.221  72.256  1.00  0.00    -0.021 A  
HETATM   33  C   UNL     1      -6.411   5.623  73.489  1.00  0.00    -0.072 A  
HETATM   34  C   UNL     1      -7.789   5.738  73.672  1.00  0.00    -0.104 A  
ENDBRANCH  25  29
ENDBRANCH  24  25
ENDBRANCH   8  21
TORSDOF 7
ENDMDL
MODEL      218
REMARK 921   NORMALIZED FREE ENERGY PREDICTED BY IDOCK:   -1.46 KCAL/MOL
REMARK 922        TOTAL FREE ENERGY PREDICTED BY IDOCK:   -3.55 KCAL/MOL
REMARK 923 INTER-LIGAND FREE ENERGY PREDICTED BY IDOCK:   -3.13 KCAL/MOL
REMARK 924 INTRA-LIGAND FREE ENERGY PREDICTED BY IDOCK:   -0.42 KCAL/MOL
REMARK 927      BINDING AFFINITY PREDICTED BY RF-SCORE:    0.00 PKD
ROOT
HETATM    1  C   UNL     1     -10.115   9.992  68.470  1.00  0.00    -0.169 C  
HETATM    2  S   UNL     1      -8.546  10.823  68.842  1.00  0.00    -0.130 SA 
HETATM    3  C   UNL     1      -8.161  11.113  67.103  1.00  0.00    -0.138 C  
HETATM    4  C   UNL     1      -8.314   9.890  66.205  1.00  0.00    -0.125 C  
HETATM    5  OXT UNL     1      -8.165   7.350  64.810  1.00  0.00    -0.126 OA 
HETATM    6  CA  UNL     1      -9.075   8.802  66.524  1.00  0.00    -0.162 C  
HETATM    7  C   UNL     1      -9.020   7.551  65.661  1.00  0.00     0.031 C  
HETATM    8  CA  UNL     1     -10.622   9.016  69.590  1.00  0.00    -0.224 C  
HETATM    9  N   UNL     1      -9.837   8.817  67.664  1.00  0.00    -0.169 N  
HETATM   10  O   UNL     1     -10.022   6.665  65.817  1.00  0.00     0.370 OA 
HETATM   11  C   UNL     1     -10.479   7.933  68.460  1.00  0.00    -0.167 C  
HETATM   12  O   UNL     1     -10.709   6.759  68.275  1.00  0.00    -0.214 OA 
ENDROOT
BRANCH   4  13
HETATM   13  C   UNL     1      -7.398  10.020  64.988  1.00  0.00    -0.140 C  
BRANCH  13  14
HETATM   14  S   UNL     1      -5.620   9.945  65.314  1.00  0.00    -0.073 SA 
BRANCH  14  15
HETATM   15  C   UNL     1      -5.498   9.621  66.993  1.00  0.00    -0.046 A  
HETATM   16  N   UNL     1      -5.457  10.476  67.987  1.00  0.00    -0.037 NA 
HETATM   17  N   UNL     1      -5.316   9.721  69.127  1.00  0.00    -0.036 NA 
HETATM   18  C   UNL     1      -5.425   7.089  66.829  1.00  0.00    -0.022 C  
HETATM   19  N   UNL     1      -5.402   8.358  67.503  1.00  0.00    -0.034 NA 
HETATM   20  N   UNL     1      -5.281   8.426  68.841  1.00  0.00    -0.031 NA 
ENDBRANCH  14  15
ENDBRANCH  13  14
ENDBRANCH   4  13
BRANCH   8  21
HETATM   21  N   UNL     1      -9.692   8.865  70.740  1.00  0.00    -0.207 N  
HETATM   22  O   UNL     1     -11.063   7.629  72.082  1.00  0.00    -0.239 OA 
HETATM   23  H   UNL     1      -8.790   9.338  70.686  1.00  0.00     0.000 HD 
HETATM   24  C   UNL     1      -9.961   8.131  71.874  1.00  0.00    -0.212 C  
BRANCH  24  25
HETATM   25  C   UNL     1      -8.772   8.014  72.856  1.00  0.00    -0.213 C  
BRANCH  25  26
HETATM   26  O   UNL     1      -7.672   8.755  72.292  1.00  0.00    -0.332 OA 
HETATM   27  O   UNL     1      -6.897   9.195  74.418  1.00  0.00    -0.384 OA 
HETATM   28  C   UNL     1      -6.810   9.269  73.205  1.00  0.00     0.715 C  
ENDBRANCH  25  26
BRANCH  25  29
HETATM   29  C   UNL     1      -8.378   6.560  73.082  1.00  0.00    -0.120 A  
HETATM   30  C   UNL     1      -8.162   5.724  71.978  1.00  0.00    -0.112 A  
HETATM   31  C   UNL     1      -7.817   4.384  72.158  1.00  0.00    -0.090 A  
HETATM   32  C   UNL     1      -7.669   3.865  73.442  1.00  0.00    -0.083 A  
HETATM   33  C   UNL     1      -7.863   4.685  74.549  1.00  0.00    -0.095 A  
HETATM   34  C   UNL     1      -8.214   6.022  74.372  1.00  0.00    -0.112 A  
ENDBRANCH  25  29
ENDBRANCH  24  25
ENDBRANCH   8  21
TORSDOF 7
ENDMDL
MODEL      219
REMARK 921   NORMALIZED FREE ENERGY PREDICTED BY IDOCK:   -1.43 KCAL/MOL
REMARK 922        TOTAL FREE ENERGY PREDICTED BY IDOCK:   -3.51 KCAL/MOL
REMARK 923 INTER-LIGAND FREE ENERGY PREDICTED BY IDOCK:   -4.51 KCAL/MOL
REMARK 924 INTRA-LIGAND FREE ENERGY PREDICTED BY IDOCK:    1.00 KCAL/MOL
REMARK 927      BINDING AFFINITY PREDICTED BY RF-SCORE:    0.00 PKD
ROOT
HETATM    1  C   UNL     1      -8.200   7.143  68.488  1.00  0.00    -0.125 C  
HETATM    2  S   UNL     1      -6.991   6.213  69.469  1.00  0.00    -0.069 SA 
HETATM    3  C   UNL     1      -6.261   5.420  68.022  1.00  0.00    -0.034 C  
HETATM    4  C   UNL     1      -7.269   4.804  67.059  1.00  0.00    -0.077 C  
HETATM    5  OXT UNL     1      -9.300   3.269  65.667  1.00  0.00    -0.153 OA 
HETATM    6  CA  UNL     1      -8.586   5.161  67.002  1.00  0.00    -0.105 C  
HETATM    7  C   UNL     1      -9.558   4.364  66.147  1.00  0.00    -0.190 C  
HETATM    8  CA  UNL     1      -9.484   7.583  69.274  1.00  0.00    -0.154 C  
HETATM    9  N   UNL     1      -9.041   6.199  67.774  1.00  0.00    -0.118 N  
HETATM   10  O   UNL     1     -10.735   4.953  65.862  1.00  0.00    -0.302 OA 
HETATM   11  C   UNL     1     -10.221   6.686  68.216  1.00  0.00    -0.171 C  
HETATM   12  O   UNL     1     -11.348   6.386  67.886  1.00  0.00    -0.263 OA 
ENDROOT
BRANCH   4  13
HETATM   13  C   UNL     1      -6.614   3.660  66.283  1.00  0.00    -0.037 C  
BRANCH  13  14
HETATM   14  S   UNL     1      -5.573   4.136  64.883  1.00  0.00    -0.014 SA 
BRANCH  14  15
HETATM   15  C   UNL     1      -6.364   5.492  64.192  1.00  0.00    -0.022 A  
HETATM   16  N   UNL     1      -6.138   6.765  64.411  1.00  0.00    -0.035 NA 
HETATM   17  N   UNL     1      -7.060   7.446  63.652  1.00  0.00    -0.062 NA 
HETATM   18  C   UNL     1      -7.993   4.206  62.731  1.00  0.00    -0.071 C  
HETATM   19  N   UNL     1      -7.394   5.380  63.303  1.00  0.00    -0.048 NA 
HETATM   20  N   UNL     1      -7.831   6.609  62.972  1.00  0.00    -0.105 NA 
ENDBRANCH  14  15
ENDBRANCH  13  14
ENDBRANCH   4  13
BRANCH   8  21
HETATM   21  N   UNL     1      -9.544   7.094  70.678  1.00  0.00    -0.165 N  
HETATM   22  O   UNL     1     -10.625   8.888  71.582  1.00  0.00    -0.296 OA 
HETATM   23  H   UNL     1      -9.094   6.203  70.888  1.00  0.00     0.000 HD 
HETATM   24  C   UNL     1     -10.164   7.757  71.713  1.00  0.00    -0.191 C  
BRANCH  24  25
HETATM   25  C   UNL     1     -10.209   6.966  73.041  1.00  0.00    -0.218 C  
BRANCH  25  26
HETATM   26  O   UNL     1      -9.430   7.699  74.007  1.00  0.00    -0.249 OA 
HETATM   27  O   UNL     1      -7.662   7.741  72.527  1.00  0.00    -0.092 OA 
HETATM   28  C   UNL     1      -8.181   8.030  73.591  1.00  0.00    -0.227 C  
ENDBRANCH  25  26
BRANCH  25  29
HETATM   29  C   UNL     1      -9.659   5.556  72.868  1.00  0.00    -0.159 A  
HETATM   30  C   UNL     1      -8.765   5.043  73.816  1.00  0.00    -0.109 A  
HETATM   31  C   UNL     1      -8.233   3.761  73.671  1.00  0.00    -0.087 A  
HETATM   32  C   UNL     1      -8.600   2.969  72.585  1.00  0.00    -0.088 A  
HETATM   33  C   UNL     1      -9.499   3.457  71.642  1.00  0.00    -0.219 A  
HETATM   34  C   UNL     1     -10.026   4.740  71.781  1.00  0.00    -0.255 A  
ENDBRANCH  25  29
ENDBRANCH  24  25
ENDBRANCH   8  21
TORSDOF 7
ENDMDL
MODEL      220
REMARK 921   NORMALIZED FREE ENERGY PREDICTED BY IDOCK:   -1.39 KCAL/MOL
REMARK 922        TOTAL FREE ENERGY PREDICTED BY IDOCK:   -3.45 KCAL/MOL
REMARK 923 INTER-LIGAND FREE ENERGY PREDICTED BY IDOCK:   -4.43 KCAL/MOL
REMARK 924 INTRA-LIGAND FREE ENERGY PREDICTED BY IDOCK:    0.98 KCAL/MOL
REMARK 927      BINDING AFFINITY PREDICTED BY RF-SCORE:    0.00 PKD
ROOT
HETATM    1  C   UNL     1      -8.850   8.127  68.970  1.00  0.00    -0.144 C  
HETATM    2  S   UNL     1      -7.209   7.782  69.660  1.00  0.00    -0.076 SA 
HETATM    3  C   UNL     1      -6.426   7.680  68.038  1.00  0.00    -0.054 C  
HETATM    4  C   UNL     1      -7.158   6.797  67.033  1.00  0.00    -0.072 C  
HETATM    5  OXT UNL     1      -8.410   4.687  65.484  1.00  0.00    -0.113 OA 
HETATM    6  CA  UNL     1      -8.478   6.461  67.134  1.00  0.00    -0.112 C  
HETATM    7  C   UNL     1      -9.077   5.426  66.195  1.00  0.00    -0.151 C  
HETATM    8  CA  UNL     1     -10.050   7.752  69.909  1.00  0.00    -0.203 C  
HETATM    9  N   UNL     1      -9.244   7.010  68.130  1.00  0.00    -0.131 N  
HETATM   10  O   UNL     1     -10.421   5.391  66.112  1.00  0.00    -0.210 OA 
HETATM   11  C   UNL     1     -10.429   6.777  68.736  1.00  0.00    -0.208 C  
HETATM   12  O   UNL     1     -11.315   6.013  68.422  1.00  0.00    -0.196 OA 
ENDROOT
BRANCH   4  13
HETATM   13  C   UNL     1      -6.170   6.258  65.998  1.00  0.00    -0.037 C  
BRANCH  13  14
HETATM   14  S   UNL     1      -5.634   7.421  64.721  1.00  0.00    -0.033 SA 
BRANCH  14  15
HETATM   15  C   UNL     1      -7.024   8.367  64.382  1.00  0.00    -0.073 A  
HETATM   16  N   UNL     1      -8.072   8.046  63.662  1.00  0.00    -0.135 NA 
HETATM   17  N   UNL     1      -8.883   9.156  63.663  1.00  0.00    -0.132 NA 
HETATM   18  C   UNL     1      -6.331  10.435  65.682  1.00  0.00    -0.126 C  
HETATM   19  N   UNL     1      -7.185   9.644  64.838  1.00  0.00    -0.112 NA 
HETATM   20  N   UNL     1      -8.349  10.137  64.379  1.00  0.00    -0.165 NA 
ENDBRANCH  14  15
ENDBRANCH  13  14
ENDBRANCH   4  13
BRANCH   8  21
HETATM   21  N   UNL     1      -9.652   7.094  71.182  1.00  0.00    -0.165 N  
HETATM   22  O   UNL     1     -11.277   7.987  72.510  1.00  0.00    -0.333 OA 
HETATM   23  H   UNL     1      -8.815   6.511  71.172  1.00  0.00     0.000 HD 
HETATM   24  C   UNL     1     -10.333   7.214  72.372  1.00  0.00    -0.201 C  
BRANCH  24  25
HETATM   25  C   UNL     1      -9.795   6.313  73.509  1.00  0.00    -0.179 C  
BRANCH  25  26
HETATM   26  O   UNL     1      -9.308   7.180  74.552  1.00  0.00    -0.203 OA 
HETATM   27  O   UNL     1      -7.857   8.153  73.048  1.00  0.00    -0.141 OA 
HETATM   28  C   UNL     1      -8.352   8.058  74.157  1.00  0.00    -0.253 C  
ENDBRANCH  25  26
BRANCH  25  29
HETATM   29  C   UNL     1      -8.685   5.395  73.013  1.00  0.00    -0.121 A  
HETATM   30  C   UNL     1      -7.644   5.040  73.881  1.00  0.00    -0.091 A  
HETATM   31  C   UNL     1      -6.606   4.215  73.446  1.00  0.00    -0.050 A  
HETATM   32  C   UNL     1      -6.603   3.722  72.144  1.00  0.00    -0.015 A  
HETATM   33  C   UNL     1      -7.637   4.051  71.273  1.00  0.00    -0.055 A  
HETATM   34  C   UNL     1      -8.671   4.881  71.703  1.00  0.00    -0.137 A  
ENDBRANCH  25  29
ENDBRANCH  24  25
ENDBRANCH   8  21
TORSDOF 7
ENDMDL
MODEL      221
REMARK 921   NORMALIZED FREE ENERGY PREDICTED BY IDOCK:   -1.34 KCAL/MOL
REMARK 922        TOTAL FREE ENERGY PREDICTED BY IDOCK:   -3.38 KCAL/MOL
REMARK 923 INTER-LIGAND FREE ENERGY PREDICTED BY IDOCK:   -3.07 KCAL/MOL
REMARK 924 INTRA-LIGAND FREE ENERGY PREDICTED BY IDOCK:   -0.32 KCAL/MOL
REMARK 927      BINDING AFFINITY PREDICTED BY RF-SCORE:    0.00 PKD
ROOT
HETATM    1  C   UNL     1     -10.783   8.854  68.776  1.00  0.00    -0.090 C  
HETATM    2  S   UNL     1      -9.175   9.690  68.712  1.00  0.00    -0.145 SA 
HETATM    3  C   UNL     1      -9.160   9.762  66.909  1.00  0.00    -0.142 C  
HETATM    4  C   UNL     1      -9.492   8.444  66.217  1.00  0.00    -0.292 C  
HETATM    5  OXT UNL     1      -9.624   5.754  65.139  1.00  0.00     0.287 OA 
HETATM    6  CA  UNL     1     -10.165   7.418  66.816  1.00  0.00    -0.242 C  
HETATM    7  C   UNL     1     -10.285   6.073  66.117  1.00  0.00     0.116 C  
HETATM    8  CA  UNL     1     -11.042   8.029  70.085  1.00  0.00    -0.191 C  
HETATM    9  N   UNL     1     -10.673   7.585  68.078  1.00  0.00    -0.152 N  
HETATM   10  O   UNL     1     -11.229   5.233  66.583  1.00  0.00     0.120 OA 
HETATM   11  C   UNL     1     -11.133   6.817  69.090  1.00  0.00    -0.218 C  
HETATM   12  O   UNL     1     -11.391   5.633  69.100  1.00  0.00    -0.042 OA 
ENDROOT
BRANCH   4  13
HETATM   13  C   UNL     1      -8.848   8.409  64.830  1.00  0.00     0.067 C  
BRANCH  13  14
HETATM   14  S   UNL     1      -7.050   8.218  64.787  1.00  0.00    -0.082 SA 
BRANCH  14  15
HETATM   15  C   UNL     1      -6.761   6.667  65.461  1.00  0.00    -0.051 A  
HETATM   16  N   UNL     1      -6.555   6.351  66.717  1.00  0.00    -0.050 NA 
HETATM   17  N   UNL     1      -6.335   4.994  66.732  1.00  0.00    -0.039 NA 
HETATM   18  C   UNL     1      -6.865   5.348  63.295  1.00  0.00    -0.037 C  
HETATM   19  N   UNL     1      -6.688   5.530  64.709  1.00  0.00    -0.043 NA 
HETATM   20  N   UNL     1      -6.413   4.484  65.510  1.00  0.00    -0.039 NA 
ENDBRANCH  14  15
ENDBRANCH  13  14
ENDBRANCH   4  13
BRANCH   8  21
HETATM   21  N   UNL     1      -9.893   7.996  71.029  1.00  0.00    -0.173 N  
HETATM   22  O   UNL     1     -11.066   8.350  72.954  1.00  0.00    -0.252 OA 
HETATM   23  H   UNL     1      -8.959   7.890  70.634  1.00  0.00     0.000 HD 
HETATM   24  C   UNL     1     -10.000   8.099  72.398  1.00  0.00    -0.275 C  
BRANCH  24  25
HETATM   25  C   UNL     1      -8.670   7.889  73.159  1.00  0.00    -0.220 C  
BRANCH  25  26
HETATM   26  O   UNL     1      -7.646   8.609  72.445  1.00  0.00    -0.296 OA 
HETATM   27  O   UNL     1      -6.313   8.550  74.325  1.00  0.00    -0.122 OA 
HETATM   28  C   UNL     1      -6.518   8.846  73.161  1.00  0.00     0.117 C  
ENDBRANCH  25  26
BRANCH  25  29
HETATM   29  C   UNL     1      -8.314   6.411  73.261  1.00  0.00    -0.118 A  
HETATM   30  C   UNL     1      -8.455   5.589  72.135  1.00  0.00    -0.126 A  
HETATM   31  C   UNL     1      -8.152   4.229  72.207  1.00  0.00    -0.092 A  
HETATM   32  C   UNL     1      -7.690   3.676  73.399  1.00  0.00    -0.070 A  
HETATM   33  C   UNL     1      -7.529   4.481  74.522  1.00  0.00    -0.080 A  
HETATM   34  C   UNL     1      -7.837   5.839  74.455  1.00  0.00    -0.097 A  
ENDBRANCH  25  29
ENDBRANCH  24  25
ENDBRANCH   8  21
TORSDOF 7
ENDMDL
MODEL      222
REMARK 921   NORMALIZED FREE ENERGY PREDICTED BY IDOCK:   -1.32 KCAL/MOL
REMARK 922        TOTAL FREE ENERGY PREDICTED BY IDOCK:   -3.35 KCAL/MOL
REMARK 923 INTER-LIGAND FREE ENERGY PREDICTED BY IDOCK:   -4.84 KCAL/MOL
REMARK 924 INTRA-LIGAND FREE ENERGY PREDICTED BY IDOCK:    1.49 KCAL/MOL
REMARK 927      BINDING AFFINITY PREDICTED BY RF-SCORE:    0.00 PKD
ROOT
HETATM    1  C   UNL     1      -5.470  15.753  67.979  1.00  0.00    -0.127 C  
HETATM    2  S   UNL     1      -6.722  16.142  66.727  1.00  0.00     0.231 SA 
HETATM    3  C   UNL     1      -6.210  17.867  66.592  1.00  0.00    -0.168 C  
HETATM    4  C   UNL     1      -6.049  18.589  67.925  1.00  0.00    -0.187 C  
HETATM    5  OXT UNL     1      -6.315  19.884  70.508  1.00  0.00    -0.305 OA 
HETATM    6  CA  UNL     1      -5.859  17.952  69.118  1.00  0.00    -0.213 C  
HETATM    7  C   UNL     1      -5.898  18.738  70.419  1.00  0.00    -0.136 C  
HETATM    8  CA  UNL     1      -5.811  14.520  68.888  1.00  0.00    -0.085 C  
HETATM    9  N   UNL     1      -5.702  16.590  69.142  1.00  0.00    -0.138 N  
HETATM   10  O   UNL     1      -5.373  18.137  71.504  1.00  0.00    -0.362 OA 
HETATM   11  C   UNL     1      -5.760  15.584  70.043  1.00  0.00    -0.140 C  
HETATM   12  O   UNL     1      -5.828  15.637  71.251  1.00  0.00     0.219 OA 
ENDROOT
BRANCH   4  13
HETATM   13  C   UNL     1      -6.262  20.091  67.733  1.00  0.00    -0.217 C  
BRANCH  13  14
HETATM   14  S   UNL     1      -7.976  20.666  67.767  1.00  0.00    -0.014 SA 
BRANCH  14  15
HETATM   15  C   UNL     1      -8.861  19.450  66.943  1.00  0.00    -0.306 A  
HETATM   16  N   UNL     1      -9.158  19.383  65.667  1.00  0.00    -0.212 NA 
HETATM   17  N   UNL     1      -9.911  18.243  65.517  1.00  0.00    -0.255 NA 
HETATM   18  C   UNL     1      -9.336  17.976  68.954  1.00  0.00    -0.157 C  
HETATM   19  N   UNL     1      -9.402  18.367  67.572  1.00  0.00    -0.264 NA 
HETATM   20  N   UNL     1     -10.066  17.616  66.675  1.00  0.00    -0.321 NA 
ENDBRANCH  14  15
ENDBRANCH  13  14
ENDBRANCH   4  13
BRANCH   8  21
HETATM   21  N   UNL     1      -7.147  13.919  68.632  1.00  0.00    -0.104 N  
HETATM   22  O   UNL     1      -8.405  15.515  69.669  1.00  0.00    -0.234 OA 
HETATM   23  H   UNL     1      -7.178  13.016  68.158  1.00  0.00     0.000 HD 
HETATM   24  C   UNL     1      -8.346  14.494  68.990  1.00  0.00    -0.061 C  
BRANCH  24  25
HETATM   25  C   UNL     1      -9.594  13.736  68.480  1.00  0.00    -0.176 C  
BRANCH  25  26
HETATM   26  O   UNL     1     -10.458  13.516  69.613  1.00  0.00     0.258 OA 
HETATM   27  O   UNL     1     -11.803  15.250  68.905  1.00  0.00    -0.338 OA 
HETATM   28  C   UNL     1     -11.532  14.344  69.673  1.00  0.00    -0.283 C  
ENDBRANCH  25  26
BRANCH  25  29
HETATM   29  C   UNL     1      -9.214  12.410  67.832  1.00  0.00    -0.192 A  
HETATM   30  C   UNL     1      -8.477  12.412  66.641  1.00  0.00    -0.033 A  
HETATM   31  C   UNL     1      -8.132  11.212  66.017  1.00  0.00    -0.064 A  
HETATM   32  C   UNL     1      -8.505   9.996  66.584  1.00  0.00    -0.126 A  
HETATM   33  C   UNL     1      -9.223   9.975  67.776  1.00  0.00    -0.143 A  
HETATM   34  C   UNL     1      -9.575  11.173  68.396  1.00  0.00    -0.192 A  
ENDBRANCH  25  29
ENDBRANCH  24  25
ENDBRANCH   8  21
TORSDOF 7
ENDMDL
MODEL      223
REMARK 921   NORMALIZED FREE ENERGY PREDICTED BY IDOCK:   -1.13 KCAL/MOL
REMARK 922        TOTAL FREE ENERGY PREDICTED BY IDOCK:   -3.08 KCAL/MOL
REMARK 923 INTER-LIGAND FREE ENERGY PREDICTED BY IDOCK:   -2.85 KCAL/MOL
REMARK 924 INTRA-LIGAND FREE ENERGY PREDICTED BY IDOCK:   -0.23 KCAL/MOL
REMARK 927      BINDING AFFINITY PREDICTED BY RF-SCORE:    0.00 PKD
ROOT
HETATM    1  C   UNL     1     -10.906   8.881  68.751  1.00  0.00    -0.002 C  
HETATM    2  S   UNL     1      -9.443   9.942  68.595  1.00  0.00    -0.158 SA 
HETATM    3  C   UNL     1      -9.468   9.900  66.792  1.00  0.00    -0.169 C  
HETATM    4  C   UNL     1      -9.609   8.506  66.190  1.00  0.00    -0.276 C  
HETATM    5  OXT UNL     1      -9.353   5.763  65.280  1.00  0.00     0.058 OA 
HETATM    6  CA  UNL     1     -10.111   7.432  66.866  1.00  0.00    -0.257 C  
HETATM    7  C   UNL     1     -10.039   6.042  66.254  1.00  0.00    -0.011 C  
HETATM    8  CA  UNL     1     -11.018   8.113  70.114  1.00  0.00    -0.223 C  
HETATM    9  N   UNL     1     -10.618   7.601  68.129  1.00  0.00    -0.169 N  
HETATM   10  O   UNL     1     -10.839   5.102  66.793  1.00  0.00    -0.196 OA 
HETATM   11  C   UNL     1     -10.941   6.839  69.197  1.00  0.00    -0.244 C  
HETATM   12  O   UNL     1     -11.019   5.633  69.285  1.00  0.00    -0.304 OA 
ENDROOT
BRANCH   4  13
HETATM   13  C   UNL     1      -8.989   8.479  64.792  1.00  0.00     0.180 C  
BRANCH  13  14
HETATM   14  S   UNL     1      -7.197   8.709  64.706  1.00  0.00    -0.090 SA 
BRANCH  14  15
HETATM   15  C   UNL     1      -6.541   7.172  65.094  1.00  0.00    -0.047 A  
HETATM   16  N   UNL     1      -6.359   6.641  66.279  1.00  0.00    -0.041 NA 
HETATM   17  N   UNL     1      -5.769   5.419  66.056  1.00  0.00    -0.017 NA 
HETATM   18  C   UNL     1      -6.096   6.401  62.717  1.00  0.00    -0.030 C  
HETATM   19  N   UNL     1      -6.092   6.295  64.151  1.00  0.00    -0.029 NA 
HETATM   20  N   UNL     1      -5.602   5.199  64.759  1.00  0.00    -0.013 NA 
ENDBRANCH  14  15
ENDBRANCH  13  14
ENDBRANCH   4  13
BRANCH   8  21
HETATM   21  N   UNL     1      -9.862   8.311  71.029  1.00  0.00    -0.182 N  
HETATM   22  O   UNL     1      -8.767   6.364  70.567  1.00  0.00    -0.140 OA 
HETATM   23  H   UNL     1      -9.861   9.146  71.615  1.00  0.00     0.000 HD 
HETATM   24  C   UNL     1      -8.794   7.450  71.140  1.00  0.00    -0.142 C  
BRANCH  24  25
HETATM   25  C   UNL     1      -7.656   7.959  72.055  1.00  0.00    -0.083 C  
BRANCH  25  26
HETATM   26  O   UNL     1      -8.270   8.570  73.207  1.00  0.00    -0.374 OA 
HETATM   27  O   UNL     1      -7.516   6.828  74.515  1.00  0.00    -0.101 OA 
HETATM   28  C   UNL     1      -8.093   7.891  74.368  1.00  0.00    -0.244 C  
ENDBRANCH  25  26
BRANCH  25  29
HETATM   29  C   UNL     1      -6.764   8.959  71.330  1.00  0.00    -0.083 A  
HETATM   30  C   UNL     1      -6.200  10.024  72.043  1.00  0.00     0.654 A  
HETATM   31  C   UNL     1      -5.394  10.964  71.399  1.00  0.00    -0.001 A  
HETATM   32  C   UNL     1      -5.130  10.843  70.037  1.00  0.00    -0.044 A  
HETATM   33  C   UNL     1      -5.669   9.782  69.316  1.00  0.00    -0.034 A  
HETATM   34  C   UNL     1      -6.480   8.846  69.956  1.00  0.00    -0.042 A  
ENDBRANCH  25  29
ENDBRANCH  24  25
ENDBRANCH   8  21
TORSDOF 7
ENDMDL
MODEL      224
REMARK 921   NORMALIZED FREE ENERGY PREDICTED BY IDOCK:   -1.10 KCAL/MOL
REMARK 922        TOTAL FREE ENERGY PREDICTED BY IDOCK:   -3.05 KCAL/MOL
REMARK 923 INTER-LIGAND FREE ENERGY PREDICTED BY IDOCK:   -2.65 KCAL/MOL
REMARK 924 INTRA-LIGAND FREE ENERGY PREDICTED BY IDOCK:   -0.40 KCAL/MOL
REMARK 927      BINDING AFFINITY PREDICTED BY RF-SCORE:    0.00 PKD
ROOT
HETATM    1  C   UNL     1      -9.835   9.321  67.262  1.00  0.00    -0.182 C  
HETATM    2  S   UNL     1      -8.303  10.010  66.579  1.00  0.00    -0.127 SA 
HETATM    3  C   UNL     1      -8.526   9.209  64.978  1.00  0.00    -0.171 C  
HETATM    4  C   UNL     1      -8.863   7.724  65.051  1.00  0.00     0.205 C  
HETATM    5  OXT UNL     1      -8.971   4.847  65.414  1.00  0.00    -0.144 OA 
HETATM    6  CA  UNL     1      -9.390   7.116  66.155  1.00  0.00    -0.045 C  
HETATM    7  C   UNL     1      -9.518   5.602  66.206  1.00  0.00    -0.155 C  
HETATM    8  CA  UNL     1      -9.872   9.228  68.828  1.00  0.00    -0.165 C  
HETATM    9  N   UNL     1      -9.740   7.873  67.244  1.00  0.00    -0.163 N  
HETATM   10  O   UNL     1     -10.340   5.096  67.144  1.00  0.00    -0.209 OA 
HETATM   11  C   UNL     1     -10.017   7.687  68.554  1.00  0.00    -0.180 C  
HETATM   12  O   UNL     1     -10.199   6.656  69.162  1.00  0.00    -0.165 OA 
ENDROOT
BRANCH   4  13
HETATM   13  C   UNL     1      -8.404   7.023  63.772  1.00  0.00     0.211 C  
BRANCH  13  14
HETATM   14  S   UNL     1      -6.621   6.997  63.470  1.00  0.00    -0.044 SA 
BRANCH  14  15
HETATM   15  C   UNL     1      -5.994   5.919  64.648  1.00  0.00    -0.025 A  
HETATM   16  N   UNL     1      -5.911   4.612  64.593  1.00  0.00    -0.017 NA 
HETATM   17  N   UNL     1      -5.376   4.218  65.797  1.00  0.00    -0.009 NA 
HETATM   18  C   UNL     1      -5.360   7.665  66.379  1.00  0.00    -0.025 C  
HETATM   19  N   UNL     1      -5.506   6.335  65.853  1.00  0.00    -0.013 NA 
HETATM   20  N   UNL     1      -5.126   5.264  66.573  1.00  0.00    -0.005 NA 
ENDBRANCH  14  15
ENDBRANCH  13  14
ENDBRANCH   4  13
BRANCH   8  21
HETATM   21  N   UNL     1      -8.611   9.641  69.498  1.00  0.00    -0.157 N  
HETATM   22  O   UNL     1      -7.483   7.670  69.273  1.00  0.00    -0.089 OA 
HETATM   23  H   UNL     1      -8.573  10.578  69.900  1.00  0.00     0.000 HD 
HETATM   24  C   UNL     1      -7.490   8.850  69.616  1.00  0.00    -0.071 C  
BRANCH  24  25
HETATM   25  C   UNL     1      -6.264   9.567  70.228  1.00  0.00    -0.061 C  
BRANCH  25  26
HETATM   26  O   UNL     1      -6.563   9.827  71.613  1.00  0.00    -0.306 OA 
HETATM   27  O   UNL     1      -5.356   7.956  72.211  1.00  0.00    -0.036 OA 
HETATM   28  C   UNL     1      -6.020   8.940  72.485  1.00  0.00    -0.052 C  
ENDBRANCH  25  26
BRANCH  25  29
HETATM   29  C   UNL     1      -5.955  10.866  69.493  1.00  0.00    -0.054 A  
HETATM   30  C   UNL     1      -6.213  12.091  70.122  1.00  0.00    -0.075 A  
HETATM   31  C   UNL     1      -5.956  13.295  69.464  1.00  0.00    -0.107 A  
HETATM   32  C   UNL     1      -5.424  13.290  68.177  1.00  0.00    -0.100 A  
HETATM   33  C   UNL     1      -5.146  12.082  67.544  1.00  0.00    -0.083 A  
HETATM   34  C   UNL     1      -5.409  10.878  68.197  1.00  0.00    -0.035 A  
ENDBRANCH  25  29
ENDBRANCH  24  25
ENDBRANCH   8  21
TORSDOF 7
ENDMDL
MODEL      225
REMARK 921   NORMALIZED FREE ENERGY PREDICTED BY IDOCK:   -0.96 KCAL/MOL
REMARK 922        TOTAL FREE ENERGY PREDICTED BY IDOCK:   -2.85 KCAL/MOL
REMARK 923 INTER-LIGAND FREE ENERGY PREDICTED BY IDOCK:   -5.97 KCAL/MOL
REMARK 924 INTRA-LIGAND FREE ENERGY PREDICTED BY IDOCK:    3.12 KCAL/MOL
REMARK 927      BINDING AFFINITY PREDICTED BY RF-SCORE:    0.00 PKD
ROOT
HETATM    1  C   UNL     1      -9.739   7.206  70.170  1.00  0.00    -0.171 C  
HETATM    2  S   UNL     1     -10.846   6.955  68.755  1.00  0.00    -0.160 SA 
HETATM    3  C   UNL     1      -9.746   5.764  67.964  1.00  0.00    -0.124 C  
HETATM    4  C   UNL     1      -8.290   6.207  67.871  1.00  0.00    -0.117 C  
HETATM    5  OXT UNL     1      -5.727   7.460  67.338  1.00  0.00    -0.031 OA 
HETATM    6  CA  UNL     1      -7.734   7.169  68.666  1.00  0.00    -0.120 C  
HETATM    7  C   UNL     1      -6.332   7.681  68.378  1.00  0.00    -0.041 C  
HETATM    8  CA  UNL     1      -9.925   8.574  70.915  1.00  0.00    -0.191 C  
HETATM    9  N   UNL     1      -8.472   7.720  69.682  1.00  0.00    -0.132 N  
HETATM   10  O   UNL     1      -5.719   8.355  69.371  1.00  0.00    -0.030 OA 
HETATM   11  C   UNL     1      -8.433   8.809  70.481  1.00  0.00    -0.166 C  
HETATM   12  O   UNL     1      -7.544   9.616  70.636  1.00  0.00    -0.210 OA 
ENDROOT
BRANCH   4  13
HETATM   13  C   UNL     1      -7.610   5.515  66.689  1.00  0.00    -0.088 C  
BRANCH  13  14
HETATM   14  S   UNL     1      -8.350   5.798  65.063  1.00  0.00    -0.118 SA 
BRANCH  14  15
HETATM   15  C   UNL     1      -7.594   7.224  64.483  1.00  0.00    -0.107 A  
HETATM   16  N   UNL     1      -8.109   8.422  64.349  1.00  0.00    -0.158 NA 
HETATM   17  N   UNL     1      -7.114   9.201  63.808  1.00  0.00    -0.092 NA 
HETATM   18  C   UNL     1      -5.312   6.213  64.019  1.00  0.00    -0.018 C  
HETATM   19  N   UNL     1      -6.299   7.257  64.051  1.00  0.00    -0.044 NA 
HETATM   20  N   UNL     1      -6.005   8.498  63.622  1.00  0.00    -0.072 NA 
ENDBRANCH  14  15
ENDBRANCH  13  14
ENDBRANCH   4  13
BRANCH   8  21
HETATM   21  N   UNL     1     -10.922   9.484  70.290  1.00  0.00    -0.252 N  
HETATM   22  O   UNL     1      -9.465  11.082  69.562  1.00  0.00     0.050 OA 
HETATM   23  H   UNL     1     -11.908   9.235  70.372  1.00  0.00     0.000 HD 
HETATM   24  C   UNL     1     -10.610  10.639  69.607  1.00  0.00    -0.217 C  
BRANCH  24  25
HETATM   25  C   UNL     1     -11.818  11.326  68.930  1.00  0.00    -0.345 C  
BRANCH  25  26
HETATM   26  O   UNL     1     -11.905  10.818  67.584  1.00  0.00    -0.505 OA 
HETATM   27  O   UNL     1      -9.614  10.557  67.550  1.00  0.00    -0.158 OA 
HETATM   28  C   UNL     1     -10.716  10.458  67.038  1.00  0.00    -0.235 C  
ENDBRANCH  25  26
BRANCH  25  29
HETATM   29  C   UNL     1     -11.664  12.842  68.921  1.00  0.00    -0.370 A  
HETATM   30  C   UNL     1     -12.005  13.576  70.065  1.00  0.00    -0.410 A  
HETATM   31  C   UNL     1     -11.890  14.967  70.077  1.00  0.00    -0.353 A  
HETATM   32  C   UNL     1     -11.418  15.640  68.953  1.00  0.00    -0.367 A  
HETATM   33  C   UNL     1     -11.059  14.925  67.814  1.00  0.00    -0.313 A  
HETATM   34  C   UNL     1     -11.180  13.536  67.798  1.00  0.00    -0.308 A  
ENDBRANCH  25  29
ENDBRANCH  24  25
ENDBRANCH   8  21
TORSDOF 7
ENDMDL
MODEL      226
REMARK 921   NORMALIZED FREE ENERGY PREDICTED BY IDOCK:   -0.78 KCAL/MOL
REMARK 922        TOTAL FREE ENERGY PREDICTED BY IDOCK:   -2.59 KCAL/MOL
REMARK 923 INTER-LIGAND FREE ENERGY PREDICTED BY IDOCK:   -1.70 KCAL/MOL
REMARK 924 INTRA-LIGAND FREE ENERGY PREDICTED BY IDOCK:   -0.90 KCAL/MOL
REMARK 927      BINDING AFFINITY PREDICTED BY RF-SCORE:    0.00 PKD
ROOT
HETATM    1  C   UNL     1     -10.773  10.266  67.988  1.00  0.00    -0.255 C  
HETATM    2  S   UNL     1      -9.487  10.924  69.085  1.00  0.00    -0.018 SA 
HETATM    3  C   UNL     1      -8.678  11.848  67.763  1.00  0.00    -0.158 C  
HETATM    4  C   UNL     1      -8.421  11.047  66.491  1.00  0.00    -0.161 C  
HETATM    5  OXT UNL     1      -7.571   9.215  64.408  1.00  0.00    -0.108 OA 
HETATM    6  CA  UNL     1      -9.095   9.906  66.161  1.00  0.00    -0.158 C  
HETATM    7  C   UNL     1      -8.646   9.070  64.973  1.00  0.00    -0.181 C  
HETATM    8  CA  UNL     1     -11.440   8.935  68.483  1.00  0.00     0.908 C  
HETATM    9  N   UNL     1     -10.137   9.482  66.945  1.00  0.00    -0.213 N  
HETATM   10  O   UNL     1      -9.530   8.174  64.496  1.00  0.00     1.111 OA 
HETATM   11  C   UNL     1     -10.855   8.355  67.145  1.00  0.00    -0.002 C  
HETATM   12  O   UNL     1     -10.874   7.331  66.498  1.00  0.00    -0.066 OA 
ENDROOT
BRANCH   4  13
HETATM   13  C   UNL     1      -7.229  11.637  65.737  1.00  0.00     0.829 C  
BRANCH  13  14
HETATM   14  S   UNL     1      -5.621  11.507  66.554  1.00  0.00    -0.051 SA 
BRANCH  14  15
HETATM   15  C   UNL     1      -5.814  10.243  67.698  1.00  0.00    -0.045 A  
HETATM   16  N   UNL     1      -6.184  10.330  68.953  1.00  0.00    -0.047 NA 
HETATM   17  N   UNL     1      -6.144   9.048  69.446  1.00  0.00    -0.040 NA 
HETATM   18  C   UNL     1      -5.161   8.324  66.170  1.00  0.00    -0.024 C  
HETATM   19  N   UNL     1      -5.566   8.933  67.408  1.00  0.00    -0.038 NA 
HETATM   20  N   UNL     1      -5.767   8.187  68.509  1.00  0.00    -0.036 NA 
ENDBRANCH  14  15
ENDBRANCH  13  14
ENDBRANCH   4  13
BRANCH   8  21
HETATM   21  N   UNL     1     -10.852   8.379  69.731  1.00  0.00    -0.340 N  
HETATM   22  O   UNL     1     -12.394   6.737  70.092  1.00  0.00    -0.158 OA 
HETATM   23  H   UNL     1     -10.027   8.843  70.112  1.00  0.00     0.000 HD 
HETATM   24  C   UNL     1     -11.340   7.283  70.407  1.00  0.00    -0.271 C  
BRANCH  24  25
HETATM   25  C   UNL     1     -10.461   6.822  71.593  1.00  0.00    -0.209 C  
BRANCH  25  26
HETATM   26  O   UNL     1      -9.317   7.697  71.648  1.00  0.00    -0.137 OA 
HETATM   27  O   UNL     1      -9.343   7.562  73.949  1.00  0.00    -0.254 OA 
HETATM   28  C   UNL     1      -8.864   7.957  72.900  1.00  0.00    -0.202 C  
ENDBRANCH  25  26
BRANCH  25  29
HETATM   29  C   UNL     1     -10.020   5.373  71.428  1.00  0.00    -0.241 A  
HETATM   30  C   UNL     1      -9.971   4.535  72.550  1.00  0.00    -0.225 A  
HETATM   31  C   UNL     1      -9.554   3.209  72.429  1.00  0.00    -0.195 A  
HETATM   32  C   UNL     1      -9.195   2.699  71.184  1.00  0.00    -0.196 A  
HETATM   33  C   UNL     1      -9.253   3.512  70.056  1.00  0.00    -0.226 A  
HETATM   34  C   UNL     1      -9.663   4.839  70.176  1.00  0.00    -0.288 A  
ENDBRANCH  25  29
ENDBRANCH  24  25
ENDBRANCH   8  21
TORSDOF 7
ENDMDL
MODEL      227
REMARK 921   NORMALIZED FREE ENERGY PREDICTED BY IDOCK:   -0.52 KCAL/MOL
REMARK 922        TOTAL FREE ENERGY PREDICTED BY IDOCK:   -2.23 KCAL/MOL
REMARK 923 INTER-LIGAND FREE ENERGY PREDICTED BY IDOCK:   -2.34 KCAL/MOL
REMARK 924 INTRA-LIGAND FREE ENERGY PREDICTED BY IDOCK:    0.11 KCAL/MOL
REMARK 927      BINDING AFFINITY PREDICTED BY RF-SCORE:    0.00 PKD
ROOT
HETATM    1  C   UNL     1     -10.837   8.836  68.772  1.00  0.00     0.013 C  
HETATM    2  S   UNL     1      -9.192   9.599  68.767  1.00  0.00    -0.145 SA 
HETATM    3  C   UNL     1      -9.126   9.706  66.967  1.00  0.00    -0.135 C  
HETATM    4  C   UNL     1      -9.499   8.420  66.239  1.00  0.00    -0.292 C  
HETATM    5  OXT UNL     1      -9.725   5.761  65.100  1.00  0.00     0.385 OA 
HETATM    6  CA  UNL     1     -10.234   7.414  66.798  1.00  0.00    -0.242 C  
HETATM    7  C   UNL     1     -10.397   6.090  66.068  1.00  0.00     0.284 C  
HETATM    8  CA  UNL     1     -11.168   7.998  70.057  1.00  0.00    -0.090 C  
HETATM    9  N   UNL     1     -10.767   7.578  68.050  1.00  0.00    -0.152 N  
HETATM   10  O   UNL     1     -11.390   5.285  66.491  1.00  0.00     0.280 OA 
HETATM   11  C   UNL     1     -11.287   6.811  69.034  1.00  0.00    -0.081 C  
HETATM   12  O   UNL     1     -11.600   5.641  69.012  1.00  0.00     0.489 OA 
ENDROOT
BRANCH   4  13
HETATM   13  C   UNL     1      -8.821   8.383  64.868  1.00  0.00     0.067 C  
BRANCH  13  14
HETATM   14  S   UNL     1      -7.076   7.910  64.851  1.00  0.00    -0.070 SA 
BRANCH  14  15
HETATM   15  C   UNL     1      -6.225   9.388  64.664  1.00  0.00    -0.078 A  
HETATM   16  N   UNL     1      -5.787   9.942  63.559  1.00  0.00    -0.108 NA 
HETATM   17  N   UNL     1      -5.139  11.090  63.946  1.00  0.00    -0.208 NA 
HETATM   18  C   UNL     1      -6.141  10.025  67.120  1.00  0.00    -0.055 C  
HETATM   19  N   UNL     1      -5.873  10.182  65.717  1.00  0.00    -0.066 NA 
HETATM   20  N   UNL     1      -5.186  11.246  65.262  1.00  0.00    -0.204 NA 
ENDBRANCH  14  15
ENDBRANCH  13  14
ENDBRANCH   4  13
BRANCH   8  21
HETATM   21  N   UNL     1     -10.047   7.893  71.028  1.00  0.00    -0.192 N  
HETATM   22  O   UNL     1     -11.248   8.292  72.927  1.00  0.00    -0.337 OA 
HETATM   23  H   UNL     1      -9.110   7.739  70.655  1.00  0.00     0.000 HD 
HETATM   24  C   UNL     1     -10.183   7.987  72.395  1.00  0.00    -0.280 C  
BRANCH  24  25
HETATM   25  C   UNL     1      -8.886   7.698  73.187  1.00  0.00    -0.179 C  
BRANCH  25  26
HETATM   26  O   UNL     1      -7.816   8.414  72.540  1.00  0.00    -0.188 OA 
HETATM   27  O   UNL     1      -6.533   8.190  74.442  1.00  0.00    -0.105 OA 
HETATM   28  C   UNL     1      -6.697   8.562  73.293  1.00  0.00    -0.044 C  
ENDBRANCH  25  26
BRANCH  25  29
HETATM   29  C   UNL     1      -8.582   6.206  73.231  1.00  0.00    -0.123 A  
HETATM   30  C   UNL     1      -8.339   5.587  74.464  1.00  0.00    -0.105 A  
HETATM   31  C   UNL     1      -8.040   4.226  74.529  1.00  0.00    -0.087 A  
HETATM   32  C   UNL     1      -7.996   3.462  73.366  1.00  0.00    -0.074 A  
HETATM   33  C   UNL     1      -8.251   4.056  72.134  1.00  0.00    -0.089 A  
HETATM   34  C   UNL     1      -8.543   5.418  72.065  1.00  0.00    -0.131 A  
ENDBRANCH  25  29
ENDBRANCH  24  25
ENDBRANCH   8  21
TORSDOF 7
ENDMDL
MODEL      228
REMARK 921   NORMALIZED FREE ENERGY PREDICTED BY IDOCK:   -0.51 KCAL/MOL
REMARK 922        TOTAL FREE ENERGY PREDICTED BY IDOCK:   -2.21 KCAL/MOL
REMARK 923 INTER-LIGAND FREE ENERGY PREDICTED BY IDOCK:   -2.68 KCAL/MOL
REMARK 924 INTRA-LIGAND FREE ENERGY PREDICTED BY IDOCK:    0.47 KCAL/MOL
REMARK 927      BINDING AFFINITY PREDICTED BY RF-SCORE:    0.00 PKD
ROOT
HETATM    1  C   UNL     1     -10.519   8.316  69.508  1.00  0.00    -0.227 C  
HETATM    2  S   UNL     1     -10.456   7.064  68.198  1.00  0.00    -0.202 SA 
HETATM    3  C   UNL     1     -10.170   5.709  69.354  1.00  0.00    -0.245 C  
HETATM    4  C   UNL     1      -9.067   5.966  70.375  1.00  0.00    -0.157 C  
HETATM    5  OXT UNL     1      -6.619   6.454  71.854  1.00  0.00    -0.056 OA 
HETATM    6  CA  UNL     1      -8.622   7.210  70.718  1.00  0.00    -0.146 C  
HETATM    7  C   UNL     1      -7.393   7.366  71.600  1.00  0.00    -0.075 C  
HETATM    8  CA  UNL     1     -10.183   9.775  69.039  1.00  0.00    -0.203 C  
HETATM    9  N   UNL     1      -9.246   8.319  70.207  1.00  0.00    -0.153 N  
HETATM   10  O   UNL     1      -7.212   8.570  72.176  1.00  0.00    -0.107 OA 
HETATM   11  C   UNL     1      -8.998   9.639  70.062  1.00  0.00    -0.237 C  
HETATM   12  O   UNL     1      -8.108  10.311  70.536  1.00  0.00     0.002 OA 
ENDROOT
BRANCH   4  13
HETATM   13  C   UNL     1      -8.468   4.637  70.838  1.00  0.00    -0.098 C  
BRANCH  13  14
HETATM   14  S   UNL     1      -9.282   3.139  70.235  1.00  0.00    -0.159 SA 
BRANCH  14  15
HETATM   15  C   UNL     1      -8.203   2.497  69.066  1.00  0.00    -0.051 A  
HETATM   16  N   UNL     1      -6.964   2.101  69.233  1.00  0.00    -0.033 NA 
HETATM   17  N   UNL     1      -6.524   1.712  67.990  1.00  0.00    -0.028 NA 
HETATM   18  C   UNL     1      -9.778   2.608  67.078  1.00  0.00     0.386 C  
HETATM   19  N   UNL     1      -8.536   2.342  67.752  1.00  0.00    -0.078 NA 
HETATM   20  N   UNL     1      -7.477   1.855  67.079  1.00  0.00    -0.059 NA 
ENDBRANCH  14  15
ENDBRANCH  13  14
ENDBRANCH   4  13
BRANCH   8  21
HETATM   21  N   UNL     1      -9.784   9.885  67.610  1.00  0.00    -0.152 N  
HETATM   22  O   UNL     1      -7.583   9.338  67.864  1.00  0.00    -0.084 OA 
HETATM   23  H   UNL     1     -10.491  10.194  66.944  1.00  0.00     0.000 HD 
HETATM   24  C   UNL     1      -8.528   9.598  67.124  1.00  0.00    -0.131 C  
BRANCH  24  25
HETATM   25  C   UNL     1      -8.414   9.653  65.582  1.00  0.00    -0.132 C  
BRANCH  25  26
HETATM   26  O   UNL     1      -9.746   9.532  65.046  1.00  0.00    -0.248 OA 
HETATM   27  O   UNL     1      -8.949  10.128  62.967  1.00  0.00    -0.199 OA 
HETATM   28  C   UNL     1      -9.846   9.784  63.717  1.00  0.00     0.587 C  
ENDBRANCH  25  26
BRANCH  25  29
HETATM   29  C   UNL     1      -7.520   8.539  65.051  1.00  0.00    -0.089 A  
HETATM   30  C   UNL     1      -7.753   7.217  65.450  1.00  0.00    -0.111 A  
HETATM   31  C   UNL     1      -6.938   6.182  64.992  1.00  0.00    -0.055 A  
HETATM   32  C   UNL     1      -5.889   6.452  64.117  1.00  0.00    -0.023 A  
HETATM   33  C   UNL     1      -5.652   7.757  63.697  1.00  0.00    -0.049 A  
HETATM   34  C   UNL     1      -6.461   8.794  64.159  1.00  0.00    -0.072 A  
ENDBRANCH  25  29
ENDBRANCH  24  25
ENDBRANCH   8  21
TORSDOF 7
ENDMDL
MODEL      229
REMARK 921   NORMALIZED FREE ENERGY PREDICTED BY IDOCK:   -0.37 KCAL/MOL
REMARK 922        TOTAL FREE ENERGY PREDICTED BY IDOCK:   -2.02 KCAL/MOL
REMARK 923 INTER-LIGAND FREE ENERGY PREDICTED BY IDOCK:   -3.55 KCAL/MOL
REMARK 924 INTRA-LIGAND FREE ENERGY PREDICTED BY IDOCK:    1.54 KCAL/MOL
REMARK 927      BINDING AFFINITY PREDICTED BY RF-SCORE:    0.00 PKD
ROOT
HETATM    1  C   UNL     1      -8.057   9.732  66.531  1.00  0.00    -0.116 C  
HETATM    2  S   UNL     1      -9.811  10.157  66.707  1.00  0.00    -0.204 SA 
HETATM    3  C   UNL     1      -9.540  11.900  66.329  1.00  0.00    -0.229 C  
HETATM    4  C   UNL     1      -8.398  12.549  67.104  1.00  0.00    -0.179 C  
HETATM    5  OXT UNL     1      -6.562  13.687  69.041  1.00  0.00    -0.099 OA 
HETATM    6  CA  UNL     1      -7.380  11.851  67.687  1.00  0.00    -0.123 C  
HETATM    7  C   UNL     1      -6.390  12.560  68.598  1.00  0.00    -0.073 C  
HETATM    8  CA  UNL     1      -7.613   8.440  67.303  1.00  0.00    -0.097 C  
HETATM    9  N   UNL     1      -7.295  10.494  67.503  1.00  0.00    -0.091 N  
HETATM   10  O   UNL     1      -5.238  11.913  68.858  1.00  0.00    -0.050 OA 
HETATM   11  C   UNL     1      -6.670   9.437  68.067  1.00  0.00    -0.063 C  
HETATM   12  O   UNL     1      -5.789   9.420  68.898  1.00  0.00    -0.039 OA 
ENDROOT
BRANCH   4  13
HETATM   13  C   UNL     1      -8.645  14.053  67.230  1.00  0.00    -0.216 C  
BRANCH  13  14
HETATM   14  S   UNL     1      -9.054  14.660  68.884  1.00  0.00    -0.100 SA 
BRANCH  14  15
HETATM   15  C   UNL     1     -10.743  14.406  69.037  1.00  0.00    -0.250 A  
HETATM   16  N   UNL     1     -11.710  15.289  68.956  1.00  0.00    -0.337 NA 
HETATM   17  N   UNL     1     -12.873  14.594  69.188  1.00  0.00     0.408 NA 
HETATM   18  C   UNL     1     -10.657  11.903  69.448  1.00  0.00     0.118 C  
HETATM   19  N   UNL     1     -11.292  13.183  69.296  1.00  0.00    -0.268 NA 
HETATM   20  N   UNL     1     -12.627  13.307  69.397  1.00  0.00     0.149 NA 
ENDBRANCH  14  15
ENDBRANCH  13  14
ENDBRANCH   4  13
BRANCH   8  21
HETATM   21  N   UNL     1      -8.685   7.817  68.126  1.00  0.00    -0.126 N  
HETATM   22  O   UNL     1      -8.371   9.050  70.021  1.00  0.00    -0.118 OA 
HETATM   23  H   UNL     1      -9.206   7.043  67.716  1.00  0.00     0.000 HD 
HETATM   24  C   UNL     1      -9.022   8.212  69.402  1.00  0.00    -0.147 C  
BRANCH  24  25
HETATM   25  C   UNL     1     -10.266   7.499  69.981  1.00  0.00    -0.215 C  
BRANCH  25  26
HETATM   26  O   UNL     1     -10.653   8.209  71.174  1.00  0.00    -0.201 OA 
HETATM   27  O   UNL     1     -12.831   8.261  70.419  1.00  0.00     0.538 OA 
HETATM   28  C   UNL     1     -11.976   8.502  71.254  1.00  0.00    -0.294 C  
ENDBRANCH  25  26
BRANCH  25  29
HETATM   29  C   UNL     1      -9.973   6.038  70.299  1.00  0.00    -0.236 A  
HETATM   30  C   UNL     1     -10.070   5.078  69.283  1.00  0.00    -0.270 A  
HETATM   31  C   UNL     1      -9.824   3.731  69.552  1.00  0.00    -0.020 A  
HETATM   32  C   UNL     1      -9.463   3.328  70.835  1.00  0.00    -0.234 A  
HETATM   33  C   UNL     1      -9.345   4.270  71.853  1.00  0.00    -0.186 A  
HETATM   34  C   UNL     1      -9.598   5.615  71.588  1.00  0.00    -0.184 A  
ENDBRANCH  25  29
ENDBRANCH  24  25
ENDBRANCH   8  21
TORSDOF 7
ENDMDL
MODEL      230
REMARK 921   NORMALIZED FREE ENERGY PREDICTED BY IDOCK:   -0.24 KCAL/MOL
REMARK 922        TOTAL FREE ENERGY PREDICTED BY IDOCK:   -1.83 KCAL/MOL
REMARK 923 INTER-LIGAND FREE ENERGY PREDICTED BY IDOCK:   -2.50 KCAL/MOL
REMARK 924 INTRA-LIGAND FREE ENERGY PREDICTED BY IDOCK:    0.67 KCAL/MOL
REMARK 927      BINDING AFFINITY PREDICTED BY RF-SCORE:    0.00 PKD
ROOT
HETATM    1  C   UNL     1     -10.898  15.387  66.094  1.00  0.00    -0.313 C  
HETATM    2  S   UNL     1     -11.938  14.326  67.134  1.00  0.00    -0.371 SA 
HETATM    3  C   UNL     1     -12.338  15.657  68.284  1.00  0.00     0.583 C  
HETATM    4  C   UNL     1     -11.136  16.457  68.774  1.00  0.00    -0.337 C  
HETATM    5  OXT UNL     1      -8.693  17.480  69.959  1.00  0.00     1.437 OA 
HETATM    6  CA  UNL     1      -9.938  16.508  68.120  1.00  0.00    -0.248 C  
HETATM    7  C   UNL     1      -8.738  17.174  68.775  1.00  0.00    -0.235 C  
HETATM    8  CA  UNL     1      -9.822  14.623  65.245  1.00  0.00    -0.193 C  
HETATM    9  N   UNL     1      -9.803  15.896  66.901  1.00  0.00    -0.238 N  
HETATM   10  O   UNL     1      -7.709  17.495  67.967  1.00  0.00    -0.200 OA 
HETATM   11  C   UNL     1      -8.809  15.484  66.083  1.00  0.00    -0.238 C  
HETATM   12  O   UNL     1      -7.620  15.705  66.147  1.00  0.00     0.338 OA 
ENDROOT
BRANCH   4  13
HETATM   13  C   UNL     1     -11.439  17.066  70.143  1.00  0.00     0.960 C  
BRANCH  13  14
HETATM   14  S   UNL     1     -11.510  15.911  71.534  1.00  0.00    -0.362 SA 
BRANCH  14  15
HETATM   15  C   UNL     1     -11.580  14.358  70.808  1.00  0.00    -0.167 A  
HETATM   16  N   UNL     1     -10.724  13.807  69.982  1.00  0.00     0.430 NA 
HETATM   17  N   UNL     1     -11.251  12.579  69.659  1.00  0.00    -0.095 NA 
HETATM   18  C   UNL     1     -13.775  13.615  71.845  1.00  0.00    -0.410 C  
HETATM   19  N   UNL     1     -12.611  13.487  71.010  1.00  0.00    -0.365 NA 
HETATM   20  N   UNL     1     -12.404  12.375  70.282  1.00  0.00    -0.239 NA 
ENDBRANCH  14  15
ENDBRANCH  13  14
ENDBRANCH   4  13
BRANCH   8  21
HETATM   21  N   UNL     1      -9.771  13.157  65.493  1.00  0.00    -0.480 N  
HETATM   22  O   UNL     1     -10.491  12.474  63.438  1.00  0.00    -0.397 OA 
HETATM   23  H   UNL     1      -9.510  12.844  66.427  1.00  0.00     0.000 HD 
HETATM   24  C   UNL     1     -10.051  12.193  64.550  1.00  0.00    -0.259 C  
BRANCH  24  25
HETATM   25  C   UNL     1      -9.783  10.744  65.020  1.00  0.00    -0.269 C  
BRANCH  25  26
HETATM   26  O   UNL     1      -9.405  10.805  66.410  1.00  0.00    -0.167 OA 
HETATM   27  O   UNL     1     -10.825   9.044  66.858  1.00  0.00    -0.155 OA 
HETATM   28  C   UNL     1      -9.999   9.874  67.198  1.00  0.00    -0.200 C  
ENDBRANCH  25  26
BRANCH  25  29
HETATM   29  C   UNL     1      -8.686  10.085  64.195  1.00  0.00    -0.221 A  
HETATM   30  C   UNL     1      -7.423  10.687  64.121  1.00  0.00     0.216 A  
HETATM   31  C   UNL     1      -6.406  10.113  63.357  1.00  0.00    -0.140 A  
HETATM   32  C   UNL     1      -6.632   8.923  62.670  1.00  0.00    -0.094 A  
HETATM   33  C   UNL     1      -7.875   8.303  62.745  1.00  0.00    -0.139 A  
HETATM   34  C   UNL     1      -8.895   8.879  63.502  1.00  0.00     0.064 A  
ENDBRANCH  25  29
ENDBRANCH  24  25
ENDBRANCH   8  21
TORSDOF 7
ENDMDL
MODEL      231
REMARK 921   NORMALIZED FREE ENERGY PREDICTED BY IDOCK:    0.84 KCAL/MOL
REMARK 922        TOTAL FREE ENERGY PREDICTED BY IDOCK:   -0.31 KCAL/MOL
REMARK 923 INTER-LIGAND FREE ENERGY PREDICTED BY IDOCK:   -1.06 KCAL/MOL
REMARK 924 INTRA-LIGAND FREE ENERGY PREDICTED BY IDOCK:    0.75 KCAL/MOL
REMARK 927      BINDING AFFINITY PREDICTED BY RF-SCORE:    0.00 PKD
ROOT
HETATM    1  C   UNL     1      -8.397  13.487  68.855  1.00  0.00     0.178 C  
HETATM    2  S   UNL     1      -7.133  12.937  67.677  1.00  0.00    -0.157 SA 
HETATM    3  C   UNL     1      -6.850  14.599  67.036  1.00  0.00     0.638 C  
HETATM    4  C   UNL     1      -8.117  15.364  66.668  1.00  0.00    -0.133 C  
HETATM    5  OXT UNL     1     -10.587  16.409  65.562  1.00  0.00    -0.398 OA 
HETATM    6  CA  UNL     1      -9.355  15.065  67.159  1.00  0.00    -0.215 C  
HETATM    7  C   UNL     1     -10.587  15.755  66.595  1.00  0.00    -0.307 C  
HETATM    8  CA  UNL     1      -9.408  12.373  69.300  1.00  0.00     0.871 C  
HETATM    9  N   UNL     1      -9.490  14.090  68.113  1.00  0.00    -0.209 N  
HETATM   10  O   UNL     1     -11.712  15.682  67.333  1.00  0.00    -0.090 OA 
HETATM   11  C   UNL     1     -10.471  13.327  68.645  1.00  0.00    -0.228 C  
HETATM   12  O   UNL     1     -11.672  13.415  68.509  1.00  0.00    -0.313 OA 
ENDROOT
BRANCH   4  13
HETATM   13  C   UNL     1      -7.803  16.403  65.591  1.00  0.00     1.395 C  
BRANCH  13  14
HETATM   14  S   UNL     1      -7.134  17.980  66.171  1.00  0.00    -0.302 SA 
BRANCH  14  15
HETATM   15  C   UNL     1      -6.599  17.665  67.770  1.00  0.00    -0.181 A  
HETATM   16  N   UNL     1      -5.425  17.237  68.166  1.00  0.00    -0.123 NA 
HETATM   17  N   UNL     1      -5.513  17.107  69.532  1.00  0.00    -0.172 NA 
HETATM   18  C   UNL     1      -8.756  18.281  68.959  1.00  0.00    -0.011 C  
HETATM   19  N   UNL     1      -7.399  17.816  68.866  1.00  0.00    -0.266 NA 
HETATM   20  N   UNL     1      -6.716  17.458  69.968  1.00  0.00     0.277 NA 
ENDBRANCH  14  15
ENDBRANCH  13  14
ENDBRANCH   4  13
BRANCH   8  21
HETATM   21  N   UNL     1      -9.220  11.064  68.620  1.00  0.00    -0.183 N  
HETATM   22  O   UNL     1     -10.539  11.470  66.803  1.00  0.00    -0.229 OA 
HETATM   23  H   UNL     1      -8.657  10.360  69.097  1.00  0.00     0.000 HD 
HETATM   24  C   UNL     1      -9.751  10.735  67.393  1.00  0.00    -0.171 C  
BRANCH  24  25
HETATM   25  C   UNL     1      -9.286   9.366  66.843  1.00  0.00    -0.140 C  
BRANCH  25  26
HETATM   26  O   UNL     1      -8.182   8.926  67.658  1.00  0.00    -0.109 OA 
HETATM   27  O   UNL     1      -9.523   7.285  68.565  1.00  0.00    -0.141 OA 
HETATM   28  C   UNL     1      -8.454   7.861  68.453  1.00  0.00    -0.128 C  
ENDBRANCH  25  26
BRANCH  25  29
HETATM   29  C   UNL     1      -8.866   9.467  65.382  1.00  0.00    -0.213 A  
HETATM   30  C   UNL     1      -8.611  10.726  64.823  1.00  0.00    -0.079 A  
HETATM   31  C   UNL     1      -8.243  10.847  63.482  1.00  0.00     0.161 A  
HETATM   32  C   UNL     1      -8.109   9.712  62.688  1.00  0.00    -0.131 A  
HETATM   33  C   UNL     1      -8.342   8.452  63.231  1.00  0.00    -0.075 A  
HETATM   34  C   UNL     1      -8.717   8.329  64.568  1.00  0.00     0.123 A  
ENDBRANCH  25  29
ENDBRANCH  24  25
ENDBRANCH   8  21
TORSDOF 7
ENDMDL
MODEL      232
REMARK 921   NORMALIZED FREE ENERGY PREDICTED BY IDOCK:    2.14 KCAL/MOL
REMARK 922        TOTAL FREE ENERGY PREDICTED BY IDOCK:    1.53 KCAL/MOL
REMARK 923 INTER-LIGAND FREE ENERGY PREDICTED BY IDOCK:   -5.89 KCAL/MOL
REMARK 924 INTRA-LIGAND FREE ENERGY PREDICTED BY IDOCK:    7.41 KCAL/MOL
REMARK 927      BINDING AFFINITY PREDICTED BY RF-SCORE:    0.00 PKD
ROOT
HETATM    1  C   UNL     1      -9.371  12.151  67.792  1.00  0.00    -0.193 C  
HETATM    2  S   UNL     1      -8.383  10.774  68.439  1.00  0.00    -0.139 SA 
HETATM    3  C   UNL     1      -7.115  10.941  67.167  1.00  0.00    -0.103 C  
HETATM    4  C   UNL     1      -7.651  11.042  65.743  1.00  0.00     0.058 C  
HETATM    5  OXT UNL     1      -8.852  10.688  63.126  1.00  0.00    -0.184 OA 
HETATM    6  CA  UNL     1      -8.926  11.420  65.435  1.00  0.00    -0.047 C  
HETATM    7  C   UNL     1      -9.431  11.310  64.005  1.00  0.00    -0.180 C  
HETATM    8  CA  UNL     1     -10.892  12.105  68.174  1.00  0.00    -0.222 C  
HETATM    9  N   UNL     1      -9.771  11.834  66.433  1.00  0.00    -0.209 N  
HETATM   10  O   UNL     1     -10.546  12.003  63.703  1.00  0.00    -0.371 OA 
HETATM   11  C   UNL     1     -11.097  12.022  66.619  1.00  0.00    -0.310 C  
HETATM   12  O   UNL     1     -11.995  12.017  65.806  1.00  0.00    -0.514 OA 
ENDROOT
BRANCH   4  13
HETATM   13  C   UNL     1      -6.600  10.536  64.755  1.00  0.00     0.027 C  
BRANCH  13  14
HETATM   14  S   UNL     1      -5.656   9.080  65.266  1.00  0.00    -0.046 SA 
BRANCH  14  15
HETATM   15  C   UNL     1      -6.716   8.214  66.299  1.00  0.00    -0.054 A  
HETATM   16  N   UNL     1      -7.873   7.668  66.007  1.00  0.00    -0.096 NA 
HETATM   17  N   UNL     1      -8.343   7.132  67.182  1.00  0.00    -0.117 NA 
HETATM   18  C   UNL     1      -5.321   8.386  68.413  1.00  0.00    -0.034 C  
HETATM   19  N   UNL     1      -6.461   8.007  67.624  1.00  0.00    -0.055 NA 
HETATM   20  N   UNL     1      -7.488   7.334  68.175  1.00  0.00    -0.100 NA 
ENDBRANCH  14  15
ENDBRANCH  13  14
ENDBRANCH   4  13
BRANCH   8  21
HETATM   21  N   UNL     1     -11.298  10.894  68.937  1.00  0.00    -0.264 N  
HETATM   22  O   UNL     1      -9.214  10.023  69.261  1.00  0.00    -0.178 OA 
HETATM   23  H   UNL     1     -12.296  10.732  69.071  1.00  0.00     0.000 HD 
HETATM   24  C   UNL     1     -10.423   9.977  69.475  1.00  0.00    -0.240 C  
BRANCH  24  25
HETATM   25  C   UNL     1     -11.094   8.888  70.344  1.00  0.00    -0.239 C  
BRANCH  25  26
HETATM   26  O   UNL     1     -11.779   9.558  71.421  1.00  0.00    -0.336 OA 
HETATM   27  O   UNL     1     -12.769   7.563  72.014  1.00  0.00    -0.286 OA 
HETATM   28  C   UNL     1     -12.566   8.753  72.178  1.00  0.00    -0.399 C  
ENDBRANCH  25  26
BRANCH  25  29
HETATM   29  C   UNL     1     -10.069   7.903  70.893  1.00  0.00    -0.205 A  
HETATM   30  C   UNL     1      -9.953   6.634  70.311  1.00  0.00    -0.191 A  
HETATM   31  C   UNL     1      -9.035   5.707  70.806  1.00  0.00    -0.154 A  
HETATM   32  C   UNL     1      -8.211   6.042  71.878  1.00  0.00    -0.115 A  
HETATM   33  C   UNL     1      -8.301   7.303  72.457  1.00  0.00    -0.124 A  
HETATM   34  C   UNL     1      -9.223   8.229  71.969  1.00  0.00    -0.270 A  
ENDBRANCH  25  29
ENDBRANCH  24  25
ENDBRANCH   8  21
TORSDOF 7
ENDMDL
MODEL      233
REMARK 921   NORMALIZED FREE ENERGY PREDICTED BY IDOCK:    3.00 KCAL/MOL
REMARK 922        TOTAL FREE ENERGY PREDICTED BY IDOCK:    2.74 KCAL/MOL
REMARK 923 INTER-LIGAND FREE ENERGY PREDICTED BY IDOCK:   -3.84 KCAL/MOL
REMARK 924 INTRA-LIGAND FREE ENERGY PREDICTED BY IDOCK:    6.58 KCAL/MOL
REMARK 927      BINDING AFFINITY PREDICTED BY RF-SCORE:    0.00 PKD
ROOT
HETATM    1  C   UNL     1      -6.539  11.510  68.693  1.00  0.00    -0.064 C  
HETATM    2  S   UNL     1      -8.306  11.557  69.101  1.00  0.00     0.322 SA 
HETATM    3  C   UNL     1      -8.431   9.764  69.257  1.00  0.00    -0.152 C  
HETATM    4  C   UNL     1      -7.818   8.980  68.102  1.00  0.00    -0.100 C  
HETATM    5  OXT UNL     1      -7.075   7.734  65.589  1.00  0.00    -0.059 OA 
HETATM    6  CA  UNL     1      -6.881   9.489  67.249  1.00  0.00    -0.084 C  
HETATM    7  C   UNL     1      -6.465   8.705  66.014  1.00  0.00    -0.057 C  
HETATM    8  CA  UNL     1      -6.017  12.755  67.896  1.00  0.00    -0.118 C  
HETATM    9  N   UNL     1      -6.366  10.740  67.475  1.00  0.00    -0.056 N  
HETATM   10  O   UNL     1      -5.319   9.082  65.416  1.00  0.00    -0.037 OA 
HETATM   11  C   UNL     1      -5.678  11.685  66.796  1.00  0.00    -0.139 C  
HETATM   12  O   UNL     1      -5.133  11.612  65.717  1.00  0.00    -0.290 OA 
ENDROOT
BRANCH   4  13
HETATM   13  C   UNL     1      -8.502   7.618  67.976  1.00  0.00    -0.123 C  
BRANCH  13  14
HETATM   14  S   UNL     1      -7.788   6.471  66.774  1.00  0.00    -0.105 SA 
BRANCH  14  15
HETATM   15  C   UNL     1      -9.087   5.446  66.323  1.00  0.00    -0.143 A  
HETATM   16  N   UNL     1     -10.120   5.078  67.042  1.00  0.00    -0.205 NA 
HETATM   17  N   UNL     1     -10.847   4.225  66.245  1.00  0.00     0.576 NA 
HETATM   18  C   UNL     1      -8.307   4.956  63.958  1.00  0.00    -0.131 C  
HETATM   19  N   UNL     1      -9.175   4.850  65.099  1.00  0.00    -0.149 NA 
HETATM   20  N   UNL     1     -10.277   4.080  65.056  1.00  0.00    -0.204 NA 
ENDBRANCH  14  15
ENDBRANCH  13  14
ENDBRANCH   4  13
BRANCH   8  21
HETATM   21  N   UNL     1      -7.071  13.737  67.527  1.00  0.00    -0.229 N  
HETATM   22  O   UNL     1      -7.757  14.257  69.640  1.00  0.00     0.108 OA 
HETATM   23  H   UNL     1      -7.253  13.886  66.535  1.00  0.00     0.000 HD 
HETATM   24  C   UNL     1      -7.820  14.458  68.430  1.00  0.00    -0.138 C  
BRANCH  24  25
HETATM   25  C   UNL     1      -8.747  15.517  67.788  1.00  0.00    -0.167 C  
BRANCH  25  26
HETATM   26  O   UNL     1      -9.145  15.016  66.497  1.00  0.00    -0.261 OA 
HETATM   27  O   UNL     1      -9.903  13.082  67.497  1.00  0.00    -0.203 OA 
HETATM   28  C   UNL     1      -9.727  13.791  66.521  1.00  0.00    -0.293 C  
ENDBRANCH  25  26
BRANCH  25  29
HETATM   29  C   UNL     1      -8.043  16.861  67.648  1.00  0.00    -0.193 A  
HETATM   30  C   UNL     1      -6.926  17.142  68.446  1.00  0.00    -0.195 A  
HETATM   31  C   UNL     1      -6.275  18.372  68.349  1.00  0.00    -0.199 A  
HETATM   32  C   UNL     1      -6.721  19.331  67.443  1.00  0.00    -0.213 A  
HETATM   33  C   UNL     1      -7.818  19.063  66.631  1.00  0.00    -0.274 A  
HETATM   34  C   UNL     1      -8.475  17.837  66.731  1.00  0.00    -0.269 A  
ENDBRANCH  25  29
ENDBRANCH  24  25
ENDBRANCH   8  21
TORSDOF 7
ENDMDL
MODEL      234
REMARK 921   NORMALIZED FREE ENERGY PREDICTED BY IDOCK:    4.62 KCAL/MOL
REMARK 922        TOTAL FREE ENERGY PREDICTED BY IDOCK:    5.01 KCAL/MOL
REMARK 923 INTER-LIGAND FREE ENERGY PREDICTED BY IDOCK:   -0.65 KCAL/MOL
REMARK 924 INTRA-LIGAND FREE ENERGY PREDICTED BY IDOCK:    5.66 KCAL/MOL
REMARK 927      BINDING AFFINITY PREDICTED BY RF-SCORE:    0.00 PKD
ROOT
HETATM    1  C   UNL     1      -6.539  11.510  68.693  1.00  0.00    -0.064 C  
HETATM    2  S   UNL     1      -8.306  11.557  69.101  1.00  0.00     0.322 SA 
HETATM    3  C   UNL     1      -8.431   9.764  69.257  1.00  0.00    -0.152 C  
HETATM    4  C   UNL     1      -7.818   8.980  68.102  1.00  0.00    -0.100 C  
HETATM    5  OXT UNL     1      -7.075   7.734  65.589  1.00  0.00    -0.059 OA 
HETATM    6  CA  UNL     1      -6.881   9.489  67.249  1.00  0.00    -0.084 C  
HETATM    7  C   UNL     1      -6.465   8.705  66.014  1.00  0.00    -0.057 C  
HETATM    8  CA  UNL     1      -6.017  12.755  67.896  1.00  0.00    -0.118 C  
HETATM    9  N   UNL     1      -6.366  10.740  67.475  1.00  0.00    -0.056 N  
HETATM   10  O   UNL     1      -5.319   9.082  65.416  1.00  0.00    -0.037 OA 
HETATM   11  C   UNL     1      -5.678  11.685  66.796  1.00  0.00    -0.139 C  
HETATM   12  O   UNL     1      -5.133  11.612  65.717  1.00  0.00    -0.290 OA 
ENDROOT
BRANCH   4  13
HETATM   13  C   UNL     1      -8.502   7.618  67.976  1.00  0.00    -0.123 C  
BRANCH  13  14
HETATM   14  S   UNL     1      -7.788   6.471  66.774  1.00  0.00    -0.105 SA 
BRANCH  14  15
HETATM   15  C   UNL     1      -9.087   5.446  66.323  1.00  0.00    -0.143 A  
HETATM   16  N   UNL     1     -10.120   5.078  67.042  1.00  0.00    -0.205 NA 
HETATM   17  N   UNL     1     -10.847   4.225  66.245  1.00  0.00     0.576 NA 
HETATM   18  C   UNL     1      -8.307   4.956  63.958  1.00  0.00    -0.131 C  
HETATM   19  N   UNL     1      -9.175   4.850  65.099  1.00  0.00    -0.149 NA 
HETATM   20  N   UNL     1     -10.277   4.080  65.056  1.00  0.00    -0.204 NA 
ENDBRANCH  14  15
ENDBRANCH  13  14
ENDBRANCH   4  13
BRANCH   8  21
HETATM   21  N   UNL     1      -7.071  13.737  67.527  1.00  0.00    -0.229 N  
HETATM   22  O   UNL     1      -7.757  14.257  69.640  1.00  0.00     0.108 OA 
HETATM   23  H   UNL     1      -7.253  13.886  66.535  1.00  0.00     0.000 HD 
HETATM   24  C   UNL     1      -7.820  14.458  68.430  1.00  0.00    -0.138 C  
BRANCH  24  25
HETATM   25  C   UNL     1      -8.747  15.517  67.788  1.00  0.00    -0.167 C  
BRANCH  25  26
HETATM   26  O   UNL     1      -8.586  16.740  68.533  1.00  0.00    -0.225 OA 
HETATM   27  O   UNL     1      -6.310  16.641  68.177  1.00  0.00    -0.128 OA 
HETATM   28  C   UNL     1      -7.306  17.184  68.622  1.00  0.00    -0.238 C  
ENDBRANCH  25  26
BRANCH  25  29
HETATM   29  C   UNL     1     -10.202  15.067  67.807  1.00  0.00    -0.236 A  
HETATM   30  C   UNL     1     -10.501  13.705  67.939  1.00  0.00    -0.249 A  
HETATM   31  C   UNL     1     -11.825  13.264  67.941  1.00  0.00    -0.388 A  
HETATM   32  C   UNL     1     -12.868  14.181  67.825  1.00  0.00     1.301 A  
HETATM   33  C   UNL     1     -12.590  15.539  67.709  1.00  0.00     1.443 A  
HETATM   34  C   UNL     1     -11.267  15.980  67.700  1.00  0.00    -0.183 A  
ENDBRANCH  25  29
ENDBRANCH  24  25
ENDBRANCH   8  21
TORSDOF 7
ENDMDL
MODEL      235
REMARK 921   NORMALIZED FREE ENERGY PREDICTED BY IDOCK:    9.00 KCAL/MOL
REMARK 922        TOTAL FREE ENERGY PREDICTED BY IDOCK:   11.19 KCAL/MOL
REMARK 923 INTER-LIGAND FREE ENERGY PREDICTED BY IDOCK:   -0.07 KCAL/MOL
REMARK 924 INTRA-LIGAND FREE ENERGY PREDICTED BY IDOCK:   11.27 KCAL/MOL
REMARK 927      BINDING AFFINITY PREDICTED BY RF-SCORE:    0.00 PKD
ROOT
HETATM    1  C   UNL     1      -5.664  15.648  68.366  1.00  0.00    -0.108 C  
HETATM    2  S   UNL     1      -6.461  16.654  67.084  1.00  0.00    -0.200 SA 
HETATM    3  C   UNL     1      -5.606  18.163  67.582  1.00  0.00    -0.149 C  
HETATM    4  C   UNL     1      -5.649  18.454  69.079  1.00  0.00    -0.206 C  
HETATM    5  OXT UNL     1      -6.301  19.071  71.838  1.00  0.00     0.815 OA 
HETATM    6  CA  UNL     1      -5.893  17.507  70.032  1.00  0.00    -0.234 C  
HETATM    7  C   UNL     1      -6.105  17.918  71.480  1.00  0.00     1.696 C  
HETATM    8  CA  UNL     1      -6.456  14.356  68.772  1.00  0.00    -0.087 C  
HETATM    9  N   UNL     1      -6.015  16.191  69.666  1.00  0.00    -0.161 N  
HETATM   10  O   UNL     1      -5.997  16.945  72.406  1.00  0.00     1.755 OA 
HETATM   11  C   UNL     1      -6.492  15.039  70.186  1.00  0.00    -0.136 C  
HETATM   12  O   UNL     1      -6.851  14.798  71.318  1.00  0.00     0.577 OA 
ENDROOT
BRANCH   4  13
HETATM   13  C   UNL     1      -5.511  19.958  69.320  1.00  0.00    -0.213 C  
BRANCH  13  14
HETATM   14  S   UNL     1      -6.439  21.036  68.203  1.00  0.00    -0.098 SA 
BRANCH  14  15
HETATM   15  C   UNL     1      -6.917  20.015  66.910  1.00  0.00    -0.220 A  
HETATM   16  N   UNL     1      -6.481  20.009  65.673  1.00  0.00    -0.223 NA 
HETATM   17  N   UNL     1      -7.204  19.036  65.025  1.00  0.00    -0.159 NA 
HETATM   18  C   UNL     1      -8.638  18.657  68.190  1.00  0.00    -0.307 C  
HETATM   19  N   UNL     1      -7.880  19.056  67.036  1.00  0.00    -0.239 NA 
HETATM   20  N   UNL     1      -8.062  18.449  65.849  1.00  0.00    -0.511 NA 
ENDBRANCH  14  15
ENDBRANCH  13  14
ENDBRANCH   4  13
BRANCH   8  21
HETATM   21  N   UNL     1      -7.775  14.206  68.102  1.00  0.00    -0.127 N  
HETATM   22  O   UNL     1      -9.017  15.398  69.600  1.00  0.00    -0.263 OA 
HETATM   23  H   UNL     1      -7.816  13.630  67.261  1.00  0.00     0.000 HD 
HETATM   24  C   UNL     1      -8.945  14.790  68.535  1.00  0.00    -0.182 C  
BRANCH  24  25
HETATM   25  C   UNL     1     -10.146  14.598  67.579  1.00  0.00    -0.224 C  
BRANCH  25  26
HETATM   26  O   UNL     1      -9.772  13.596  66.613  1.00  0.00    -0.267 OA 
HETATM   27  O   UNL     1     -11.987  12.997  66.397  1.00  0.00    -0.391 OA 
HETATM   28  C   UNL     1     -10.810  12.891  66.099  1.00  0.00    -0.279 C  
ENDBRANCH  25  26
BRANCH  25  29
HETATM   29  C   UNL     1     -10.518  15.901  66.884  1.00  0.00    -0.309 A  
HETATM   30  C   UNL     1     -10.656  17.072  67.641  1.00  0.00    -0.333 A  
HETATM   31  C   UNL     1     -11.014  18.274  67.030  1.00  0.00    -0.035 A  
HETATM   32  C   UNL     1     -11.224  18.326  65.655  1.00  0.00     0.849 A  
HETATM   33  C   UNL     1     -11.075  17.177  64.885  1.00  0.00     0.268 A  
HETATM   34  C   UNL     1     -10.725  15.972  65.494  1.00  0.00    -0.374 A  
ENDBRANCH  25  29
ENDBRANCH  24  25
ENDBRANCH   8  21
TORSDOF 7
ENDMDL
MODEL      236
REMARK 921   NORMALIZED FREE ENERGY PREDICTED BY IDOCK:   11.23 KCAL/MOL
REMARK 922        TOTAL FREE ENERGY PREDICTED BY IDOCK:   14.33 KCAL/MOL
REMARK 923 INTER-LIGAND FREE ENERGY PREDICTED BY IDOCK:   13.35 KCAL/MOL
REMARK 924 INTRA-LIGAND FREE ENERGY PREDICTED BY IDOCK:    0.98 KCAL/MOL
REMARK 927      BINDING AFFINITY PREDICTED BY RF-SCORE:    0.00 PKD
ROOT
HETATM    1  C   UNL     1      -8.796  12.960  70.079  1.00  0.00     3.549 C  
HETATM    2  S   UNL     1      -7.529  11.707  70.417  1.00  0.00     2.835 SA 
HETATM    3  C   UNL     1      -6.454  12.275  69.084  1.00  0.00    -0.100 C  
HETATM    4  C   UNL     1      -7.154  12.476  67.744  1.00  0.00    -0.126 C  
HETATM    5  OXT UNL     1      -8.562  12.283  65.214  1.00  0.00     0.746 OA 
HETATM    6  CA  UNL     1      -8.501  12.658  67.608  1.00  0.00    -0.173 C  
HETATM    7  C   UNL     1      -9.136  12.660  66.226  1.00  0.00    -0.046 C  
HETATM    8  CA  UNL     1     -10.237  12.587  70.577  1.00  0.00     4.234 C  
HETATM    9  N   UNL     1      -9.287  12.769  68.726  1.00  0.00     0.051 N  
HETATM   10  O   UNL     1     -10.376  13.177  66.133  1.00  0.00    -0.272 OA 
HETATM   11  C   UNL     1     -10.596  12.687  69.051  1.00  0.00    -0.041 C  
HETATM   12  O   UNL     1     -11.565  12.634  68.327  1.00  0.00    -0.289 OA 
ENDROOT
BRANCH   4  13
HETATM   13  C   UNL     1      -6.149  12.312  66.603  1.00  0.00     0.479 C  
BRANCH  13  14
HETATM   14  S   UNL     1      -5.436  10.663  66.397  1.00  0.00    -0.092 SA 
BRANCH  14  15
HETATM   15  C   UNL     1      -6.748   9.586  66.645  1.00  0.00    -0.072 A  
HETATM   16  N   UNL     1      -7.781   9.369  65.868  1.00  0.00    -0.098 NA 
HETATM   17  N   UNL     1      -8.563   8.452  66.530  1.00  0.00    -0.115 NA 
HETATM   18  C   UNL     1      -5.992   8.669  68.889  1.00  0.00    -0.044 C  
HETATM   19  N   UNL     1      -6.872   8.808  67.761  1.00  0.00    -0.070 NA 
HETATM   20  N   UNL     1      -8.016   8.104  67.687  1.00  0.00    -0.121 NA 
ENDBRANCH  14  15
ENDBRANCH  13  14
ENDBRANCH   4  13
BRANCH   8  21
HETATM   21  N   UNL     1     -10.350  11.228  71.172  1.00  0.00     3.168 N  
HETATM   22  O   UNL     1     -10.645  10.068  69.230  1.00  0.00    -0.201 OA 
HETATM   23  H   UNL     1     -10.325  11.153  72.188  1.00  0.00     0.000 HD 
HETATM   24  C   UNL     1     -10.484  10.065  70.447  1.00  0.00    -0.240 C  
BRANCH  24  25
HETATM   25  C   UNL     1     -10.434   8.774  71.298  1.00  0.00    -0.256 C  
BRANCH  25  26
HETATM   26  O   UNL     1      -9.767   7.766  70.514  1.00  0.00    -0.175 OA 
HETATM   27  O   UNL     1     -10.205   6.214  72.162  1.00  0.00    -0.183 OA 
HETATM   28  C   UNL     1      -9.754   6.531  71.075  1.00  0.00    -0.175 C  
ENDBRANCH  25  26
BRANCH  25  29
HETATM   29  C   UNL     1     -11.832   8.311  71.690  1.00  0.00    -0.345 A  
HETATM   30  C   UNL     1     -12.343   8.649  72.950  1.00  0.00     0.125 A  
HETATM   31  C   UNL     1     -13.613   8.222  73.339  1.00  0.00     1.604 A  
HETATM   32  C   UNL     1     -14.395   7.466  72.470  1.00  0.00     0.118 A  
HETATM   33  C   UNL     1     -13.910   7.135  71.209  1.00  0.00    -0.292 A  
HETATM   34  C   UNL     1     -12.638   7.554  70.820  1.00  0.00    -0.032 A  
ENDBRANCH  25  29
ENDBRANCH  24  25
ENDBRANCH   8  21
TORSDOF 7
ENDMDL
MODEL      237
REMARK 921   NORMALIZED FREE ENERGY PREDICTED BY IDOCK:   12.34 KCAL/MOL
REMARK 922        TOTAL FREE ENERGY PREDICTED BY IDOCK:   15.89 KCAL/MOL
REMARK 923 INTER-LIGAND FREE ENERGY PREDICTED BY IDOCK:    6.92 KCAL/MOL
REMARK 924 INTRA-LIGAND FREE ENERGY PREDICTED BY IDOCK:    8.97 KCAL/MOL
REMARK 927      BINDING AFFINITY PREDICTED BY RF-SCORE:    0.00 PKD
ROOT
HETATM    1  C   UNL     1      -5.808  15.695  68.394  1.00  0.00    -0.107 C  
HETATM    2  S   UNL     1      -6.533  16.544  66.964  1.00  0.00    -0.152 SA 
HETATM    3  C   UNL     1      -5.844  18.146  67.427  1.00  0.00    -0.141 C  
HETATM    4  C   UNL     1      -6.065  18.537  68.884  1.00  0.00    -0.229 C  
HETATM    5  OXT UNL     1      -7.048  19.294  71.507  1.00  0.00     1.770 OA 
HETATM    6  CA  UNL     1      -6.342  17.643  69.878  1.00  0.00    -0.035 C  
HETATM    7  C   UNL     1      -6.735  18.137  71.262  1.00  0.00     3.110 C  
HETATM    8  CA  UNL     1      -6.546  14.377  68.818  1.00  0.00    -0.090 C  
HETATM    9  N   UNL     1      -6.332  16.299  69.605  1.00  0.00    -0.198 N  
HETATM   10  O   UNL     1      -6.658  17.243  72.266  1.00  0.00     4.214 OA 
HETATM   11  C   UNL     1      -6.780  15.153  70.164  1.00  0.00    -0.072 C  
HETATM   12  O   UNL     1      -7.239  14.965  71.269  1.00  0.00     1.089 OA 
ENDROOT
BRANCH   4  13
HETATM   13  C   UNL     1      -6.059  20.060  69.020  1.00  0.00    -0.296 C  
BRANCH  13  14
HETATM   14  S   UNL     1      -7.002  20.978  67.779  1.00  0.00    -0.103 SA 
BRANCH  14  15
HETATM   15  C   UNL     1      -7.349  19.827  66.556  1.00  0.00    -0.259 A  
HETATM   16  N   UNL     1      -6.966  19.831  65.302  1.00  0.00    -0.363 NA 
HETATM   17  N   UNL     1      -7.538  18.719  64.731  1.00  0.00     1.324 NA 
HETATM   18  C   UNL     1      -8.763  18.266  67.973  1.00  0.00    -0.276 C  
HETATM   19  N   UNL     1      -8.129  18.727  66.768  1.00  0.00    -0.256 NA 
HETATM   20  N   UNL     1      -8.250  18.038  65.619  1.00  0.00    -0.297 NA 
ENDBRANCH  14  15
ENDBRANCH  13  14
ENDBRANCH   4  13
BRANCH   8  21
HETATM   21  N   UNL     1      -7.773  14.079  68.031  1.00  0.00    -0.133 N  
HETATM   22  O   UNL     1      -7.209  11.970  67.370  1.00  0.00    -0.122 OA 
HETATM   23  H   UNL     1      -8.469  14.820  67.941  1.00  0.00     0.000 HD 
HETATM   24  C   UNL     1      -8.038  12.875  67.418  1.00  0.00    -0.181 C  
BRANCH  24  25
HETATM   25  C   UNL     1      -9.447  12.776  66.788  1.00  0.00    -0.243 C  
BRANCH  25  26
HETATM   26  O   UNL     1      -9.944  14.119  66.629  1.00  0.00    -0.261 OA 
HETATM   27  O   UNL     1     -11.323  13.393  64.931  1.00  0.00    -0.311 OA 
HETATM   28  C   UNL     1     -10.894  14.261  65.671  1.00  0.00    -0.309 C  
ENDBRANCH  25  26
BRANCH  25  29
HETATM   29  C   UNL     1     -10.390  11.956  67.659  1.00  0.00    -0.217 A  
HETATM   30  C   UNL     1      -9.900  10.830  68.335  1.00  0.00    -0.177 A  
HETATM   31  C   UNL     1     -10.747  10.052  69.125  1.00  0.00    -0.244 A  
HETATM   32  C   UNL     1     -12.089  10.396  69.263  1.00  0.00    -0.022 A  
HETATM   33  C   UNL     1     -12.589  11.520  68.612  1.00  0.00     0.918 A  
HETATM   34  C   UNL     1     -11.746  12.295  67.816  1.00  0.00    -0.403 A  
ENDBRANCH  25  29
ENDBRANCH  24  25
ENDBRANCH   8  21
TORSDOF 7
ENDMDL
MODEL      238
REMARK 921   NORMALIZED FREE ENERGY PREDICTED BY IDOCK:   66.46 KCAL/MOL
REMARK 922        TOTAL FREE ENERGY PREDICTED BY IDOCK:   92.16 KCAL/MOL
REMARK 923 INTER-LIGAND FREE ENERGY PREDICTED BY IDOCK:   84.55 KCAL/MOL
REMARK 924 INTRA-LIGAND FREE ENERGY PREDICTED BY IDOCK:    7.62 KCAL/MOL
REMARK 927      BINDING AFFINITY PREDICTED BY RF-SCORE:    0.00 PKD
ROOT
HETATM    1  C   UNL     1      -8.975  17.743  70.366  1.00  0.00     3.534 C  
HETATM    2  S   UNL     1     -10.318  16.594  69.957  1.00  0.00     0.256 SA 
HETATM    3  C   UNL     1     -10.413  15.934  71.633  1.00  0.00     1.399 C  
HETATM    4  C   UNL     1      -9.071  15.535  72.237  1.00  0.00     7.212 C  
HETATM    5  OXT UNL     1      -6.514  14.373  72.967  1.00  0.00     0.350 OA 
HETATM    6  CA  UNL     1      -7.868  16.009  71.798  1.00  0.00     7.234 C  
HETATM    7  C   UNL     1      -6.573  15.416  72.330  1.00  0.00     2.759 C  
HETATM    8  CA  UNL     1      -8.096  18.187  69.145  1.00  0.00     0.071 C  
HETATM    9  N   UNL     1      -7.832  16.975  70.825  1.00  0.00     4.082 N  
HETATM   10  O   UNL     1      -5.452  16.136  72.132  1.00  0.00     0.326 OA 
HETATM   11  C   UNL     1      -6.940  17.501  69.958  1.00  0.00     0.790 C  
HETATM   12  O   UNL     1      -5.740  17.344  69.900  1.00  0.00    -0.216 OA 
ENDROOT
BRANCH   4  13
HETATM   13  C   UNL     1      -9.278  14.448  73.293  1.00  0.00     9.473 C  
BRANCH  13  14
HETATM   14  S   UNL     1      -9.168  12.738  72.713  1.00  0.00    24.475 SA 
BRANCH  14  15
HETATM   15  C   UNL     1      -7.619  12.623  71.986  1.00  0.00    11.495 A  
HETATM   16  N   UNL     1      -7.222  13.110  70.835  1.00  0.00     2.327 NA 
HETATM   17  N   UNL     1      -5.914  12.712  70.690  1.00  0.00    -0.223 NA 
HETATM   18  C   UNL     1      -6.502  11.268  73.818  1.00  0.00     4.343 C  
HETATM   19  N   UNL     1      -6.577  11.950  72.556  1.00  0.00     4.649 NA 
HETATM   20  N   UNL     1      -5.512  12.003  71.736  1.00  0.00    -0.354 NA 
ENDBRANCH  14  15
ENDBRANCH  13  14
ENDBRANCH   4  13
BRANCH   8  21
HETATM   21  N   UNL     1      -8.451  17.529  67.860  1.00  0.00    -0.225 N  
HETATM   22  O   UNL     1      -6.845  18.501  66.563  1.00  0.00    -0.186 OA 
HETATM   23  H   UNL     1      -9.265  16.914  67.852  1.00  0.00     0.000 HD 
HETATM   24  C   UNL     1      -7.760  17.690  66.680  1.00  0.00    -0.249 C  
BRANCH  24  25
HETATM   25  C   UNL     1      -8.246  16.782  65.526  1.00  0.00     1.220 C  
BRANCH  25  26
HETATM   26  O   UNL     1      -9.304  17.482  64.842  1.00  0.00     1.637 OA 
HETATM   27  O   UNL     1     -10.436  17.694  66.839  1.00  0.00    -0.329 OA 
HETATM   28  C   UNL     1     -10.321  17.892  65.642  1.00  0.00    -0.059 C  
ENDBRANCH  25  26
BRANCH  25  29
HETATM   29  C   UNL     1      -8.743  15.439  66.047  1.00  0.00     0.035 A  
HETATM   30  C   UNL     1      -8.068  14.817  67.106  1.00  0.00    -0.226 A  
HETATM   31  C   UNL     1      -8.492  13.579  67.589  1.00  0.00    -0.184 A  
HETATM   32  C   UNL     1      -9.605  12.953  67.031  1.00  0.00    -0.231 A  
HETATM   33  C   UNL     1     -10.297  13.563  65.990  1.00  0.00    -0.303 A  
HETATM   34  C   UNL     1      -9.870  14.798  65.501  1.00  0.00    -0.336 A  
ENDBRANCH  25  29
ENDBRANCH  24  25
ENDBRANCH   8  21
TORSDOF 7
ENDMDL
