MODEL        1
REMARK 921   NORMALIZED FREE ENERGY PREDICTED BY IDOCK:   -7.23 KCAL/MOL
REMARK 922        TOTAL FREE ENERGY PREDICTED BY IDOCK:  -10.20 KCAL/MOL
REMARK 923 INTER-LIGAND FREE ENERGY PREDICTED BY IDOCK:   -9.34 KCAL/MOL
REMARK 924 INTRA-LIGAND FREE ENERGY PREDICTED BY IDOCK:   -0.86 KCAL/MOL
REMARK 927      BINDING AFFINITY PREDICTED BY RF-SCORE:    0.00 PKD
ROOT
HETATM    1  C   UNL     1     -10.170  14.296  66.598  1.00  0.00    -0.272 C  
HETATM    2  S   UNL     1      -9.517  13.210  67.885  1.00  0.00    -0.225 SA 
HETATM    3  CG2 UNL     1      -8.673  12.135  66.706  1.00  0.00    -0.183 C  
HETATM    4  CB  UNL     1      -9.519  11.691  65.517  1.00  0.00    -0.215 C  
HETATM    5  CA  UNL     1     -11.456  15.089  66.994  1.00  0.00    -0.284 C  
HETATM    6  CA  UNL     1     -10.618  12.369  65.067  1.00  0.00    -0.298 C  
HETATM    7  N   UNL     1     -11.005  13.524  65.697  1.00  0.00    -0.287 N  
HETATM    8  O   UNL     1     -13.178  14.203  65.263  1.00  0.00    -0.760 OA 
HETATM    9  C   UNL     1     -11.392  11.862  63.863  1.00  0.00    -0.428 C  
HETATM   10  C   UNL     1     -12.100  14.302  65.803  1.00  0.00    -0.405 C  
HETATM   11  O   UNL     1     -12.672  12.260  63.733  1.00  0.00    -0.693 OA 
HETATM   12  OXT UNL     1     -10.906  11.134  63.007  1.00  0.00    -0.110 OA 
ENDROOT
BRANCH   4  13
HETATM   13  CG1 UNL     1      -9.076  10.397  64.977  1.00  0.00    -0.237 C  
HETATM   14  CD1 UNL     1      -9.292   9.193  65.524  1.00  0.00    -0.287 C  
ENDBRANCH   4  13
BRANCH   5  15
HETATM   15  N   UNL     1     -12.038  14.770  68.321  1.00  0.00    -0.573 N  
HETATM   16  H   UNL     1     -12.711  14.005  68.381  1.00  0.00     0.000 HD 
HETATM   17  C   UNL     1     -11.721  15.445  69.471  1.00  0.00    -0.346 C  
HETATM   18  O   UNL     1     -10.934  16.381  69.515  1.00  0.00    -0.309 OA 
BRANCH  17  19
HETATM   19  C   UNL     1     -12.466  14.984  70.734  1.00  0.00    -0.352 C  
BRANCH  19  20
HETATM   20  N   UNL     1     -12.945  15.797  71.641  1.00  0.00    -0.472 NA 
HETATM   21  H   UNL     1     -12.350  16.858  73.218  1.00  0.00     0.000 HD 
HETATM   22  O   UNL     1     -12.002  16.268  72.559  1.00  0.00    -0.521 OA 
HETATM   23  H   UNL     1     -13.928  16.065  71.676  1.00  0.00     0.000 HD 
ENDBRANCH  19  20
BRANCH  19  24
HETATM   24  C   UNL     1     -12.638  13.552  70.990  1.00  0.00    -0.359 A  
HETATM   25  S   UNL     1     -13.373  11.309  71.954  1.00  0.00    -0.132 SA 
HETATM   26  C   UNL     1     -13.426  13.021  71.997  1.00  0.00    -0.492 A  
HETATM   27  C   UNL     1     -12.317  11.384  70.605  1.00  0.00    -0.373 A  
HETATM   28  N   UNL     1     -12.017  12.589  70.194  1.00  0.00    -0.343 NA 
HETATM   29  N   UNL     1     -11.831  10.271  70.036  1.00  0.00    -0.384 NA 
HETATM   30  H1  UNL     1     -11.203  10.315  69.233  1.00  0.00     0.000 HD 
HETATM   31  H2  UNL     1     -12.095   9.361  70.414  1.00  0.00     0.000 HD 
ENDBRANCH  19  24
ENDBRANCH  17  19
ENDBRANCH   5  15
TORSDOF 5
ENDMDL
MODEL        2
REMARK 921   NORMALIZED FREE ENERGY PREDICTED BY IDOCK:   -6.92 KCAL/MOL
REMARK 922        TOTAL FREE ENERGY PREDICTED BY IDOCK:   -9.80 KCAL/MOL
REMARK 923 INTER-LIGAND FREE ENERGY PREDICTED BY IDOCK:   -8.84 KCAL/MOL
REMARK 924 INTRA-LIGAND FREE ENERGY PREDICTED BY IDOCK:   -0.96 KCAL/MOL
REMARK 927      BINDING AFFINITY PREDICTED BY RF-SCORE:    0.00 PKD
ROOT
HETATM    1  C   UNL     1     -12.030  14.935  68.971  1.00  0.00    -0.272 C  
HETATM    2  S   UNL     1     -11.003  15.226  70.428  1.00  0.00    -0.268 SA 
HETATM    3  CG2 UNL     1     -10.675  16.946  69.993  1.00  0.00     0.066 C  
HETATM    4  CB  UNL     1     -10.246  17.175  68.546  1.00  0.00    -0.346 C  
HETATM    5  CA  UNL     1     -12.131  13.443  68.522  1.00  0.00    -0.248 C  
HETATM    6  CA  UNL     1     -10.528  16.315  67.522  1.00  0.00    -0.302 C  
HETATM    7  N   UNL     1     -11.243  15.173  67.775  1.00  0.00    -0.314 N  
HETATM    8  O   UNL     1     -11.103  13.538  66.139  1.00  0.00    -0.290 OA 
HETATM    9  C   UNL     1     -10.076  16.632  66.107  1.00  0.00    -0.345 C  
HETATM   10  C   UNL     1     -11.478  13.975  67.201  1.00  0.00    -0.352 C  
HETATM   11  O   UNL     1      -9.960  15.604  65.246  1.00  0.00    -0.335 OA 
HETATM   12  OXT UNL     1      -9.835  17.767  65.715  1.00  0.00    -0.541 OA 
ENDROOT
BRANCH   4  13
HETATM   13  CG1 UNL     1      -9.408  18.374  68.403  1.00  0.00    -0.347 C  
HETATM   14  CD1 UNL     1      -9.787  19.640  68.631  1.00  0.00    -0.519 C  
ENDBRANCH   4  13
BRANCH   5  15
HETATM   15  N   UNL     1     -11.289  12.477  69.271  1.00  0.00    -0.351 N  
HETATM   16  H   UNL     1     -10.756  12.820  70.070  1.00  0.00     0.000 HD 
HETATM   17  C   UNL     1     -11.188  11.148  68.947  1.00  0.00    -0.256 C  
HETATM   18  O   UNL     1     -11.775  10.632  68.006  1.00  0.00    -0.495 OA 
BRANCH  17  19
HETATM   19  C   UNL     1     -10.232  10.326  69.823  1.00  0.00    -0.220 C  
BRANCH  19  20
HETATM   20  N   UNL     1      -8.934  10.281  69.652  1.00  0.00    -0.365 NA 
HETATM   21  H   UNL     1      -7.496  11.159  68.591  1.00  0.00     0.000 HD 
HETATM   22  O   UNL     1      -8.438  11.191  68.716  1.00  0.00    -0.156 OA 
HETATM   23  H   UNL     1      -8.334   9.633  70.162  1.00  0.00     0.000 HD 
ENDBRANCH  19  20
BRANCH  19  24
HETATM   24  C   UNL     1     -10.772   9.500  70.906  1.00  0.00    -0.333 A  
HETATM   25  S   UNL     1     -11.050   7.776  72.764  1.00  0.00    -0.393 SA 
HETATM   26  C   UNL     1     -10.074   8.494  71.553  1.00  0.00    -0.245 A  
HETATM   27  C   UNL     1     -12.327   8.846  72.357  1.00  0.00    -0.315 A  
HETATM   28  N   UNL     1     -12.065   9.691  71.394  1.00  0.00    -0.361 NA 
HETATM   29  N   UNL     1     -13.512   8.791  72.984  1.00  0.00    -0.938 NA 
HETATM   30  H1  UNL     1     -14.271   9.427  72.742  1.00  0.00     0.000 HD 
HETATM   31  H2  UNL     1     -13.655   8.099  73.719  1.00  0.00     0.000 HD 
ENDBRANCH  19  24
ENDBRANCH  17  19
ENDBRANCH   5  15
TORSDOF 5
ENDMDL
MODEL        3
REMARK 921   NORMALIZED FREE ENERGY PREDICTED BY IDOCK:   -6.91 KCAL/MOL
REMARK 922        TOTAL FREE ENERGY PREDICTED BY IDOCK:   -9.79 KCAL/MOL
REMARK 923 INTER-LIGAND FREE ENERGY PREDICTED BY IDOCK:   -9.43 KCAL/MOL
REMARK 924 INTRA-LIGAND FREE ENERGY PREDICTED BY IDOCK:   -0.36 KCAL/MOL
REMARK 927      BINDING AFFINITY PREDICTED BY RF-SCORE:    0.00 PKD
ROOT
HETATM    1  C   UNL     1     -10.405  13.886  67.285  1.00  0.00    -0.257 C  
HETATM    2  S   UNL     1      -9.823  12.508  68.297  1.00  0.00    -0.209 SA 
HETATM    3  CG2 UNL     1      -8.830  11.802  66.966  1.00  0.00    -0.182 C  
HETATM    4  CB  UNL     1      -9.546  11.676  65.624  1.00  0.00    -0.252 C  
HETATM    5  CA  UNL     1     -11.754  14.521  67.748  1.00  0.00    -0.374 C  
HETATM    6  CA  UNL     1     -10.628  12.429  65.263  1.00  0.00    -0.290 C  
HETATM    7  N   UNL     1     -11.121  13.367  66.134  1.00  0.00    -0.287 N  
HETATM    8  O   UNL     1     -13.273  14.098  65.684  1.00  0.00    -0.615 OA 
HETATM    9  C   UNL     1     -11.269  12.248  63.898  1.00  0.00    -0.421 C  
HETATM   10  C   UNL     1     -12.254  14.069  66.333  1.00  0.00    -0.460 C  
HETATM   11  O   UNL     1     -12.547  12.643  63.753  1.00  0.00    -0.651 OA 
HETATM   12  OXT UNL     1     -10.676  11.784  62.932  1.00  0.00    -0.172 OA 
ENDROOT
BRANCH   4  13
HETATM   13  CG1 UNL     1      -9.000  10.582  64.808  1.00  0.00    -0.227 C  
HETATM   14  CD1 UNL     1      -9.246   9.274  64.966  1.00  0.00    -0.242 C  
ENDBRANCH   4  13
BRANCH   5  15
HETATM   15  N   UNL     1     -12.439  13.848  68.879  1.00  0.00    -0.376 N  
HETATM   16  H   UNL     1     -13.139  13.137  68.665  1.00  0.00     0.000 HD 
HETATM   17  C   UNL     1     -12.183  14.129  70.197  1.00  0.00    -0.351 C  
HETATM   18  O   UNL     1     -11.372  14.966  70.567  1.00  0.00    -0.259 OA 
BRANCH  17  19
HETATM   19  C   UNL     1     -13.029  13.350  71.215  1.00  0.00    -0.287 C  
BRANCH  19  20
HETATM   20  N   UNL     1     -13.883  13.905  72.037  1.00  0.00    -0.466 NA 
HETATM   21  H   UNL     1     -13.936  14.831  73.799  1.00  0.00     0.000 HD 
HETATM   22  O   UNL     1     -13.316  14.428  73.202  1.00  0.00    -0.626 OA 
HETATM   23  H   UNL     1     -14.884  13.951  71.843  1.00  0.00     0.000 HD 
ENDBRANCH  19  20
BRANCH  19  24
HETATM   24  C   UNL     1     -12.872  11.898  71.326  1.00  0.00    -0.290 A  
HETATM   25  S   UNL     1     -12.037   9.501  71.084  1.00  0.00    -0.363 SA 
HETATM   26  C   UNL     1     -11.889  11.160  70.687  1.00  0.00    -0.302 A  
HETATM   27  C   UNL     1     -13.386   9.867  72.078  1.00  0.00    -0.432 A  
HETATM   28  N   UNL     1     -13.716  11.131  72.130  1.00  0.00    -0.021 NA 
HETATM   29  N   UNL     1     -14.053   8.906  72.733  1.00  0.00    -1.021 NA 
HETATM   30  H1  UNL     1     -14.855   9.124  73.324  1.00  0.00     0.000 HD 
HETATM   31  H2  UNL     1     -13.751   7.936  72.639  1.00  0.00     0.000 HD 
ENDBRANCH  19  24
ENDBRANCH  17  19
ENDBRANCH   5  15
TORSDOF 5
ENDMDL
MODEL        4
REMARK 921   NORMALIZED FREE ENERGY PREDICTED BY IDOCK:   -6.84 KCAL/MOL
REMARK 922        TOTAL FREE ENERGY PREDICTED BY IDOCK:   -9.70 KCAL/MOL
REMARK 923 INTER-LIGAND FREE ENERGY PREDICTED BY IDOCK:   -8.78 KCAL/MOL
REMARK 924 INTRA-LIGAND FREE ENERGY PREDICTED BY IDOCK:   -0.91 KCAL/MOL
REMARK 927      BINDING AFFINITY PREDICTED BY RF-SCORE:    0.00 PKD
ROOT
HETATM    1  C   UNL     1     -11.559  15.095  68.759  1.00  0.00    -0.349 C  
HETATM    2  S   UNL     1      -9.892  15.375  69.394  1.00  0.00    -0.272 SA 
HETATM    3  CG2 UNL     1      -9.679  16.913  68.477  1.00  0.00    -0.264 C  
HETATM    4  CB  UNL     1     -10.066  16.845  67.002  1.00  0.00    -0.289 C  
HETATM    5  CA  UNL     1     -12.030  13.606  68.773  1.00  0.00    -0.359 C  
HETATM    6  CA  UNL     1     -10.933  15.924  66.484  1.00  0.00    -0.121 C  
HETATM    7  N   UNL     1     -11.511  14.998  67.312  1.00  0.00    -0.333 N  
HETATM    8  O   UNL     1     -12.425  13.154  66.246  1.00  0.00    -0.386 OA 
HETATM    9  C   UNL     1     -11.275  15.940  65.004  1.00  0.00    -0.290 C  
HETATM   10  C   UNL     1     -12.132  13.804  67.222  1.00  0.00    -0.357 C  
HETATM   11  O   UNL     1     -11.737  14.800  64.459  1.00  0.00    -0.411 OA 
HETATM   12  OXT UNL     1     -11.169  16.936  64.299  1.00  0.00    -1.204 OA 
ENDROOT
BRANCH   4  13
HETATM   13  CG1 UNL     1      -9.320  17.817  66.190  1.00  0.00    -0.153 C  
HETATM   14  CD1 UNL     1      -9.235  19.137  66.411  1.00  0.00    -0.369 C  
ENDBRANCH   4  13
BRANCH   5  15
HETATM   15  N   UNL     1     -11.018  12.605  69.194  1.00  0.00    -0.414 N  
HETATM   16  H   UNL     1     -10.077  12.933  69.411  1.00  0.00     0.000 HD 
HETATM   17  C   UNL     1     -11.280  11.264  69.306  1.00  0.00    -0.272 C  
HETATM   18  O   UNL     1     -12.368  10.761  69.064  1.00  0.00    -0.422 OA 
BRANCH  17  19
HETATM   19  C   UNL     1     -10.084  10.391  69.717  1.00  0.00    -0.157 C  
BRANCH  19  20
HETATM   20  N   UNL     1      -8.836  10.685  69.456  1.00  0.00    -0.398 NA 
HETATM   21  H   UNL     1      -7.715  11.460  68.005  1.00  0.00     0.000 HD 
HETATM   22  O   UNL     1      -8.621  11.246  68.195  1.00  0.00    -0.137 OA 
HETATM   23  H   UNL     1      -8.080  10.517  70.120  1.00  0.00     0.000 HD 
ENDBRANCH  19  20
BRANCH  19  24
HETATM   24  C   UNL     1     -10.320   9.125  70.416  1.00  0.00    -0.223 A  
HETATM   25  S   UNL     1     -10.334   6.665  71.086  1.00  0.00    -0.208 SA 
HETATM   26  C   UNL     1      -9.861   7.891  69.987  1.00  0.00    -0.181 A  
HETATM   27  C   UNL     1     -11.109   7.846  72.058  1.00  0.00    -0.278 A  
HETATM   28  N   UNL     1     -11.028   9.075  71.618  1.00  0.00    -0.342 NA 
HETATM   29  N   UNL     1     -11.762   7.510  73.180  1.00  0.00    -0.596 NA 
HETATM   30  H1  UNL     1     -12.223   8.213  73.758  1.00  0.00     0.000 HD 
HETATM   31  H2  UNL     1     -11.799   6.530  73.461  1.00  0.00     0.000 HD 
ENDBRANCH  19  24
ENDBRANCH  17  19
ENDBRANCH   5  15
TORSDOF 5
ENDMDL
MODEL        5
REMARK 921   NORMALIZED FREE ENERGY PREDICTED BY IDOCK:   -6.78 KCAL/MOL
REMARK 922        TOTAL FREE ENERGY PREDICTED BY IDOCK:   -9.62 KCAL/MOL
REMARK 923 INTER-LIGAND FREE ENERGY PREDICTED BY IDOCK:   -8.75 KCAL/MOL
REMARK 924 INTRA-LIGAND FREE ENERGY PREDICTED BY IDOCK:   -0.87 KCAL/MOL
REMARK 927      BINDING AFFINITY PREDICTED BY RF-SCORE:    0.00 PKD
ROOT
HETATM    1  C   UNL     1      -9.933  14.670  66.708  1.00  0.00    -0.261 C  
HETATM    2  S   UNL     1     -10.951  15.842  67.631  1.00  0.00    -0.272 SA 
HETATM    3  CG2 UNL     1     -10.119  17.284  66.936  1.00  0.00    -0.304 C  
HETATM    4  CB  UNL     1      -8.595  17.224  66.962  1.00  0.00    -0.246 C  
HETATM    5  CA  UNL     1      -9.825  13.247  67.342  1.00  0.00    -0.227 C  
HETATM    6  CA  UNL     1      -7.878  16.062  67.026  1.00  0.00    -0.228 C  
HETATM    7  N   UNL     1      -8.539  14.861  67.066  1.00  0.00    -0.226 N  
HETATM    8  O   UNL     1      -7.275  13.063  67.801  1.00  0.00    -0.108 OA 
HETATM    9  C   UNL     1      -6.360  16.095  67.029  1.00  0.00    -0.040 C  
HETATM   10  C   UNL     1      -8.296  13.581  67.414  1.00  0.00    -0.194 C  
HETATM   11  O   UNL     1      -5.715  15.030  67.539  1.00  0.00    -0.326 OA 
HETATM   12  OXT UNL     1      -5.706  17.026  66.576  1.00  0.00    -0.248 OA 
ENDROOT
BRANCH   4  13
HETATM   13  CG1 UNL     1      -7.991  18.563  67.011  1.00  0.00    -0.243 C  
HETATM   14  CD1 UNL     1      -8.218  19.503  67.940  1.00  0.00    -0.345 C  
ENDBRANCH   4  13
BRANCH   5  15
HETATM   15  N   UNL     1     -10.473  13.071  68.667  1.00  0.00    -0.325 N  
HETATM   16  H   UNL     1     -10.098  13.591  69.459  1.00  0.00     0.000 HD 
HETATM   17  C   UNL     1     -11.547  12.246  68.882  1.00  0.00    -0.316 C  
HETATM   18  O   UNL     1     -12.071  11.571  68.007  1.00  0.00    -0.617 OA 
BRANCH  17  19
HETATM   19  C   UNL     1     -12.043  12.174  70.334  1.00  0.00    -0.309 C  
BRANCH  19  20
HETATM   20  N   UNL     1     -12.312  13.223  71.071  1.00  0.00    -0.394 NA 
HETATM   21  H   UNL     1     -12.897  15.117  70.887  1.00  0.00     0.000 HD 
HETATM   22  O   UNL     1     -12.701  14.356  70.353  1.00  0.00    -0.346 OA 
HETATM   23  H   UNL     1     -12.242  13.213  72.089  1.00  0.00     0.000 HD 
ENDBRANCH  19  20
BRANCH  19  24
HETATM   24  C   UNL     1     -12.202  10.869  70.980  1.00  0.00    -0.358 A  
HETATM   25  S   UNL     1     -11.863   8.465  71.757  1.00  0.00    -0.341 SA 
HETATM   26  C   UNL     1     -11.333   9.802  70.827  1.00  0.00    -0.342 A  
HETATM   27  C   UNL     1     -13.202   9.386  72.305  1.00  0.00    -0.446 A  
HETATM   28  N   UNL     1     -13.266  10.609  71.845  1.00  0.00    -0.462 NA 
HETATM   29  N   UNL     1     -14.117   8.863  73.133  1.00  0.00    -1.225 NA 
HETATM   30  H1  UNL     1     -14.914   9.411  73.459  1.00  0.00     0.000 HD 
HETATM   31  H2  UNL     1     -14.015   7.897  73.444  1.00  0.00     0.000 HD 
ENDBRANCH  19  24
ENDBRANCH  17  19
ENDBRANCH   5  15
TORSDOF 5
ENDMDL
MODEL        6
REMARK 921   NORMALIZED FREE ENERGY PREDICTED BY IDOCK:   -6.77 KCAL/MOL
REMARK 922        TOTAL FREE ENERGY PREDICTED BY IDOCK:   -9.61 KCAL/MOL
REMARK 923 INTER-LIGAND FREE ENERGY PREDICTED BY IDOCK:   -8.57 KCAL/MOL
REMARK 924 INTRA-LIGAND FREE ENERGY PREDICTED BY IDOCK:   -1.03 KCAL/MOL
REMARK 927      BINDING AFFINITY PREDICTED BY RF-SCORE:    0.00 PKD
ROOT
HETATM    1  C   UNL     1     -11.220  14.203  67.788  1.00  0.00    -0.287 C  
HETATM    2  S   UNL     1      -9.474  13.876  68.114  1.00  0.00    -0.210 SA 
HETATM    3  CG2 UNL     1      -9.022  15.622  68.066  1.00  0.00    -0.178 C  
HETATM    4  CB  UNL     1      -9.571  16.398  66.872  1.00  0.00    -0.255 C  
HETATM    5  CA  UNL     1     -12.007  13.012  67.154  1.00  0.00    -0.329 C  
HETATM    6  CA  UNL     1     -10.672  16.019  66.157  1.00  0.00    -0.244 C  
HETATM    7  N   UNL     1     -11.351  14.882  66.512  1.00  0.00    -0.342 N  
HETATM    8  O   UNL     1     -12.762  14.027  64.885  1.00  0.00    -0.647 OA 
HETATM    9  C   UNL     1     -11.158  16.863  64.992  1.00  0.00     0.009 C  
HETATM   10  C   UNL     1     -12.228  14.014  65.969  1.00  0.00    -0.458 C  
HETATM   11  O   UNL     1     -11.919  16.259  64.061  1.00  0.00    -0.955 OA 
HETATM   12  OXT UNL     1     -10.909  18.056  64.874  1.00  0.00    -0.715 OA 
ENDROOT
BRANCH   4  13
HETATM   13  CG1 UNL     1      -8.718  17.542  66.520  1.00  0.00    -0.290 C  
HETATM   14  CD1 UNL     1      -7.472  17.483  66.028  1.00  0.00    -0.274 C  
ENDBRANCH   4  13
BRANCH   5  15
HETATM   15  N   UNL     1     -11.206  11.815  66.797  1.00  0.00    -0.316 N  
HETATM   16  H   UNL     1     -10.690  11.825  65.918  1.00  0.00     0.000 HD 
HETATM   17  C   UNL     1     -11.121  10.697  67.586  1.00  0.00    -0.319 C  
HETATM   18  O   UNL     1     -11.703  10.573  68.655  1.00  0.00    -0.277 OA 
BRANCH  17  19
HETATM   19  C   UNL     1     -10.271   9.550  67.017  1.00  0.00    -0.255 C  
BRANCH  19  20
HETATM   20  N   UNL     1     -10.090   8.401  67.618  1.00  0.00    -0.194 NA 
HETATM   21  H   UNL     1     -10.627   6.490  67.467  1.00  0.00     0.000 HD 
HETATM   22  O   UNL     1     -10.759   7.324  67.030  1.00  0.00    -0.332 OA 
HETATM   23  H   UNL     1      -9.509   8.301  68.450  1.00  0.00     0.000 HD 
ENDBRANCH  19  20
BRANCH  19  24
HETATM   24  C   UNL     1      -9.575   9.731  65.740  1.00  0.00    -0.254 A  
HETATM   25  S   UNL     1      -7.805   9.805  63.907  1.00  0.00    -0.152 SA 
HETATM   26  C   UNL     1      -8.227   9.487  65.536  1.00  0.00    -0.125 A  
HETATM   27  C   UNL     1      -9.431  10.238  63.578  1.00  0.00    -0.298 A  
HETATM   28  N   UNL     1     -10.250  10.153  64.594  1.00  0.00    -0.172 NA 
HETATM   29  N   UNL     1      -9.812  10.650  62.360  1.00  0.00    -0.704 NA 
HETATM   30  H1  UNL     1     -10.780  10.908  62.165  1.00  0.00     0.000 HD 
HETATM   31  H2  UNL     1      -9.120  10.707  61.614  1.00  0.00     0.000 HD 
ENDBRANCH  19  24
ENDBRANCH  17  19
ENDBRANCH   5  15
TORSDOF 5
ENDMDL
MODEL        7
REMARK 921   NORMALIZED FREE ENERGY PREDICTED BY IDOCK:   -6.75 KCAL/MOL
REMARK 922        TOTAL FREE ENERGY PREDICTED BY IDOCK:   -9.59 KCAL/MOL
REMARK 923 INTER-LIGAND FREE ENERGY PREDICTED BY IDOCK:   -8.61 KCAL/MOL
REMARK 924 INTRA-LIGAND FREE ENERGY PREDICTED BY IDOCK:   -0.98 KCAL/MOL
REMARK 927      BINDING AFFINITY PREDICTED BY RF-SCORE:    0.00 PKD
ROOT
HETATM    1  C   UNL     1     -12.222  13.629  66.160  1.00  0.00    -0.444 C  
HETATM    2  S   UNL     1     -11.788  14.438  64.605  1.00  0.00    -0.455 SA 
HETATM    3  CG2 UNL     1     -11.670  12.883  63.698  1.00  0.00    -0.508 C  
HETATM    4  CB  UNL     1     -10.854  11.793  64.387  1.00  0.00    -0.389 C  
HETATM    5  CA  UNL     1     -11.890  14.449  67.446  1.00  0.00    -0.400 C  
HETATM    6  CA  UNL     1     -10.627  11.749  65.735  1.00  0.00    -0.268 C  
HETATM    7  N   UNL     1     -11.155  12.722  66.543  1.00  0.00    -0.277 N  
HETATM    8  O   UNL     1     -10.193  12.889  68.644  1.00  0.00    -0.229 OA 
HETATM    9  C   UNL     1      -9.816  10.615  66.339  1.00  0.00    -0.211 C  
HETATM   10  C   UNL     1     -10.963  13.230  67.777  1.00  0.00    -0.258 C  
HETATM   11  O   UNL     1      -9.240  10.832  67.535  1.00  0.00    -0.143 OA 
HETATM   12  OXT UNL     1      -9.683   9.522  65.803  1.00  0.00    -0.256 OA 
ENDROOT
BRANCH   4  13
HETATM   13  CG1 UNL     1     -10.258  10.857  63.423  1.00  0.00    -0.356 C  
HETATM   14  CD1 UNL     1      -9.213  11.103  62.620  1.00  0.00    -0.357 C  
ENDBRANCH   4  13
BRANCH   5  15
HETATM   15  N   UNL     1     -11.163  15.727  67.237  1.00  0.00    -0.209 N  
HETATM   16  H   UNL     1     -10.857  15.958  66.292  1.00  0.00     0.000 HD 
HETATM   17  C   UNL     1     -10.881  16.612  68.245  1.00  0.00    -0.356 C  
HETATM   18  O   UNL     1     -11.194  16.433  69.414  1.00  0.00    -0.316 OA 
BRANCH  17  19
HETATM   19  C   UNL     1     -10.084  17.857  67.826  1.00  0.00    -0.348 C  
BRANCH  19  20
HETATM   20  N   UNL     1     -10.528  18.768  66.996  1.00  0.00    -0.398 NA 
HETATM   21  H   UNL     1     -10.826  19.052  65.048  1.00  0.00     0.000 HD 
HETATM   22  O   UNL     1     -10.505  18.391  65.651  1.00  0.00    -0.624 OA 
HETATM   23  H   UNL     1     -10.862  19.680  67.307  1.00  0.00     0.000 HD 
ENDBRANCH  19  20
BRANCH  19  24
HETATM   24  C   UNL     1      -8.726  18.053  68.339  1.00  0.00    -0.293 A  
HETATM   25  S   UNL     1      -6.327  17.683  69.117  1.00  0.00    -0.240 SA 
HETATM   26  C   UNL     1      -7.795  17.043  68.510  1.00  0.00    -0.251 A  
HETATM   27  C   UNL     1      -7.017  19.253  69.107  1.00  0.00    -0.340 A  
HETATM   28  N   UNL     1      -8.251  19.320  68.680  1.00  0.00    -0.368 NA 
HETATM   29  N   UNL     1      -6.326  20.322  69.530  1.00  0.00    -0.314 NA 
HETATM   30  H1  UNL     1      -6.737  21.256  69.524  1.00  0.00     0.000 HD 
HETATM   31  H2  UNL     1      -5.371  20.199  69.864  1.00  0.00     0.000 HD 
ENDBRANCH  19  24
ENDBRANCH  17  19
ENDBRANCH   5  15
TORSDOF 5
ENDMDL
MODEL        8
REMARK 921   NORMALIZED FREE ENERGY PREDICTED BY IDOCK:   -6.66 KCAL/MOL
REMARK 922        TOTAL FREE ENERGY PREDICTED BY IDOCK:   -9.47 KCAL/MOL
REMARK 923 INTER-LIGAND FREE ENERGY PREDICTED BY IDOCK:   -8.55 KCAL/MOL
REMARK 924 INTRA-LIGAND FREE ENERGY PREDICTED BY IDOCK:   -0.92 KCAL/MOL
REMARK 927      BINDING AFFINITY PREDICTED BY RF-SCORE:    0.00 PKD
ROOT
HETATM    1  C   UNL     1     -11.850  13.787  67.756  1.00  0.00    -0.369 C  
HETATM    2  S   UNL     1     -10.447  12.702  67.413  1.00  0.00    -0.225 SA 
HETATM    3  CG2 UNL     1     -11.200  11.283  68.235  1.00  0.00    -0.267 C  
HETATM    4  CB  UNL     1     -11.781  11.570  69.617  1.00  0.00    -0.419 C  
HETATM    5  CA  UNL     1     -11.516  15.312  67.771  1.00  0.00    -0.303 C  
HETATM    6  CA  UNL     1     -12.166  12.812  70.038  1.00  0.00    -0.209 C  
HETATM    7  N   UNL     1     -12.042  13.883  69.191  1.00  0.00    -0.356 N  
HETATM    8  O   UNL     1     -12.121  15.962  70.212  1.00  0.00    -0.353 OA 
HETATM    9  C   UNL     1     -12.752  13.004  71.427  1.00  0.00    -0.281 C  
HETATM   10  C   UNL     1     -12.001  15.229  69.258  1.00  0.00    -0.299 C  
HETATM   11  O   UNL     1     -12.690  14.236  71.963  1.00  0.00    -0.329 OA 
HETATM   12  OXT UNL     1     -13.288  12.104  72.062  1.00  0.00    -0.503 OA 
ENDROOT
BRANCH   4  13
HETATM   13  CG1 UNL     1     -11.782  10.376  70.474  1.00  0.00    -0.434 C  
HETATM   14  CD1 UNL     1     -10.704   9.703  70.900  1.00  0.00    -0.402 C  
ENDBRANCH   4  13
BRANCH   5  15
HETATM   15  N   UNL     1     -10.084  15.670  67.616  1.00  0.00    -0.245 N  
HETATM   16  H   UNL     1      -9.440  15.416  68.366  1.00  0.00     0.000 HD 
HETATM   17  C   UNL     1      -9.579  16.321  66.521  1.00  0.00    -0.264 C  
HETATM   18  O   UNL     1     -10.259  16.679  65.569  1.00  0.00    -0.550 OA 
BRANCH  17  19
HETATM   19  C   UNL     1      -8.075  16.634  66.574  1.00  0.00    -0.302 C  
BRANCH  19  20
HETATM   20  N   UNL     1      -7.136  15.723  66.585  1.00  0.00    -0.216 NA 
HETATM   21  H   UNL     1      -6.530  14.157  67.655  1.00  0.00     0.000 HD 
HETATM   22  O   UNL     1      -7.212  14.819  67.647  1.00  0.00    -0.156 OA 
HETATM   23  H   UNL     1      -6.405  15.676  65.874  1.00  0.00     0.000 HD 
ENDBRANCH  19  20
BRANCH  19  24
HETATM   24  C   UNL     1      -7.629  18.027  66.655  1.00  0.00    -0.233 A  
HETATM   25  S   UNL     1      -6.856  20.305  67.501  1.00  0.00    -0.283 SA 
HETATM   26  C   UNL     1      -7.368  18.704  67.834  1.00  0.00    -0.236 A  
HETATM   27  C   UNL     1      -7.008  19.995  65.821  1.00  0.00    -0.294 A  
HETATM   28  N   UNL     1      -7.404  18.789  65.507  1.00  0.00    -0.497 NA 
HETATM   29  N   UNL     1      -6.750  20.944  64.909  1.00  0.00    -0.523 NA 
HETATM   30  H1  UNL     1      -6.840  20.760  63.910  1.00  0.00     0.000 HD 
HETATM   31  H2  UNL     1      -6.457  21.869  65.222  1.00  0.00     0.000 HD 
ENDBRANCH  19  24
ENDBRANCH  17  19
ENDBRANCH   5  15
TORSDOF 5
ENDMDL
MODEL        9
REMARK 921   NORMALIZED FREE ENERGY PREDICTED BY IDOCK:   -6.65 KCAL/MOL
REMARK 922        TOTAL FREE ENERGY PREDICTED BY IDOCK:   -9.46 KCAL/MOL
REMARK 923 INTER-LIGAND FREE ENERGY PREDICTED BY IDOCK:   -8.57 KCAL/MOL
REMARK 924 INTRA-LIGAND FREE ENERGY PREDICTED BY IDOCK:   -0.89 KCAL/MOL
REMARK 927      BINDING AFFINITY PREDICTED BY RF-SCORE:    0.00 PKD
ROOT
HETATM    1  C   UNL     1     -11.698  14.659  68.035  1.00  0.00    -0.342 C  
HETATM    2  S   UNL     1     -10.205  14.554  69.048  1.00  0.00    -0.164 SA 
HETATM    3  CG2 UNL     1      -9.984  16.344  69.107  1.00  0.00    -0.273 C  
HETATM    4  CB  UNL     1     -10.092  17.053  67.760  1.00  0.00    -0.302 C  
HETATM    5  CA  UNL     1     -12.015  13.384  67.193  1.00  0.00    -0.366 C  
HETATM    6  CA  UNL     1     -10.759  16.542  66.682  1.00  0.00    -0.150 C  
HETATM    7  N   UNL     1     -11.382  15.326  66.785  1.00  0.00    -0.245 N  
HETATM    8  O   UNL     1     -11.906  14.311  64.769  1.00  0.00    -0.384 OA 
HETATM    9  C   UNL     1     -10.831  17.326  65.383  1.00  0.00    -0.021 C  
HETATM   10  C   UNL     1     -11.857  14.357  65.976  1.00  0.00    -0.372 C  
HETATM   11  O   UNL     1     -11.074  16.637  64.253  1.00  0.00    -1.029 OA 
HETATM   12  OXT UNL     1     -10.699  18.542  65.322  1.00  0.00    -0.578 OA 
ENDROOT
BRANCH   4  13
HETATM   13  CG1 UNL     1      -9.312  18.298  67.729  1.00  0.00    -0.276 C  
HETATM   14  CD1 UNL     1      -9.477  19.359  68.531  1.00  0.00    -0.451 C  
ENDBRANCH   4  13
BRANCH   5  15
HETATM   15  N   UNL     1     -11.001  12.300  67.241  1.00  0.00    -0.244 N  
HETATM   16  H   UNL     1     -10.094  12.469  66.806  1.00  0.00     0.000 HD 
HETATM   17  C   UNL     1     -11.218  11.085  67.837  1.00  0.00    -0.310 C  
HETATM   18  O   UNL     1     -12.269  10.772  68.380  1.00  0.00    -0.470 OA 
BRANCH  17  19
HETATM   19  C   UNL     1     -10.055  10.086  67.742  1.00  0.00    -0.183 C  
BRANCH  19  20
HETATM   20  N   UNL     1      -8.817  10.423  67.480  1.00  0.00    -0.134 NA 
HETATM   21  H   UNL     1      -7.359  11.576  68.190  1.00  0.00     0.000 HD 
HETATM   22  O   UNL     1      -8.257  11.332  68.381  1.00  0.00    -0.135 OA 
HETATM   23  H   UNL     1      -8.303  10.051  66.681  1.00  0.00     0.000 HD 
ENDBRANCH  19  20
BRANCH  19  24
HETATM   24  C   UNL     1     -10.315   8.654  67.914  1.00  0.00    -0.229 A  
HETATM   25  S   UNL     1     -10.625   6.324  68.901  1.00  0.00    -0.301 SA 
HETATM   26  C   UNL     1     -10.235   7.978  69.119  1.00  0.00    -0.217 A  
HETATM   27  C   UNL     1     -10.879   6.613  67.230  1.00  0.00    -0.385 A  
HETATM   28  N   UNL     1     -10.699   7.848  66.841  1.00  0.00    -0.280 NA 
HETATM   29  N   UNL     1     -11.223   5.622  66.394  1.00  0.00    -0.727 NA 
HETATM   30  H1  UNL     1     -11.374   5.793  65.400  1.00  0.00     0.000 HD 
HETATM   31  H2  UNL     1     -11.335   4.677  66.761  1.00  0.00     0.000 HD 
ENDBRANCH  19  24
ENDBRANCH  17  19
ENDBRANCH   5  15
TORSDOF 5
ENDMDL
MODEL       10
REMARK 921   NORMALIZED FREE ENERGY PREDICTED BY IDOCK:   -6.65 KCAL/MOL
REMARK 922        TOTAL FREE ENERGY PREDICTED BY IDOCK:   -9.45 KCAL/MOL
REMARK 923 INTER-LIGAND FREE ENERGY PREDICTED BY IDOCK:   -8.57 KCAL/MOL
REMARK 924 INTRA-LIGAND FREE ENERGY PREDICTED BY IDOCK:   -0.88 KCAL/MOL
REMARK 927      BINDING AFFINITY PREDICTED BY RF-SCORE:    0.00 PKD
ROOT
HETATM    1  C   UNL     1     -11.746  14.142  68.209  1.00  0.00    -0.348 C  
HETATM    2  S   UNL     1     -10.342  13.060  67.862  1.00  0.00    -0.237 SA 
HETATM    3  CG2 UNL     1     -11.178  11.588  68.488  1.00  0.00    -0.258 C  
HETATM    4  CB  UNL     1     -11.852  11.757  69.847  1.00  0.00    -0.423 C  
HETATM    5  CA  UNL     1     -11.386  15.650  68.394  1.00  0.00    -0.364 C  
HETATM    6  CA  UNL     1     -12.244  12.963  70.358  1.00  0.00    -0.304 C  
HETATM    7  N   UNL     1     -12.039  14.106  69.630  1.00  0.00    -0.334 N  
HETATM    8  O   UNL     1     -12.153  16.080  70.839  1.00  0.00    -0.394 OA 
HETATM    9  C   UNL     1     -12.924  13.036  71.714  1.00  0.00    -0.321 C  
HETATM   10  C   UNL     1     -11.978  15.438  69.829  1.00  0.00    -0.358 C  
HETATM   11  O   UNL     1     -12.879  14.210  72.371  1.00  0.00    -0.356 OA 
HETATM   12  OXT UNL     1     -13.521  12.093  72.220  1.00  0.00    -0.491 OA 
ENDROOT
BRANCH   4  13
HETATM   13  CG1 UNL     1     -11.937  10.487  70.582  1.00  0.00    -0.455 C  
HETATM   14  CD1 UNL     1     -10.919   9.659  70.857  1.00  0.00    -0.412 C  
ENDBRANCH   4  13
BRANCH   5  15
HETATM   15  N   UNL     1      -9.940  15.984  68.376  1.00  0.00    -0.217 N  
HETATM   16  H   UNL     1      -9.274  15.234  68.187  1.00  0.00     0.000 HD 
HETATM   17  C   UNL     1      -9.450  17.245  68.597  1.00  0.00    -0.278 C  
HETATM   18  O   UNL     1     -10.155  18.215  68.840  1.00  0.00    -0.381 OA 
BRANCH  17  19
HETATM   19  C   UNL     1      -7.919  17.372  68.575  1.00  0.00    -0.266 C  
BRANCH  19  20
HETATM   20  N   UNL     1      -7.097  16.360  68.695  1.00  0.00    -0.154 NA 
HETATM   21  H   UNL     1      -6.840  14.714  69.784  1.00  0.00     0.000 HD 
HETATM   22  O   UNL     1      -7.437  15.448  69.697  1.00  0.00    -0.209 OA 
HETATM   23  H   UNL     1      -6.273  16.247  68.104  1.00  0.00     0.000 HD 
ENDBRANCH  19  20
BRANCH  19  24
HETATM   24  C   UNL     1      -7.305  18.696  68.448  1.00  0.00    -0.287 A  
HETATM   25  S   UNL     1      -6.563  20.977  67.585  1.00  0.00    -0.318 SA 
HETATM   26  C   UNL     1      -7.409  19.510  67.333  1.00  0.00    -0.231 A  
HETATM   27  C   UNL     1      -6.119  20.442  69.153  1.00  0.00    -0.337 A  
HETATM   28  N   UNL     1      -6.564  19.259  69.488  1.00  0.00    -0.304 NA 
HETATM   29  N   UNL     1      -5.352  21.194  69.956  1.00  0.00    -0.533 NA 
HETATM   30  H1  UNL     1      -5.088  20.875  70.889  1.00  0.00     0.000 HD 
HETATM   31  H2  UNL     1      -5.026  22.102  69.628  1.00  0.00     0.000 HD 
ENDBRANCH  19  24
ENDBRANCH  17  19
ENDBRANCH   5  15
TORSDOF 5
ENDMDL
MODEL       11
REMARK 921   NORMALIZED FREE ENERGY PREDICTED BY IDOCK:   -6.61 KCAL/MOL
REMARK 922        TOTAL FREE ENERGY PREDICTED BY IDOCK:   -9.41 KCAL/MOL
REMARK 923 INTER-LIGAND FREE ENERGY PREDICTED BY IDOCK:   -8.46 KCAL/MOL
REMARK 924 INTRA-LIGAND FREE ENERGY PREDICTED BY IDOCK:   -0.95 KCAL/MOL
REMARK 927      BINDING AFFINITY PREDICTED BY RF-SCORE:    0.00 PKD
ROOT
HETATM    1  C   UNL     1      -8.723   8.789  67.562  1.00  0.00    -0.134 C  
HETATM    2  S   UNL     1      -8.798  10.458  68.250  1.00  0.00    -0.140 SA 
HETATM    3  CG2 UNL     1      -8.495   9.897  69.938  1.00  0.00    -0.191 C  
HETATM    4  CB  UNL     1      -9.348   8.714  70.388  1.00  0.00    -0.191 C  
HETATM    5  CA  UNL     1      -9.481   8.598  66.211  1.00  0.00    -0.241 C  
HETATM    6  CA  UNL     1      -9.929   7.824  69.530  1.00  0.00    -0.187 C  
HETATM    7  N   UNL     1      -9.751   7.970  68.178  1.00  0.00    -0.156 N  
HETATM    8  O   UNL     1     -11.264   6.821  66.852  1.00  0.00    -0.375 OA 
HETATM    9  C   UNL     1     -10.749   6.663  70.067  1.00  0.00    -0.240 C  
HETATM   10  C   UNL     1     -10.327   7.564  67.029  1.00  0.00    -0.324 C  
HETATM   11  O   UNL     1     -11.651   6.103  69.241  1.00  0.00    -0.329 OA 
HETATM   12  OXT UNL     1     -10.613   6.208  71.196  1.00  0.00    -0.227 OA 
ENDROOT
BRANCH   4  13
HETATM   13  CG1 UNL     1      -9.553   8.705  71.843  1.00  0.00    -0.377 C  
HETATM   14  CD1 UNL     1      -8.627   8.434  72.775  1.00  0.00    -0.240 C  
ENDBRANCH   4  13
BRANCH   5  15
HETATM   15  N   UNL     1     -10.255   9.767  65.724  1.00  0.00    -0.226 N  
HETATM   16  H   UNL     1     -10.991  10.142  66.323  1.00  0.00     0.000 HD 
HETATM   17  C   UNL     1     -10.034  10.372  64.513  1.00  0.00    -0.331 C  
HETATM   18  O   UNL     1      -9.185  10.003  63.714  1.00  0.00    -0.248 OA 
BRANCH  17  19
HETATM   19  C   UNL     1     -10.971  11.543  64.180  1.00  0.00    -0.366 C  
BRANCH  19  20
HETATM   20  N   UNL     1     -11.690  11.620  63.088  1.00  0.00    -0.881 NA 
HETATM   21  H   UNL     1     -13.554  12.001  62.504  1.00  0.00     0.000 HD 
HETATM   22  O   UNL     1     -13.033  11.945  63.296  1.00  0.00    -0.707 OA 
HETATM   23  H   UNL     1     -11.300  11.456  62.160  1.00  0.00     0.000 HD 
ENDBRANCH  19  20
BRANCH  19  24
HETATM   24  C   UNL     1     -11.065  12.679  65.100  1.00  0.00    -0.294 A  
HETATM   25  S   UNL     1     -10.857  14.980  66.177  1.00  0.00    -0.333 SA 
HETATM   26  C   UNL     1     -10.513  13.928  64.870  1.00  0.00    -0.426 A  
HETATM   27  C   UNL     1     -11.717  13.718  66.957  1.00  0.00    -0.390 A  
HETATM   28  N   UNL     1     -11.763  12.586  66.305  1.00  0.00    -0.411 NA 
HETATM   29  N   UNL     1     -12.281  13.897  68.161  1.00  0.00    -0.494 NA 
HETATM   30  H1  UNL     1     -12.792  13.146  68.625  1.00  0.00     0.000 HD 
HETATM   31  H2  UNL     1     -12.196  14.803  68.622  1.00  0.00     0.000 HD 
ENDBRANCH  19  24
ENDBRANCH  17  19
ENDBRANCH   5  15
TORSDOF 5
ENDMDL
MODEL       12
REMARK 921   NORMALIZED FREE ENERGY PREDICTED BY IDOCK:   -6.59 KCAL/MOL
REMARK 922        TOTAL FREE ENERGY PREDICTED BY IDOCK:   -9.38 KCAL/MOL
REMARK 923 INTER-LIGAND FREE ENERGY PREDICTED BY IDOCK:   -8.35 KCAL/MOL
REMARK 924 INTRA-LIGAND FREE ENERGY PREDICTED BY IDOCK:   -1.03 KCAL/MOL
REMARK 927      BINDING AFFINITY PREDICTED BY RF-SCORE:    0.00 PKD
ROOT
HETATM    1  C   UNL     1      -9.722  10.588  67.119  1.00  0.00    -0.171 C  
HETATM    2  S   UNL     1      -8.130  11.438  67.210  1.00  0.00    -0.155 SA 
HETATM    3  CG2 UNL     1      -7.455  10.281  68.418  1.00  0.00    -0.090 C  
HETATM    4  CB  UNL     1      -8.367   9.980  69.604  1.00  0.00    -0.188 C  
HETATM    5  CA  UNL     1     -10.917  11.475  66.648  1.00  0.00    -0.296 C  
HETATM    6  CA  UNL     1      -9.725  10.133  69.579  1.00  0.00    -0.229 C  
HETATM    7  N   UNL     1     -10.335  10.577  68.434  1.00  0.00    -0.168 N  
HETATM    8  O   UNL     1     -12.489  11.385  68.714  1.00  0.00    -0.396 OA 
HETATM    9  C   UNL     1     -10.558   9.792  70.803  1.00  0.00    -0.301 C  
HETATM   10  C   UNL     1     -11.505  11.132  68.059  1.00  0.00    -0.293 C  
HETATM   11  O   UNL     1     -11.772  10.365  70.908  1.00  0.00    -0.335 OA 
HETATM   12  OXT UNL     1     -10.189   9.015  71.674  1.00  0.00    -0.317 OA 
ENDROOT
BRANCH   4  13
HETATM   13  CG1 UNL     1      -7.606   9.603  70.804  1.00  0.00    -0.031 C  
HETATM   14  CD1 UNL     1      -6.272   9.508  70.901  1.00  0.00    -0.086 C  
ENDBRANCH   4  13
BRANCH   5  15
HETATM   15  N   UNL     1     -10.623  12.916  66.445  1.00  0.00    -0.269 N  
HETATM   16  H   UNL     1      -9.795  13.306  66.896  1.00  0.00     0.000 HD 
HETATM   17  C   UNL     1     -11.402  13.749  65.685  1.00  0.00    -0.305 C  
HETATM   18  O   UNL     1     -12.418  13.390  65.107  1.00  0.00    -0.430 OA 
BRANCH  17  19
HETATM   19  C   UNL     1     -10.946  15.216  65.636  1.00  0.00    -0.355 C  
BRANCH  19  20
HETATM   20  N   UNL     1     -10.702  15.872  64.530  1.00  0.00    -0.806 NA 
HETATM   21  H   UNL     1     -11.593  17.119  63.258  1.00  0.00     0.000 HD 
HETATM   22  O   UNL     1     -11.769  16.642  64.061  1.00  0.00    -1.143 OA 
HETATM   23  H   UNL     1      -9.804  15.824  64.047  1.00  0.00     0.000 HD 
ENDBRANCH  19  20
BRANCH  19  24
HETATM   24  C   UNL     1     -10.725  15.947  66.886  1.00  0.00    -0.289 A  
HETATM   25  S   UNL     1      -9.886  17.593  68.643  1.00  0.00    -0.349 SA 
HETATM   26  C   UNL     1      -9.841  17.003  67.036  1.00  0.00    -0.270 A  
HETATM   27  C   UNL     1     -11.074  16.418  69.033  1.00  0.00    -0.315 A  
HETATM   28  N   UNL     1     -11.431  15.635  68.048  1.00  0.00    -0.328 NA 
HETATM   29  N   UNL     1     -11.575  16.316  70.273  1.00  0.00    -0.435 NA 
HETATM   30  H1  UNL     1     -12.281  15.617  70.504  1.00  0.00     0.000 HD 
HETATM   31  H2  UNL     1     -11.243  16.950  70.999  1.00  0.00     0.000 HD 
ENDBRANCH  19  24
ENDBRANCH  17  19
ENDBRANCH   5  15
TORSDOF 5
ENDMDL
MODEL       13
REMARK 921   NORMALIZED FREE ENERGY PREDICTED BY IDOCK:   -6.59 KCAL/MOL
REMARK 922        TOTAL FREE ENERGY PREDICTED BY IDOCK:   -9.37 KCAL/MOL
REMARK 923 INTER-LIGAND FREE ENERGY PREDICTED BY IDOCK:   -8.42 KCAL/MOL
REMARK 924 INTRA-LIGAND FREE ENERGY PREDICTED BY IDOCK:   -0.96 KCAL/MOL
REMARK 927      BINDING AFFINITY PREDICTED BY RF-SCORE:    0.00 PKD
ROOT
HETATM    1  C   UNL     1     -10.555  11.078  64.905  1.00  0.00    -0.258 C  
HETATM    2  S   UNL     1     -10.098  11.568  63.228  1.00  0.00    -0.394 SA 
HETATM    3  CG2 UNL     1      -9.094  10.094  62.950  1.00  0.00    -0.286 C  
HETATM    4  CB  UNL     1      -8.117   9.758  64.073  1.00  0.00    -0.150 C  
HETATM    5  CA  UNL     1     -10.963  12.254  65.848  1.00  0.00    -0.302 C  
HETATM    6  CA  UNL     1      -8.267  10.176  65.366  1.00  0.00    -0.151 C  
HETATM    7  N   UNL     1      -9.354  10.939  65.708  1.00  0.00    -0.195 N  
HETATM    8  O   UNL     1      -9.163  12.084  67.714  1.00  0.00    -0.177 OA 
HETATM    9  C   UNL     1      -7.252   9.779  66.424  1.00  0.00    -0.095 C  
HETATM   10  C   UNL     1      -9.737  11.772  66.697  1.00  0.00    -0.202 C  
HETATM   11  O   UNL     1      -7.170  10.547  67.526  1.00  0.00    -0.088 OA 
HETATM   12  OXT UNL     1      -6.531   8.794  66.329  1.00  0.00    -0.063 OA 
ENDROOT
BRANCH   4  13
HETATM   13  CG1 UNL     1      -6.944   9.020  63.581  1.00  0.00    -0.089 C  
HETATM   14  CD1 UNL     1      -6.219   9.316  62.493  1.00  0.00    -0.093 C  
ENDBRANCH   4  13
BRANCH   5  15
HETATM   15  N   UNL     1     -10.816  13.621  65.289  1.00  0.00    -0.309 N  
HETATM   16  H   UNL     1     -10.419  13.720  64.355  1.00  0.00     0.000 HD 
HETATM   17  C   UNL     1     -11.184  14.759  65.960  1.00  0.00    -0.341 C  
HETATM   18  O   UNL     1     -11.662  14.758  67.086  1.00  0.00    -0.376 OA 
BRANCH  17  19
HETATM   19  C   UNL     1     -10.911  16.078  65.222  1.00  0.00    -0.299 C  
BRANCH  19  20
HETATM   20  N   UNL     1     -11.390  16.370  64.039  1.00  0.00    -1.539 NA 
HETATM   21  H   UNL     1     -12.950  15.960  62.872  1.00  0.00     0.000 HD 
HETATM   22  O   UNL     1     -12.603  15.748  63.731  1.00  0.00    -0.622 OA 
HETATM   23  H   UNL     1     -10.915  17.001  63.393  1.00  0.00     0.000 HD 
ENDBRANCH  19  20
BRANCH  19  24
HETATM   24  C   UNL     1     -10.036  17.081  65.833  1.00  0.00    -0.263 A  
HETATM   25  S   UNL     1      -8.108  18.246  67.027  1.00  0.00    -0.237 SA 
HETATM   26  C   UNL     1      -8.832  16.802  66.457  1.00  0.00    -0.277 A  
HETATM   27  C   UNL     1      -9.431  19.145  66.407  1.00  0.00    -0.354 A  
HETATM   28  N   UNL     1     -10.355  18.440  65.808  1.00  0.00    -0.608 NA 
HETATM   29  N   UNL     1      -9.501  20.476  66.554  1.00  0.00    -0.649 NA 
HETATM   30  H1  UNL     1     -10.288  21.010  66.185  1.00  0.00     0.000 HD 
HETATM   31  H2  UNL     1      -8.752  20.964  67.043  1.00  0.00     0.000 HD 
ENDBRANCH  19  24
ENDBRANCH  17  19
ENDBRANCH   5  15
TORSDOF 5
ENDMDL
MODEL       14
REMARK 921   NORMALIZED FREE ENERGY PREDICTED BY IDOCK:   -6.57 KCAL/MOL
REMARK 922        TOTAL FREE ENERGY PREDICTED BY IDOCK:   -9.36 KCAL/MOL
REMARK 923 INTER-LIGAND FREE ENERGY PREDICTED BY IDOCK:   -8.48 KCAL/MOL
REMARK 924 INTRA-LIGAND FREE ENERGY PREDICTED BY IDOCK:   -0.88 KCAL/MOL
REMARK 927      BINDING AFFINITY PREDICTED BY RF-SCORE:    0.00 PKD
ROOT
HETATM    1  C   UNL     1     -11.902  14.015  68.396  1.00  0.00    -0.362 C  
HETATM    2  S   UNL     1     -10.408  13.052  68.073  1.00  0.00    -0.240 SA 
HETATM    3  CG2 UNL     1     -11.142  11.509  68.653  1.00  0.00    -0.238 C  
HETATM    4  CB  UNL     1     -11.864  11.602  69.994  1.00  0.00    -0.435 C  
HETATM    5  CA  UNL     1     -11.667  15.543  68.613  1.00  0.00    -0.348 C  
HETATM    6  CA  UNL     1     -12.363  12.764  70.513  1.00  0.00    -0.275 C  
HETATM    7  N   UNL     1     -12.230  13.932  69.807  1.00  0.00    -0.341 N  
HETATM    8  O   UNL     1     -12.532  15.870  71.041  1.00  0.00    -0.440 OA 
HETATM    9  C   UNL     1     -13.084  12.761  71.850  1.00  0.00    -0.371 C  
HETATM   10  C   UNL     1     -12.279  15.261  70.028  1.00  0.00    -0.349 C  
HETATM   11  O   UNL     1     -13.149  13.923  72.524  1.00  0.00    -0.433 OA 
HETATM   12  OXT UNL     1     -13.618  11.766  72.324  1.00  0.00    -0.328 OA 
ENDROOT
BRANCH   4  13
HETATM   13  CG1 UNL     1     -11.868  10.317  70.708  1.00  0.00    -0.459 C  
HETATM   14  CD1 UNL     1     -10.806   9.531  70.935  1.00  0.00    -0.407 C  
ENDBRANCH   4  13
BRANCH   5  15
HETATM   15  N   UNL     1     -10.252  15.990  68.641  1.00  0.00    -0.223 N  
HETATM   16  H   UNL     1      -9.537  15.312  68.905  1.00  0.00     0.000 HD 
HETATM   17  C   UNL     1      -9.853  17.264  68.330  1.00  0.00    -0.309 C  
HETATM   18  O   UNL     1     -10.623  18.158  68.008  1.00  0.00    -0.390 OA 
BRANCH  17  19
HETATM   19  C   UNL     1      -8.346  17.534  68.459  1.00  0.00    -0.274 C  
BRANCH  19  20
HETATM   20  N   UNL     1      -7.514  16.758  69.107  1.00  0.00    -0.229 NA 
HETATM   21  H   UNL     1      -6.647  14.972  68.954  1.00  0.00     0.000 HD 
HETATM   22  O   UNL     1      -7.251  15.536  68.483  1.00  0.00    -0.113 OA 
HETATM   23  H   UNL     1      -7.092  17.024  69.997  1.00  0.00     0.000 HD 
ENDBRANCH  19  20
BRANCH  19  24
HETATM   24  C   UNL     1      -7.774  18.744  67.864  1.00  0.00    -0.256 A  
HETATM   25  S   UNL     1      -6.658  21.011  67.520  1.00  0.00    -0.360 SA 
HETATM   26  C   UNL     1      -7.231  19.796  68.583  1.00  0.00    -0.323 A  
HETATM   27  C   UNL     1      -7.160  20.064  66.181  1.00  0.00    -0.271 A  
HETATM   28  N   UNL     1      -7.712  18.917  66.481  1.00  0.00    -0.249 NA 
HETATM   29  N   UNL     1      -7.003  20.498  64.921  1.00  0.00    -0.455 NA 
HETATM   30  H1  UNL     1      -7.301  19.935  64.125  1.00  0.00     0.000 HD 
HETATM   31  H2  UNL     1      -6.576  21.409  64.757  1.00  0.00     0.000 HD 
ENDBRANCH  19  24
ENDBRANCH  17  19
ENDBRANCH   5  15
TORSDOF 5
ENDMDL
MODEL       15
REMARK 921   NORMALIZED FREE ENERGY PREDICTED BY IDOCK:   -6.57 KCAL/MOL
REMARK 922        TOTAL FREE ENERGY PREDICTED BY IDOCK:   -9.34 KCAL/MOL
REMARK 923 INTER-LIGAND FREE ENERGY PREDICTED BY IDOCK:   -8.24 KCAL/MOL
REMARK 924 INTRA-LIGAND FREE ENERGY PREDICTED BY IDOCK:   -1.10 KCAL/MOL
REMARK 927      BINDING AFFINITY PREDICTED BY RF-SCORE:    0.00 PKD
ROOT
HETATM    1  C   UNL     1     -11.852  14.425  68.476  1.00  0.00    -0.334 C  
HETATM    2  S   UNL     1     -10.300  13.584  68.095  1.00  0.00    -0.252 SA 
HETATM    3  CG2 UNL     1     -10.955  11.952  68.497  1.00  0.00    -0.235 C  
HETATM    4  CB  UNL     1     -11.706  11.866  69.823  1.00  0.00    -0.403 C  
HETATM    5  CA  UNL     1     -11.710  15.933  68.854  1.00  0.00    -0.370 C  
HETATM    6  CA  UNL     1     -12.281  12.940  70.443  1.00  0.00    -0.304 C  
HETATM    7  N   UNL     1     -12.202  14.180  69.863  1.00  0.00    -0.346 N  
HETATM    8  O   UNL     1     -12.638  15.961  71.280  1.00  0.00    -0.454 OA 
HETATM    9  C   UNL     1     -13.026  12.759  71.755  1.00  0.00    -0.314 C  
HETATM   10  C   UNL     1     -12.332  15.474  70.217  1.00  0.00    -0.396 C  
HETATM   11  O   UNL     1     -13.171  13.841  72.542  1.00  0.00    -0.478 OA 
HETATM   12  OXT UNL     1     -13.511  11.694  72.113  1.00  0.00    -0.423 OA 
ENDROOT
BRANCH   4  13
HETATM   13  CG1 UNL     1     -11.650  10.517  70.402  1.00  0.00    -0.430 C  
HETATM   14  CD1 UNL     1     -10.544   9.793  70.625  1.00  0.00    -0.382 C  
ENDBRANCH   4  13
BRANCH   5  15
HETATM   15  N   UNL     1     -10.323  16.453  68.961  1.00  0.00    -0.259 N  
HETATM   16  H   UNL     1      -9.652  15.922  69.517  1.00  0.00     0.000 HD 
HETATM   17  C   UNL     1      -9.896  17.605  68.355  1.00  0.00    -0.334 C  
HETATM   18  O   UNL     1     -10.616  18.322  67.674  1.00  0.00    -0.406 OA 
BRANCH  17  19
HETATM   19  C   UNL     1      -8.433  17.990  68.625  1.00  0.00    -0.267 C  
BRANCH  19  20
HETATM   20  N   UNL     1      -8.017  19.219  68.797  1.00  0.00    -0.360 NA 
HETATM   21  H   UNL     1      -7.313  20.761  67.752  1.00  0.00     0.000 HD 
HETATM   22  O   UNL     1      -7.615  19.868  67.627  1.00  0.00    -0.272 OA 
HETATM   23  H   UNL     1      -7.987  19.667  69.713  1.00  0.00     0.000 HD 
ENDBRANCH  19  20
BRANCH  19  24
HETATM   24  C   UNL     1      -7.406  16.946  68.663  1.00  0.00    -0.222 A  
HETATM   25  S   UNL     1      -5.373  15.534  69.273  1.00  0.00    -0.097 SA 
HETATM   26  C   UNL     1      -6.335  16.926  69.540  1.00  0.00    -0.233 A  
HETATM   27  C   UNL     1      -6.439  15.047  68.020  1.00  0.00    -0.147 A  
HETATM   28  N   UNL     1      -7.450  15.847  67.804  1.00  0.00    -0.131 NA 
HETATM   29  N   UNL     1      -6.221  13.929  67.313  1.00  0.00    -0.394 NA 
HETATM   30  H1  UNL     1      -6.855  13.640  66.567  1.00  0.00     0.000 HD 
HETATM   31  H2  UNL     1      -5.405  13.356  67.524  1.00  0.00     0.000 HD 
ENDBRANCH  19  24
ENDBRANCH  17  19
ENDBRANCH   5  15
TORSDOF 5
ENDMDL
MODEL       16
REMARK 921   NORMALIZED FREE ENERGY PREDICTED BY IDOCK:   -6.55 KCAL/MOL
REMARK 922        TOTAL FREE ENERGY PREDICTED BY IDOCK:   -9.32 KCAL/MOL
REMARK 923 INTER-LIGAND FREE ENERGY PREDICTED BY IDOCK:   -8.35 KCAL/MOL
REMARK 924 INTRA-LIGAND FREE ENERGY PREDICTED BY IDOCK:   -0.97 KCAL/MOL
REMARK 927      BINDING AFFINITY PREDICTED BY RF-SCORE:    0.00 PKD
ROOT
HETATM    1  C   UNL     1     -12.205  14.158  66.572  1.00  0.00    -0.433 C  
HETATM    2  S   UNL     1     -11.811  12.790  67.685  1.00  0.00    -0.286 SA 
HETATM    3  CG2 UNL     1     -12.031  13.789  69.171  1.00  0.00    -0.361 C  
HETATM    4  CB  UNL     1     -11.329  15.143  69.149  1.00  0.00    -0.311 C  
HETATM    5  CA  UNL     1     -11.618  14.025  65.131  1.00  0.00    -0.342 C  
HETATM    6  CA  UNL     1     -10.974  15.799  68.004  1.00  0.00    -0.330 C  
HETATM    7  N   UNL     1     -11.258  15.237  66.786  1.00  0.00    -0.288 N  
HETATM    8  O   UNL     1     -10.072  16.108  64.996  1.00  0.00    -0.478 OA 
HETATM    9  C   UNL     1     -10.292  17.155  68.076  1.00  0.00    -0.353 C  
HETATM   10  C   UNL     1     -10.864  15.347  65.502  1.00  0.00    -0.374 C  
HETATM   11  O   UNL     1      -9.569  17.545  67.010  1.00  0.00    -0.253 OA 
HETATM   12  OXT UNL     1     -10.386  17.906  69.038  1.00  0.00    -0.361 OA 
ENDROOT
BRANCH   4  13
HETATM   13  CG1 UNL     1     -10.988  15.609  70.501  1.00  0.00    -0.371 C  
HETATM   14  CD1 UNL     1     -11.758  15.510  71.593  1.00  0.00    -0.498 C  
ENDBRANCH   4  13
BRANCH   5  15
HETATM   15  N   UNL     1     -10.727  12.862  64.892  1.00  0.00    -0.299 N  
HETATM   16  H   UNL     1      -9.824  12.842  65.366  1.00  0.00     0.000 HD 
HETATM   17  C   UNL     1     -11.051  11.815  64.069  1.00  0.00    -0.390 C  
HETATM   18  O   UNL     1     -12.101  11.740  63.446  1.00  0.00    -0.491 OA 
BRANCH  17  19
HETATM   19  C   UNL     1      -9.972  10.730  63.926  1.00  0.00    -0.343 C  
BRANCH  19  20
HETATM   20  N   UNL     1      -9.318  10.487  62.818  1.00  0.00    -0.292 NA 
HETATM   21  H   UNL     1      -8.038  11.363  61.570  1.00  0.00     0.000 HD 
HETATM   22  O   UNL     1      -8.513  11.539  62.374  1.00  0.00    -0.274 OA 
HETATM   23  H   UNL     1      -9.390   9.600  62.320  1.00  0.00     0.000 HD 
ENDBRANCH  19  20
BRANCH  19  24
HETATM   24  C   UNL     1      -9.655   9.871  65.069  1.00  0.00    -0.297 A  
HETATM   25  S   UNL     1      -8.662   8.069  66.575  1.00  0.00    -0.153 SA 
HETATM   26  C   UNL     1      -8.764   8.811  65.035  1.00  0.00    -0.148 A  
HETATM   27  C   UNL     1      -9.797   9.200  67.186  1.00  0.00    -0.195 A  
HETATM   28  N   UNL     1     -10.229  10.082  66.323  1.00  0.00    -0.235 NA 
HETATM   29  N   UNL     1     -10.211   9.155  68.461  1.00  0.00    -0.193 NA 
HETATM   30  H1  UNL     1     -10.886   9.828  68.825  1.00  0.00     0.000 HD 
HETATM   31  H2  UNL     1      -9.844   8.432  69.080  1.00  0.00     0.000 HD 
ENDBRANCH  19  24
ENDBRANCH  17  19
ENDBRANCH   5  15
TORSDOF 5
ENDMDL
MODEL       17
REMARK 921   NORMALIZED FREE ENERGY PREDICTED BY IDOCK:   -6.47 KCAL/MOL
REMARK 922        TOTAL FREE ENERGY PREDICTED BY IDOCK:   -9.22 KCAL/MOL
REMARK 923 INTER-LIGAND FREE ENERGY PREDICTED BY IDOCK:   -8.16 KCAL/MOL
REMARK 924 INTRA-LIGAND FREE ENERGY PREDICTED BY IDOCK:   -1.06 KCAL/MOL
REMARK 927      BINDING AFFINITY PREDICTED BY RF-SCORE:    0.00 PKD
ROOT
HETATM    1  C   UNL     1     -11.231  12.225  67.890  1.00  0.00    -0.274 C  
HETATM    2  S   UNL     1      -9.555  11.565  68.020  1.00  0.00    -0.186 SA 
HETATM    3  CG2 UNL     1     -10.093  10.058  68.855  1.00  0.00    -0.190 C  
HETATM    4  CB  UNL     1     -11.053  10.274  70.021  1.00  0.00    -0.373 C  
HETATM    5  CA  UNL     1     -11.320  13.779  67.757  1.00  0.00    -0.303 C  
HETATM    6  CA  UNL     1     -11.840  11.382  70.166  1.00  0.00    -0.355 C  
HETATM    7  N   UNL     1     -11.792  12.374  69.221  1.00  0.00    -0.313 N  
HETATM    8  O   UNL     1     -12.659  14.417  69.889  1.00  0.00    -0.303 OA 
HETATM    9  C   UNL     1     -12.781  11.506  71.352  1.00  0.00    -0.364 C  
HETATM   10  C   UNL     1     -12.120  13.677  69.100  1.00  0.00    -0.319 C  
HETATM   11  O   UNL     1     -13.177  12.742  71.706  1.00  0.00    -0.429 OA 
HETATM   12  OXT UNL     1     -13.205  10.543  71.978  1.00  0.00    -0.464 OA 
ENDROOT
BRANCH   4  13
HETATM   13  CG1 UNL     1     -10.957   9.200  71.020  1.00  0.00    -0.375 C  
HETATM   14  CD1 UNL     1      -9.836   8.764  71.612  1.00  0.00    -0.378 C  
ENDBRANCH   4  13
BRANCH   5  15
HETATM   15  N   UNL     1     -10.037  14.518  67.867  1.00  0.00    -0.225 N  
HETATM   16  H   UNL     1      -9.615  14.616  68.791  1.00  0.00     0.000 HD 
HETATM   17  C   UNL     1      -9.390  15.077  66.796  1.00  0.00    -0.251 C  
HETATM   18  O   UNL     1      -9.809  15.028  65.648  1.00  0.00    -0.329 OA 
BRANCH  17  19
HETATM   19  C   UNL     1      -8.096  15.836  67.129  1.00  0.00    -0.211 C  
BRANCH  19  20
HETATM   20  N   UNL     1      -6.894  15.341  66.972  1.00  0.00    -0.283 NA 
HETATM   21  H   UNL     1      -5.904  13.625  67.168  1.00  0.00     0.000 HD 
HETATM   22  O   UNL     1      -6.777  13.984  67.282  1.00  0.00    -0.244 OA 
HETATM   23  H   UNL     1      -6.106  15.902  66.648  1.00  0.00     0.000 HD 
ENDBRANCH  19  20
BRANCH  19  24
HETATM   24  C   UNL     1      -8.173  17.185  67.693  1.00  0.00    -0.187 A  
HETATM   25  S   UNL     1      -7.598  19.518  68.547  1.00  0.00    -0.339 SA 
HETATM   26  C   UNL     1      -7.088  18.026  67.877  1.00  0.00    -0.216 A  
HETATM   27  C   UNL     1      -9.218  18.956  68.545  1.00  0.00    -0.361 A  
HETATM   28  N   UNL     1      -9.392  17.748  68.075  1.00  0.00    -0.269 NA 
HETATM   29  N   UNL     1     -10.221  19.714  69.012  1.00  0.00    -0.619 NA 
HETATM   30  H1  UNL     1     -11.185  19.380  69.011  1.00  0.00     0.000 HD 
HETATM   31  H2  UNL     1     -10.016  20.644  69.377  1.00  0.00     0.000 HD 
ENDBRANCH  19  24
ENDBRANCH  17  19
ENDBRANCH   5  15
TORSDOF 5
ENDMDL
MODEL       18
REMARK 921   NORMALIZED FREE ENERGY PREDICTED BY IDOCK:   -6.45 KCAL/MOL
REMARK 922        TOTAL FREE ENERGY PREDICTED BY IDOCK:   -9.19 KCAL/MOL
REMARK 923 INTER-LIGAND FREE ENERGY PREDICTED BY IDOCK:   -8.25 KCAL/MOL
REMARK 924 INTRA-LIGAND FREE ENERGY PREDICTED BY IDOCK:   -0.95 KCAL/MOL
REMARK 927      BINDING AFFINITY PREDICTED BY RF-SCORE:    0.00 PKD
ROOT
HETATM    1  C   UNL     1     -11.883  12.473  65.645  1.00  0.00    -0.438 C  
HETATM    2  S   UNL     1     -10.630  12.644  64.355  1.00  0.00    -0.387 SA 
HETATM    3  CG2 UNL     1     -10.318  10.870  64.265  1.00  0.00    -0.368 C  
HETATM    4  CB  UNL     1     -10.115  10.181  65.612  1.00  0.00    -0.324 C  
HETATM    5  CA  UNL     1     -12.102  13.744  66.525  1.00  0.00    -0.443 C  
HETATM    6  CA  UNL     1     -10.584  10.672  66.798  1.00  0.00    -0.237 C  
HETATM    7  N   UNL     1     -11.287  11.849  66.812  1.00  0.00    -0.327 N  
HETATM    8  O   UNL     1     -11.460  12.870  68.885  1.00  0.00    -0.263 OA 
HETATM    9  C   UNL     1     -10.350   9.910  68.091  1.00  0.00    -0.195 C  
HETATM   10  C   UNL     1     -11.648  12.804  67.693  1.00  0.00    -0.358 C  
HETATM   11  O   UNL     1     -10.405  10.605  69.242  1.00  0.00    -0.207 OA 
HETATM   12  OXT UNL     1     -10.136   8.705  68.133  1.00  0.00    -0.181 OA 
ENDROOT
BRANCH   4  13
HETATM   13  CG1 UNL     1      -9.271   8.983  65.497  1.00  0.00    -0.262 C  
HETATM   14  CD1 UNL     1      -7.978   8.952  65.145  1.00  0.00    -0.122 C  
ENDBRANCH   4  13
BRANCH   5  15
HETATM   15  N   UNL     1     -11.185  14.883  66.269  1.00  0.00    -0.342 N  
HETATM   16  H   UNL     1     -10.669  14.898  65.389  1.00  0.00     0.000 HD 
HETATM   17  C   UNL     1     -10.994  15.916  67.150  1.00  0.00    -0.214 C  
HETATM   18  O   UNL     1     -11.553  15.996  68.235  1.00  0.00    -0.338 OA 
BRANCH  17  19
HETATM   19  C   UNL     1      -9.971  16.975  66.713  1.00  0.00    -0.295 C  
BRANCH  19  20
HETATM   20  N   UNL     1     -10.211  17.904  65.822  1.00  0.00    -0.608 NA 
HETATM   21  H   UNL     1     -11.136  18.152  64.076  1.00  0.00     0.000 HD 
HETATM   22  O   UNL     1     -10.962  17.478  64.723  1.00  0.00    -0.950 OA 
HETATM   23  H   UNL     1      -9.876  18.862  65.921  1.00  0.00     0.000 HD 
ENDBRANCH  19  20
BRANCH  19  24
HETATM   24  C   UNL     1      -8.621  16.955  67.281  1.00  0.00    -0.196 A  
HETATM   25  S   UNL     1      -6.580  17.351  68.757  1.00  0.00    -0.217 SA 
HETATM   26  C   UNL     1      -8.232  17.648  68.415  1.00  0.00    -0.289 A  
HETATM   27  C   UNL     1      -6.490  16.322  67.389  1.00  0.00    -0.180 A  
HETATM   28  N   UNL     1      -7.601  16.189  66.713  1.00  0.00    -0.240 NA 
HETATM   29  N   UNL     1      -5.343  15.719  67.043  1.00  0.00    -0.265 NA 
HETATM   30  H1  UNL     1      -5.289  15.107  66.229  1.00  0.00     0.000 HD 
HETATM   31  H2  UNL     1      -4.507  15.875  67.606  1.00  0.00     0.000 HD 
ENDBRANCH  19  24
ENDBRANCH  17  19
ENDBRANCH   5  15
TORSDOF 5
ENDMDL
MODEL       19
REMARK 921   NORMALIZED FREE ENERGY PREDICTED BY IDOCK:   -6.44 KCAL/MOL
REMARK 922        TOTAL FREE ENERGY PREDICTED BY IDOCK:   -9.19 KCAL/MOL
REMARK 923 INTER-LIGAND FREE ENERGY PREDICTED BY IDOCK:   -8.28 KCAL/MOL
REMARK 924 INTRA-LIGAND FREE ENERGY PREDICTED BY IDOCK:   -0.91 KCAL/MOL
REMARK 927      BINDING AFFINITY PREDICTED BY RF-SCORE:    0.00 PKD
ROOT
HETATM    1  C   UNL     1      -9.297  11.719  67.419  1.00  0.00    -0.174 C  
HETATM    2  S   UNL     1      -8.754  10.024  67.112  1.00  0.00    -0.128 SA 
HETATM    3  CG2 UNL     1      -8.533  10.295  65.342  1.00  0.00    -0.161 C  
HETATM    4  CB  UNL     1      -9.698  10.992  64.645  1.00  0.00    -0.315 C  
HETATM    5  CA  UNL     1     -10.175  11.910  68.696  1.00  0.00    -0.191 C  
HETATM    6  CA  UNL     1     -10.608  11.783  65.289  1.00  0.00    -0.278 C  
HETATM    7  N   UNL     1     -10.492  11.988  66.639  1.00  0.00    -0.212 N  
HETATM    8  O   UNL     1     -12.399  12.790  67.684  1.00  0.00    -0.250 OA 
HETATM    9  C   UNL     1     -11.728  12.452  64.511  1.00  0.00    -0.362 C  
HETATM   10  C   UNL     1     -11.256  12.397  67.672  1.00  0.00    -0.288 C  
HETATM   11  O   UNL     1     -12.826  12.824  65.196  1.00  0.00    -0.726 OA 
HETATM   12  OXT UNL     1     -11.670  12.684  63.310  1.00  0.00    -0.495 OA 
ENDROOT
BRANCH   4  13
HETATM   13  CG1 UNL     1      -9.785  10.631  63.223  1.00  0.00    -0.385 C  
HETATM   14  CD1 UNL     1      -8.772  10.607  62.346  1.00  0.00    -0.307 C  
ENDBRANCH   4  13
BRANCH   5  15
HETATM   15  N   UNL     1     -10.543  10.671  69.428  1.00  0.00    -0.231 N  
HETATM   16  H   UNL     1     -10.083   9.800  69.163  1.00  0.00     0.000 HD 
HETATM   17  C   UNL     1     -11.467  10.635  70.439  1.00  0.00    -0.334 C  
HETATM   18  O   UNL     1     -12.084  11.616  70.832  1.00  0.00    -0.341 OA 
BRANCH  17  19
HETATM   19  C   UNL     1     -11.734   9.246  71.039  1.00  0.00    -0.311 C  
BRANCH  19  20
HETATM   20  N   UNL     1     -12.827   8.554  70.832  1.00  0.00    -0.486 NA 
HETATM   21  H   UNL     1     -14.729   8.481  71.415  1.00  0.00     0.000 HD 
HETATM   22  O   UNL     1     -13.936   8.983  71.565  1.00  0.00    -0.373 OA 
HETATM   23  H   UNL     1     -12.864   7.765  70.187  1.00  0.00     0.000 HD 
ENDBRANCH  19  20
BRANCH  19  24
HETATM   24  C   UNL     1     -10.743   8.641  71.932  1.00  0.00    -0.344 A  
HETATM   25  S   UNL     1      -9.594   7.215  73.706  1.00  0.00    -0.289 SA 
HETATM   26  C   UNL     1     -11.023   7.669  72.877  1.00  0.00    -0.400 A  
HETATM   27  C   UNL     1      -8.700   8.329  72.757  1.00  0.00    -0.219 A  
HETATM   28  N   UNL     1      -9.395   8.998  71.874  1.00  0.00    -0.363 NA 
HETATM   29  N   UNL     1      -7.382   8.499  72.937  1.00  0.00    -0.316 NA 
HETATM   30  H1  UNL     1      -6.850   9.162  72.372  1.00  0.00     0.000 HD 
HETATM   31  H2  UNL     1      -6.901   7.954  73.652  1.00  0.00     0.000 HD 
ENDBRANCH  19  24
ENDBRANCH  17  19
ENDBRANCH   5  15
TORSDOF 5
ENDMDL
MODEL       20
REMARK 921   NORMALIZED FREE ENERGY PREDICTED BY IDOCK:   -6.40 KCAL/MOL
REMARK 922        TOTAL FREE ENERGY PREDICTED BY IDOCK:   -9.12 KCAL/MOL
REMARK 923 INTER-LIGAND FREE ENERGY PREDICTED BY IDOCK:   -8.05 KCAL/MOL
REMARK 924 INTRA-LIGAND FREE ENERGY PREDICTED BY IDOCK:   -1.08 KCAL/MOL
REMARK 927      BINDING AFFINITY PREDICTED BY RF-SCORE:    0.00 PKD
ROOT
HETATM    1  C   UNL     1     -12.032  13.219  65.843  1.00  0.00    -0.419 C  
HETATM    2  S   UNL     1     -10.782  13.926  64.747  1.00  0.00    -0.418 SA 
HETATM    3  CG2 UNL     1     -10.499  12.368  63.882  1.00  0.00    -0.439 C  
HETATM    4  CB  UNL     1     -10.301  11.154  64.785  1.00  0.00    -0.387 C  
HETATM    5  CA  UNL     1     -12.227  13.976  67.195  1.00  0.00    -0.321 C  
HETATM    6  CA  UNL     1     -10.757  11.079  66.072  1.00  0.00    -0.177 C  
HETATM    7  N   UNL     1     -11.441  12.138  66.610  1.00  0.00    -0.359 N  
HETATM    8  O   UNL     1     -11.590  12.144  68.923  1.00  0.00    -0.274 OA 
HETATM    9  C   UNL     1     -10.530   9.822  66.894  1.00  0.00    -0.211 C  
HETATM   10  C   UNL     1     -11.783  12.612  67.825  1.00  0.00    -0.356 C  
HETATM   11  O   UNL     1     -10.569   9.940  68.234  1.00  0.00    -0.205 OA 
HETATM   12  OXT UNL     1     -10.335   8.719  66.399  1.00  0.00    -0.271 OA 
ENDROOT
BRANCH   4  13
HETATM   13  CG1 UNL     1      -9.477  10.118  64.145  1.00  0.00    -0.353 C  
HETATM   14  CD1 UNL     1      -8.172  10.211  63.851  1.00  0.00    -0.164 C  
ENDBRANCH   4  13
BRANCH   5  15
HETATM   15  N   UNL     1     -11.293  15.100  67.456  1.00  0.00    -0.333 N  
HETATM   16  H   UNL     1     -10.542  15.267  66.787  1.00  0.00     0.000 HD 
HETATM   17  C   UNL     1     -11.385  15.924  68.548  1.00  0.00    -0.374 C  
HETATM   18  O   UNL     1     -12.240  15.810  69.415  1.00  0.00    -0.313 OA 
BRANCH  17  19
HETATM   19  C   UNL     1     -10.295  17.002  68.654  1.00  0.00    -0.351 C  
BRANCH  19  20
HETATM   20  N   UNL     1     -10.511  18.283  68.488  1.00  0.00    -0.365 NA 
HETATM   21  H   UNL     1     -10.957  19.589  67.053  1.00  0.00     0.000 HD 
HETATM   22  O   UNL     1     -10.801  18.659  67.174  1.00  0.00    -0.408 OA 
HETATM   23  H   UNL     1     -10.469  18.953  69.256  1.00  0.00     0.000 HD 
ENDBRANCH  19  20
BRANCH  19  24
HETATM   24  C   UNL     1      -8.911  16.607  68.923  1.00  0.00    -0.238 A  
HETATM   25  S   UNL     1      -6.368  16.567  69.105  1.00  0.00    -0.197 SA 
HETATM   26  C   UNL     1      -7.799  17.374  68.621  1.00  0.00    -0.274 A  
HETATM   27  C   UNL     1      -7.313  15.259  69.686  1.00  0.00    -0.188 A  
HETATM   28  N   UNL     1      -8.606  15.396  69.547  1.00  0.00    -0.255 NA 
HETATM   29  N   UNL     1      -6.743  14.172  70.228  1.00  0.00    -0.402 NA 
HETATM   30  H1  UNL     1      -7.305  13.394  70.575  1.00  0.00     0.000 HD 
HETATM   31  H2  UNL     1      -5.727  14.123  70.296  1.00  0.00     0.000 HD 
ENDBRANCH  19  24
ENDBRANCH  17  19
ENDBRANCH   5  15
TORSDOF 5
ENDMDL
MODEL       21
REMARK 921   NORMALIZED FREE ENERGY PREDICTED BY IDOCK:   -6.35 KCAL/MOL
REMARK 922        TOTAL FREE ENERGY PREDICTED BY IDOCK:   -9.06 KCAL/MOL
REMARK 923 INTER-LIGAND FREE ENERGY PREDICTED BY IDOCK:   -8.05 KCAL/MOL
REMARK 924 INTRA-LIGAND FREE ENERGY PREDICTED BY IDOCK:   -1.01 KCAL/MOL
REMARK 927      BINDING AFFINITY PREDICTED BY RF-SCORE:    0.00 PKD
ROOT
HETATM    1  C   UNL     1     -10.110  14.505  66.635  1.00  0.00    -0.272 C  
HETATM    2  S   UNL     1     -11.221  15.607  67.538  1.00  0.00    -0.185 SA 
HETATM    3  CG2 UNL     1     -10.525  17.099  66.798  1.00  0.00    -0.263 C  
HETATM    4  CB  UNL     1      -9.001  17.174  66.808  1.00  0.00    -0.263 C  
HETATM    5  CA  UNL     1      -9.873  13.115  67.304  1.00  0.00    -0.232 C  
HETATM    6  CA  UNL     1      -8.184  16.081  66.895  1.00  0.00    -0.242 C  
HETATM    7  N   UNL     1      -8.736  14.828  66.972  1.00  0.00    -0.223 N  
HETATM    8  O   UNL     1      -7.313  13.169  67.740  1.00  0.00    -0.112 OA 
HETATM    9  C   UNL     1      -6.674  16.248  66.881  1.00  0.00    -0.130 C  
HETATM   10  C   UNL     1      -8.379  13.585  67.351  1.00  0.00    -0.194 C  
HETATM   11  O   UNL     1      -5.934  15.258  67.411  1.00  0.00    -0.325 OA 
HETATM   12  OXT UNL     1      -6.109  17.221  66.397  1.00  0.00    -0.201 OA 
ENDROOT
BRANCH   4  13
HETATM   13  CG1 UNL     1      -8.517  18.562  66.817  1.00  0.00    -0.290 C  
HETATM   14  CD1 UNL     1      -9.154  19.621  67.335  1.00  0.00    -0.392 C  
ENDBRANCH   4  13
BRANCH   5  15
HETATM   15  N   UNL     1     -10.491  12.918  68.639  1.00  0.00    -0.325 N  
HETATM   16  H   UNL     1     -10.065  13.383  69.441  1.00  0.00     0.000 HD 
HETATM   17  C   UNL     1     -11.602  12.145  68.853  1.00  0.00    -0.324 C  
HETATM   18  O   UNL     1     -12.188  11.536  67.968  1.00  0.00    -0.582 OA 
BRANCH  17  19
HETATM   19  C   UNL     1     -12.060  12.038  70.316  1.00  0.00    -0.312 C  
BRANCH  19  20
HETATM   20  N   UNL     1     -12.174  10.909  70.969  1.00  0.00    -0.358 NA 
HETATM   21  H   UNL     1     -11.157   9.235  71.328  1.00  0.00     0.000 HD 
HETATM   22  O   UNL     1     -11.075  10.055  70.854  1.00  0.00    -0.328 OA 
HETATM   23  H   UNL     1     -13.001  10.671  71.518  1.00  0.00     0.000 HD 
ENDBRANCH  19  20
BRANCH  19  24
HETATM   24  C   UNL     1     -12.434  13.250  71.047  1.00  0.00    -0.336 A  
HETATM   25  S   UNL     1     -13.570  14.913  72.611  1.00  0.00    -0.451 SA 
HETATM   26  C   UNL     1     -13.464  13.328  71.970  1.00  0.00    -0.507 A  
HETATM   27  C   UNL     1     -12.246  15.390  71.632  1.00  0.00    -0.375 A  
HETATM   28  N   UNL     1     -11.740  14.449  70.877  1.00  0.00    -0.268 NA 
HETATM   29  N   UNL     1     -11.787  16.650  71.641  1.00  0.00    -0.559 NA 
HETATM   30  H1  UNL     1     -10.999  16.933  71.058  1.00  0.00     0.000 HD 
HETATM   31  H2  UNL     1     -12.236  17.339  72.244  1.00  0.00     0.000 HD 
ENDBRANCH  19  24
ENDBRANCH  17  19
ENDBRANCH   5  15
TORSDOF 5
ENDMDL
MODEL       22
REMARK 921   NORMALIZED FREE ENERGY PREDICTED BY IDOCK:   -6.32 KCAL/MOL
REMARK 922        TOTAL FREE ENERGY PREDICTED BY IDOCK:   -9.03 KCAL/MOL
REMARK 923 INTER-LIGAND FREE ENERGY PREDICTED BY IDOCK:   -8.16 KCAL/MOL
REMARK 924 INTRA-LIGAND FREE ENERGY PREDICTED BY IDOCK:   -0.87 KCAL/MOL
REMARK 927      BINDING AFFINITY PREDICTED BY RF-SCORE:    0.00 PKD
ROOT
HETATM    1  C   UNL     1      -9.391   9.397  69.623  1.00  0.00    -0.189 C  
HETATM    2  S   UNL     1     -10.755  10.563  69.418  1.00  0.00    -0.255 SA 
HETATM    3  CG2 UNL     1     -11.460  10.197  71.038  1.00  0.00    -0.354 C  
HETATM    4  CB  UNL     1     -11.603   8.712  71.359  1.00  0.00    -0.354 C  
HETATM    5  CA  UNL     1      -8.767   8.870  68.292  1.00  0.00    -0.134 C  
HETATM    6  CA  UNL     1     -10.865   7.728  70.763  1.00  0.00    -0.239 C  
HETATM    7  N   UNL     1      -9.926   8.063  69.822  1.00  0.00    -0.188 N  
HETATM    8  O   UNL     1      -9.222   6.319  68.467  1.00  0.00    -0.125 OA 
HETATM    9  C   UNL     1     -11.063   6.274  71.158  1.00  0.00    -0.298 C  
HETATM   10  C   UNL     1      -9.235   7.474  68.825  1.00  0.00    -0.145 C  
HETATM   11  O   UNL     1     -10.683   5.333  70.274  1.00  0.00    -0.265 OA 
HETATM   12  OXT UNL     1     -11.527   5.926  72.236  1.00  0.00    -0.293 OA 
ENDROOT
BRANCH   4  13
HETATM   13  CG1 UNL     1     -12.697   8.456  72.307  1.00  0.00    -0.376 C  
HETATM   14  CD1 UNL     1     -13.893   9.063  72.324  1.00  0.00    -0.547 C  
ENDBRANCH   4  13
BRANCH   5  15
HETATM   15  N   UNL     1      -9.440   9.300  67.040  1.00  0.00    -0.153 N  
HETATM   16  H   UNL     1     -10.321   8.853  66.788  1.00  0.00     0.000 HD 
HETATM   17  C   UNL     1      -8.941  10.266  66.204  1.00  0.00    -0.154 C  
HETATM   18  O   UNL     1      -7.891  10.861  66.404  1.00  0.00    -0.145 OA 
BRANCH  17  19
HETATM   19  C   UNL     1      -9.769  10.535  64.938  1.00  0.00    -0.300 C  
BRANCH  19  20
HETATM   20  N   UNL     1      -9.665   9.843  63.832  1.00  0.00    -0.472 NA 
HETATM   21  H   UNL     1      -8.591   8.364  63.044  1.00  0.00     0.000 HD 
HETATM   22  O   UNL     1      -8.666   8.866  63.847  1.00  0.00    -0.151 OA 
HETATM   23  H   UNL     1     -10.265  10.005  63.023  1.00  0.00     0.000 HD 
ENDBRANCH  19  20
BRANCH  19  24
HETATM   24  C   UNL     1     -10.720  11.650  64.919  1.00  0.00    -0.296 A  
HETATM   25  S   UNL     1     -12.338  13.498  65.601  1.00  0.00    -0.480 SA 
HETATM   26  C   UNL     1     -11.296  12.213  66.045  1.00  0.00    -0.358 A  
HETATM   27  C   UNL     1     -11.954  13.229  63.951  1.00  0.00    -0.483 A  
HETATM   28  N   UNL     1     -11.106  12.259  63.725  1.00  0.00    -0.402 NA 
HETATM   29  N   UNL     1     -12.509  13.962  62.975  1.00  0.00    -1.009 NA 
HETATM   30  H1  UNL     1     -12.280  13.802  61.994  1.00  0.00     0.000 HD 
HETATM   31  H2  UNL     1     -13.174  14.696  63.220  1.00  0.00     0.000 HD 
ENDBRANCH  19  24
ENDBRANCH  17  19
ENDBRANCH   5  15
TORSDOF 5
ENDMDL
MODEL       23
REMARK 921   NORMALIZED FREE ENERGY PREDICTED BY IDOCK:   -6.31 KCAL/MOL
REMARK 922        TOTAL FREE ENERGY PREDICTED BY IDOCK:   -9.01 KCAL/MOL
REMARK 923 INTER-LIGAND FREE ENERGY PREDICTED BY IDOCK:   -8.19 KCAL/MOL
REMARK 924 INTRA-LIGAND FREE ENERGY PREDICTED BY IDOCK:   -0.81 KCAL/MOL
REMARK 927      BINDING AFFINITY PREDICTED BY RF-SCORE:    0.00 PKD
ROOT
HETATM    1  C   UNL     1      -9.961   9.928  69.987  1.00  0.00    -0.254 C  
HETATM    2  S   UNL     1     -11.568  10.752  70.001  1.00  0.00    -0.360 SA 
HETATM    3  CG2 UNL     1     -12.245   9.656  71.264  1.00  0.00    -0.363 C  
HETATM    4  CB  UNL     1     -12.014   8.167  71.018  1.00  0.00    -0.257 C  
HETATM    5  CA  UNL     1      -9.145  10.095  68.666  1.00  0.00    -0.143 C  
HETATM    6  CA  UNL     1     -11.011   7.671  70.233  1.00  0.00    -0.252 C  
HETATM    7  N   UNL     1     -10.139   8.535  69.622  1.00  0.00    -0.197 N  
HETATM    8  O   UNL     1      -8.927   7.634  67.865  1.00  0.00    -0.129 OA 
HETATM    9  C   UNL     1     -10.844   6.171  70.058  1.00  0.00    -0.341 C  
HETATM   10  C   UNL     1      -9.262   8.534  68.598  1.00  0.00    -0.142 C  
HETATM   11  O   UNL     1     -10.181   5.742  68.968  1.00  0.00    -0.179 OA 
HETATM   12  OXT UNL     1     -11.263   5.348  70.862  1.00  0.00    -0.055 OA 
ENDROOT
BRANCH   4  13
HETATM   13  CG1 UNL     1     -13.056   7.338  71.640  1.00  0.00    -0.417 C  
HETATM   14  CD1 UNL     1     -14.380   7.475  71.482  1.00  0.00    -0.603 C  
ENDBRANCH   4  13
BRANCH   5  15
HETATM   15  N   UNL     1      -9.833  10.806  67.558  1.00  0.00    -0.170 N  
HETATM   16  H   UNL     1     -10.844  10.703  67.475  1.00  0.00     0.000 HD 
HETATM   17  C   UNL     1      -9.183  11.592  66.643  1.00  0.00    -0.186 C  
HETATM   18  O   UNL     1      -7.974  11.778  66.644  1.00  0.00    -0.148 OA 
BRANCH  17  19
HETATM   19  C   UNL     1     -10.072  12.206  65.551  1.00  0.00    -0.248 C  
BRANCH  19  20
HETATM   20  N   UNL     1     -10.641  11.517  64.593  1.00  0.00    -0.294 NA 
HETATM   21  H   UNL     1     -10.631   9.688  63.806  1.00  0.00     0.000 HD 
HETATM   22  O   UNL     1     -10.218  10.189  64.501  1.00  0.00    -0.256 OA 
HETATM   23  H   UNL     1     -11.337  11.918  63.965  1.00  0.00     0.000 HD 
ENDBRANCH  19  20
BRANCH  19  24
HETATM   24  C   UNL     1     -10.292  13.654  65.526  1.00  0.00    -0.309 A  
HETATM   25  S   UNL     1     -10.257  16.144  66.071  1.00  0.00    -0.373 SA 
HETATM   26  C   UNL     1      -9.788  14.544  66.460  1.00  0.00    -0.285 A  
HETATM   27  C   UNL     1     -11.089  15.557  64.691  1.00  0.00    -0.359 A  
HETATM   28  N   UNL     1     -11.029  14.263  64.510  1.00  0.00    -0.346 NA 
HETATM   29  N   UNL     1     -11.762  16.383  63.876  1.00  0.00    -1.527 NA 
HETATM   30  H1  UNL     1     -12.257  16.033  63.056  1.00  0.00     0.000 HD 
HETATM   31  H2  UNL     1     -11.780  17.381  64.082  1.00  0.00     0.000 HD 
ENDBRANCH  19  24
ENDBRANCH  17  19
ENDBRANCH   5  15
TORSDOF 5
ENDMDL
MODEL       24
REMARK 921   NORMALIZED FREE ENERGY PREDICTED BY IDOCK:   -6.29 KCAL/MOL
REMARK 922        TOTAL FREE ENERGY PREDICTED BY IDOCK:   -8.99 KCAL/MOL
REMARK 923 INTER-LIGAND FREE ENERGY PREDICTED BY IDOCK:   -7.89 KCAL/MOL
REMARK 924 INTRA-LIGAND FREE ENERGY PREDICTED BY IDOCK:   -1.09 KCAL/MOL
REMARK 927      BINDING AFFINITY PREDICTED BY RF-SCORE:    0.00 PKD
ROOT
HETATM    1  C   UNL     1     -11.852  13.077  65.965  1.00  0.00    -0.417 C  
HETATM    2  S   UNL     1     -10.523  13.649  64.883  1.00  0.00    -0.403 SA 
HETATM    3  CG2 UNL     1     -10.339  12.046  64.075  1.00  0.00    -0.373 C  
HETATM    4  CB  UNL     1     -10.259  10.851  65.021  1.00  0.00    -0.367 C  
HETATM    5  CA  UNL     1     -12.023  13.890  67.287  1.00  0.00    -0.411 C  
HETATM    6  CA  UNL     1     -10.752  10.854  66.296  1.00  0.00    -0.176 C  
HETATM    7  N   UNL     1     -11.366  11.979  66.781  1.00  0.00    -0.326 N  
HETATM    8  O   UNL     1     -11.573  12.073  69.088  1.00  0.00    -0.264 OA 
HETATM    9  C   UNL     1     -10.644   9.611  67.162  1.00  0.00    -0.228 C  
HETATM   10  C   UNL     1     -11.702  12.517  67.971  1.00  0.00    -0.355 C  
HETATM   11  O   UNL     1     -10.709   9.776  68.497  1.00  0.00    -0.217 OA 
HETATM   12  OXT UNL     1     -10.522   8.481  66.707  1.00  0.00    -0.303 OA 
ENDROOT
BRANCH   4  13
HETATM   13  CG1 UNL     1      -9.501   9.736  64.436  1.00  0.00    -0.233 C  
HETATM   14  CD1 UNL     1      -8.209   9.753  64.082  1.00  0.00    -0.158 C  
ENDBRANCH   4  13
BRANCH   5  15
HETATM   15  N   UNL     1     -11.012  14.947  67.540  1.00  0.00    -0.293 N  
HETATM   16  H   UNL     1     -10.246  15.051  66.874  1.00  0.00     0.000 HD 
HETATM   17  C   UNL     1     -11.051  15.791  68.619  1.00  0.00    -0.327 C  
HETATM   18  O   UNL     1     -11.917  15.751  69.482  1.00  0.00    -0.361 OA 
BRANCH  17  19
HETATM   19  C   UNL     1      -9.887  16.789  68.719  1.00  0.00    -0.264 C  
BRANCH  19  20
HETATM   20  N   UNL     1      -8.800  16.582  69.418  1.00  0.00    -0.060 NA 
HETATM   21  H   UNL     1      -7.542  15.115  69.898  1.00  0.00     0.000 HD 
HETATM   22  O   UNL     1      -8.331  15.266  69.390  1.00  0.00    -0.232 OA 
HETATM   23  H   UNL     1      -8.333  17.321  69.942  1.00  0.00     0.000 HD 
ENDBRANCH  19  20
BRANCH  19  24
HETATM   24  C   UNL     1      -9.979  18.079  68.031  1.00  0.00    -0.343 A  
HETATM   25  S   UNL     1      -9.761  20.542  67.408  1.00  0.00    -0.380 SA 
HETATM   26  C   UNL     1      -9.454  19.267  68.510  1.00  0.00    -0.389 A  
HETATM   27  C   UNL     1     -10.563  19.439  66.368  1.00  0.00    -0.463 A  
HETATM   28  N   UNL     1     -10.605  18.201  66.790  1.00  0.00    -0.333 NA 
HETATM   29  N   UNL     1     -11.117  19.841  65.215  1.00  0.00    -0.217 NA 
HETATM   30  H1  UNL     1     -11.594  19.185  64.597  1.00  0.00     0.000 HD 
HETATM   31  H2  UNL     1     -11.059  20.825  64.951  1.00  0.00     0.000 HD 
ENDBRANCH  19  24
ENDBRANCH  17  19
ENDBRANCH   5  15
TORSDOF 5
ENDMDL
MODEL       25
REMARK 921   NORMALIZED FREE ENERGY PREDICTED BY IDOCK:   -6.28 KCAL/MOL
REMARK 922        TOTAL FREE ENERGY PREDICTED BY IDOCK:   -8.97 KCAL/MOL
REMARK 923 INTER-LIGAND FREE ENERGY PREDICTED BY IDOCK:   -7.98 KCAL/MOL
REMARK 924 INTRA-LIGAND FREE ENERGY PREDICTED BY IDOCK:   -0.99 KCAL/MOL
REMARK 927      BINDING AFFINITY PREDICTED BY RF-SCORE:    0.00 PKD
ROOT
HETATM    1  C   UNL     1      -9.645  12.552  67.362  1.00  0.00    -0.192 C  
HETATM    2  S   UNL     1      -9.128  10.822  67.317  1.00  0.00    -0.143 SA 
HETATM    3  CG2 UNL     1      -8.846  10.837  65.535  1.00  0.00    -0.190 C  
HETATM    4  CB  UNL     1      -9.974  11.446  64.707  1.00  0.00    -0.313 C  
HETATM    5  CA  UNL     1     -10.558  12.937  68.570  1.00  0.00    -0.253 C  
HETATM    6  CA  UNL     1     -10.887  12.335  65.201  1.00  0.00    -0.301 C  
HETATM    7  N   UNL     1     -10.809  12.727  66.513  1.00  0.00    -0.254 N  
HETATM    8  O   UNL     1     -12.730  13.700  67.368  1.00  0.00     0.149 OA 
HETATM    9  C   UNL     1     -11.968  12.906  64.299  1.00  0.00    -0.399 C  
HETATM   10  C   UNL     1     -11.596  13.291  67.451  1.00  0.00    -0.353 C  
HETATM   11  O   UNL     1     -13.078  13.388  64.887  1.00  0.00    -0.723 OA 
HETATM   12  OXT UNL     1     -11.866  12.964  63.080  1.00  0.00    -0.506 OA 
ENDROOT
BRANCH   4  13
HETATM   13  CG1 UNL     1     -10.024  10.889  63.348  1.00  0.00    -0.414 C  
HETATM   14  CD1 UNL     1      -9.046  10.939  62.432  1.00  0.00    -0.336 C  
ENDBRANCH   4  13
BRANCH   5  15
HETATM   15  N   UNL     1     -10.975  11.821  69.455  1.00  0.00    -0.454 N  
HETATM   16  H   UNL     1     -10.535  10.910  69.322  1.00  0.00     0.000 HD 
HETATM   17  C   UNL     1     -11.918  11.947  70.442  1.00  0.00    -0.311 C  
HETATM   18  O   UNL     1     -12.513  12.989  70.684  1.00  0.00    -0.331 OA 
BRANCH  17  19
HETATM   19  C   UNL     1     -12.235  10.662  71.221  1.00  0.00    -0.341 C  
BRANCH  19  20
HETATM   20  N   UNL     1     -13.186  10.561  72.116  1.00  0.00    -0.573 NA 
HETATM   21  H   UNL     1     -14.595   9.291  72.719  1.00  0.00     0.000 HD 
HETATM   22  O   UNL     1     -13.905   9.364  72.070  1.00  0.00    -0.386 OA 
HETATM   23  H   UNL     1     -13.385  11.298  72.792  1.00  0.00     0.000 HD 
ENDBRANCH  19  20
BRANCH  19  24
HETATM   24  C   UNL     1     -11.422   9.463  71.000  1.00  0.00    -0.334 A  
HETATM   25  S   UNL     1      -9.934   7.420  71.333  1.00  0.00    -0.185 SA 
HETATM   26  C   UNL     1     -10.759   8.766  71.996  1.00  0.00    -0.347 A  
HETATM   27  C   UNL     1     -10.512   7.843  69.775  1.00  0.00    -0.233 A  
HETATM   28  N   UNL     1     -11.274   8.906  69.730  1.00  0.00    -0.086 NA 
HETATM   29  N   UNL     1     -10.180   7.130  68.689  1.00  0.00    -0.173 NA 
HETATM   30  H1  UNL     1     -10.524   7.382  67.762  1.00  0.00     0.000 HD 
HETATM   31  H2  UNL     1      -9.571   6.319  68.792  1.00  0.00     0.000 HD 
ENDBRANCH  19  24
ENDBRANCH  17  19
ENDBRANCH   5  15
TORSDOF 5
ENDMDL
MODEL       26
REMARK 921   NORMALIZED FREE ENERGY PREDICTED BY IDOCK:   -6.27 KCAL/MOL
REMARK 922        TOTAL FREE ENERGY PREDICTED BY IDOCK:   -8.97 KCAL/MOL
REMARK 923 INTER-LIGAND FREE ENERGY PREDICTED BY IDOCK:   -7.99 KCAL/MOL
REMARK 924 INTRA-LIGAND FREE ENERGY PREDICTED BY IDOCK:   -0.98 KCAL/MOL
REMARK 927      BINDING AFFINITY PREDICTED BY RF-SCORE:    0.00 PKD
ROOT
HETATM    1  C   UNL     1     -11.537  15.144  68.709  1.00  0.00    -0.349 C  
HETATM    2  S   UNL     1      -9.860  15.413  69.322  1.00  0.00    -0.275 SA 
HETATM    3  CG2 UNL     1      -9.645  16.945  68.393  1.00  0.00    -0.255 C  
HETATM    4  CB  UNL     1     -10.050  16.871  66.924  1.00  0.00    -0.289 C  
HETATM    5  CA  UNL     1     -12.020  13.659  68.736  1.00  0.00    -0.359 C  
HETATM    6  CA  UNL     1     -10.931  15.955  66.421  1.00  0.00    -0.115 C  
HETATM    7  N   UNL     1     -11.507  15.038  67.261  1.00  0.00    -0.333 N  
HETATM    8  O   UNL     1     -12.449  13.197  66.216  1.00  0.00    -0.386 OA 
HETATM    9  C   UNL     1     -11.291  15.967  64.945  1.00  0.00    -0.256 C  
HETATM   10  C   UNL     1     -12.139  13.849  67.185  1.00  0.00    -0.387 C  
HETATM   11  O   UNL     1     -11.769  14.827  64.412  1.00  0.00    -0.391 OA 
HETATM   12  OXT UNL     1     -11.186  16.958  64.234  1.00  0.00    -1.204 OA 
ENDROOT
BRANCH   4  13
HETATM   13  CG1 UNL     1      -9.306  17.833  66.098  1.00  0.00    -0.153 C  
HETATM   14  CD1 UNL     1      -8.031  18.209  66.270  1.00  0.00    -0.271 C  
ENDBRANCH   4  13
BRANCH   5  15
HETATM   15  N   UNL     1     -11.011  12.652  69.150  1.00  0.00    -0.414 N  
HETATM   16  H   UNL     1     -10.095  12.983  69.451  1.00  0.00     0.000 HD 
HETATM   17  C   UNL     1     -11.245  11.301  69.150  1.00  0.00    -0.273 C  
HETATM   18  O   UNL     1     -12.302  10.794  68.801  1.00  0.00    -0.435 OA 
BRANCH  17  19
HETATM   19  C   UNL     1     -10.056  10.425  69.575  1.00  0.00    -0.219 C  
BRANCH  19  20
HETATM   20  N   UNL     1      -9.938   9.871  70.756  1.00  0.00    -0.333 NA 
HETATM   21  H   UNL     1     -11.063   9.223  72.265  1.00  0.00     0.000 HD 
HETATM   22  O   UNL     1     -11.148   9.626  71.408  1.00  0.00    -0.365 OA 
HETATM   23  H   UNL     1      -9.034   9.638  71.166  1.00  0.00     0.000 HD 
ENDBRANCH  19  20
BRANCH  19  24
HETATM   24  C   UNL     1      -8.950  10.204  68.641  1.00  0.00    -0.136 A  
HETATM   25  S   UNL     1      -6.894   9.266  67.460  1.00  0.00    -0.077 SA 
HETATM   26  C   UNL     1      -8.011   9.192  68.756  1.00  0.00    -0.100 A  
HETATM   27  C   UNL     1      -7.728  10.626  66.829  1.00  0.00    -0.127 A  
HETATM   28  N   UNL     1      -8.771  11.011  67.516  1.00  0.00    -0.127 NA 
HETATM   29  N   UNL     1      -7.310  11.247  65.717  1.00  0.00    -0.357 NA 
HETATM   30  H1  UNL     1      -7.806  12.056  65.342  1.00  0.00     0.000 HD 
HETATM   31  H2  UNL     1      -6.480  10.904  65.235  1.00  0.00     0.000 HD 
ENDBRANCH  19  24
ENDBRANCH  17  19
ENDBRANCH   5  15
TORSDOF 5
ENDMDL
MODEL       27
REMARK 921   NORMALIZED FREE ENERGY PREDICTED BY IDOCK:   -6.26 KCAL/MOL
REMARK 922        TOTAL FREE ENERGY PREDICTED BY IDOCK:   -8.95 KCAL/MOL
REMARK 923 INTER-LIGAND FREE ENERGY PREDICTED BY IDOCK:   -8.10 KCAL/MOL
REMARK 924 INTRA-LIGAND FREE ENERGY PREDICTED BY IDOCK:   -0.85 KCAL/MOL
REMARK 927      BINDING AFFINITY PREDICTED BY RF-SCORE:    0.00 PKD
ROOT
HETATM    1  C   UNL     1     -11.351  14.453  67.839  1.00  0.00    -0.301 C  
HETATM    2  S   UNL     1      -9.716  14.145  68.542  1.00  0.00    -0.197 SA 
HETATM    3  CG2 UNL     1      -9.360  15.899  68.768  1.00  0.00    -0.220 C  
HETATM    4  CB  UNL     1      -9.652  16.779  67.556  1.00  0.00    -0.240 C  
HETATM    5  CA  UNL     1     -11.902  13.312  66.926  1.00  0.00    -0.392 C  
HETATM    6  CA  UNL     1     -10.533  16.444  66.565  1.00  0.00    -0.282 C  
HETATM    7  N   UNL     1     -11.214  15.257  66.638  1.00  0.00    -0.282 N  
HETATM    8  O   UNL     1     -12.155  14.534  64.648  1.00  0.00    -0.438 OA 
HETATM    9  C   UNL     1     -10.775  17.390  65.402  1.00  0.00    -0.035 C  
HETATM   10  C   UNL     1     -11.891  14.424  65.822  1.00  0.00    -0.364 C  
HETATM   11  O   UNL     1     -11.262  16.864  64.263  1.00  0.00    -1.204 OA 
HETATM   12  OXT UNL     1     -10.569  18.596  65.460  1.00  0.00    -0.608 OA 
ENDROOT
BRANCH   4  13
HETATM   13  CG1 UNL     1      -8.803  17.978  67.527  1.00  0.00    -0.252 C  
HETATM   14  CD1 UNL     1      -8.513  18.772  68.568  1.00  0.00    -0.379 C  
ENDBRANCH   4  13
BRANCH   5  15
HETATM   15  N   UNL     1     -10.977  12.182  66.660  1.00  0.00    -0.268 N  
HETATM   16  H   UNL     1     -10.209  12.332  66.006  1.00  0.00     0.000 HD 
HETATM   17  C   UNL     1     -11.098  10.949  67.247  1.00  0.00    -0.283 C  
HETATM   18  O   UNL     1     -11.983  10.657  68.039  1.00  0.00    -0.457 OA 
BRANCH  17  19
HETATM   19  C   UNL     1     -10.061   9.905  66.807  1.00  0.00    -0.230 C  
BRANCH  19  20
HETATM   20  N   UNL     1      -9.974   9.422  65.593  1.00  0.00    -0.410 NA 
HETATM   21  H   UNL     1     -10.180   9.994  63.697  1.00  0.00     0.000 HD 
HETATM   22  O   UNL     1     -10.243  10.344  64.578  1.00  0.00    -0.342 OA 
HETATM   23  H   UNL     1      -9.731   8.450  65.403  1.00  0.00     0.000 HD 
ENDBRANCH  19  20
BRANCH  19  24
HETATM   24  C   UNL     1      -9.116   9.365  67.788  1.00  0.00    -0.125 A  
HETATM   25  S   UNL     1      -7.326   7.973  68.953  1.00  0.00    -0.082 SA 
HETATM   26  C   UNL     1      -8.286   8.279  67.568  1.00  0.00    -0.122 A  
HETATM   27  C   UNL     1      -8.067   9.299  69.750  1.00  0.00    -0.120 A  
HETATM   28  N   UNL     1      -8.965   9.942  69.049  1.00  0.00    -0.150 NA 
HETATM   29  N   UNL     1      -7.746   9.625  71.011  1.00  0.00    -0.316 NA 
HETATM   30  H1  UNL     1      -8.187  10.414  71.484  1.00  0.00     0.000 HD 
HETATM   31  H2  UNL     1      -7.046   9.073  71.506  1.00  0.00     0.000 HD 
ENDBRANCH  19  24
ENDBRANCH  17  19
ENDBRANCH   5  15
TORSDOF 5
ENDMDL
MODEL       28
REMARK 921   NORMALIZED FREE ENERGY PREDICTED BY IDOCK:   -6.19 KCAL/MOL
REMARK 922        TOTAL FREE ENERGY PREDICTED BY IDOCK:   -8.86 KCAL/MOL
REMARK 923 INTER-LIGAND FREE ENERGY PREDICTED BY IDOCK:   -8.10 KCAL/MOL
REMARK 924 INTRA-LIGAND FREE ENERGY PREDICTED BY IDOCK:   -0.77 KCAL/MOL
REMARK 927      BINDING AFFINITY PREDICTED BY RF-SCORE:    0.00 PKD
ROOT
HETATM    1  C   UNL     1      -8.530  10.646  66.480  1.00  0.00    -0.144 C  
HETATM    2  S   UNL     1      -9.741   9.423  65.931  1.00  0.00    -0.273 SA 
HETATM    3  CG2 UNL     1     -10.105  10.305  64.400  1.00  0.00    -0.171 C  
HETATM    4  CB  UNL     1     -10.366  11.800  64.562  1.00  0.00    -0.340 C  
HETATM    5  CA  UNL     1      -8.296  10.696  68.023  1.00  0.00    -0.118 C  
HETATM    6  CA  UNL     1      -9.916  12.542  65.618  1.00  0.00    -0.245 C  
HETATM    7  N   UNL     1      -9.177  11.939  66.603  1.00  0.00    -0.200 N  
HETATM    8  O   UNL     1      -9.029  13.123  68.590  1.00  0.00    -0.091 OA 
HETATM    9  C   UNL     1     -10.209  14.031  65.689  1.00  0.00    -0.334 C  
HETATM   10  C   UNL     1      -8.811  12.169  67.880  1.00  0.00    -0.177 C  
HETATM   11  O   UNL     1     -10.163  14.616  66.900  1.00  0.00    -0.257 OA 
HETATM   12  OXT UNL     1     -10.461  14.716  64.706  1.00  0.00    -0.418 OA 
ENDROOT
BRANCH   4  13
HETATM   13  CG1 UNL     1     -11.243  12.324  63.506  1.00  0.00    -0.535 C  
HETATM   14  CD1 UNL     1     -12.565  12.128  63.401  1.00  0.00    -0.584 C  
ENDBRANCH   4  13
BRANCH   5  15
HETATM   15  N   UNL     1      -9.170   9.823  68.846  1.00  0.00    -0.149 N  
HETATM   16  H   UNL     1     -10.012   9.442  68.416  1.00  0.00     0.000 HD 
HETATM   17  C   UNL     1      -8.906   9.501  70.152  1.00  0.00    -0.235 C  
HETATM   18  O   UNL     1      -7.931   9.908  70.769  1.00  0.00    -0.243 OA 
BRANCH  17  19
HETATM   19  C   UNL     1      -9.958   8.617  70.839  1.00  0.00    -0.206 C  
BRANCH  19  20
HETATM   20  N   UNL     1      -9.821   7.329  71.032  1.00  0.00    -0.183 NA 
HETATM   21  H   UNL     1      -9.109   5.709  70.120  1.00  0.00     0.000 HD 
HETATM   22  O   UNL     1      -9.209   6.643  69.980  1.00  0.00    -0.156 OA 
HETATM   23  H   UNL     1     -10.137   6.863  71.883  1.00  0.00     0.000 HD 
ENDBRANCH  19  20
BRANCH  19  24
HETATM   24  C   UNL     1     -11.220   9.209  71.287  1.00  0.00    -0.337 A  
HETATM   25  S   UNL     1     -13.209  10.769  71.624  1.00  0.00    -0.326 SA 
HETATM   26  C   UNL     1     -11.696  10.447  70.888  1.00  0.00    -0.360 A  
HETATM   27  C   UNL     1     -13.138   9.249  72.416  1.00  0.00    -0.406 A  
HETATM   28  N   UNL     1     -12.074   8.533  72.160  1.00  0.00    -0.360 NA 
HETATM   29  N   UNL     1     -14.109   8.850  73.250  1.00  0.00    -1.248 NA 
HETATM   30  H1  UNL     1     -14.067   7.946  73.722  1.00  0.00     0.000 HD 
HETATM   31  H2  UNL     1     -14.907   9.463  73.417  1.00  0.00     0.000 HD 
ENDBRANCH  19  24
ENDBRANCH  17  19
ENDBRANCH   5  15
TORSDOF 5
ENDMDL
MODEL       29
REMARK 921   NORMALIZED FREE ENERGY PREDICTED BY IDOCK:   -6.19 KCAL/MOL
REMARK 922        TOTAL FREE ENERGY PREDICTED BY IDOCK:   -8.85 KCAL/MOL
REMARK 923 INTER-LIGAND FREE ENERGY PREDICTED BY IDOCK:   -8.11 KCAL/MOL
REMARK 924 INTRA-LIGAND FREE ENERGY PREDICTED BY IDOCK:   -0.75 KCAL/MOL
REMARK 927      BINDING AFFINITY PREDICTED BY RF-SCORE:    0.00 PKD
ROOT
HETATM    1  C   UNL     1     -11.568  14.922  67.025  1.00  0.00    -0.304 C  
HETATM    2  S   UNL     1     -10.254  14.017  66.178  1.00  0.00    -0.310 SA 
HETATM    3  CG2 UNL     1     -10.991  12.405  66.519  1.00  0.00    -0.272 C  
HETATM    4  CB  UNL     1     -11.427  12.188  67.965  1.00  0.00    -0.380 C  
HETATM    5  CA  UNL     1     -11.166  16.339  67.543  1.00  0.00    -0.054 C  
HETATM    6  CA  UNL     1     -11.715  13.202  68.836  1.00  0.00    -0.326 C  
HETATM    7  N   UNL     1     -11.621  14.503  68.413  1.00  0.00    -0.309 N  
HETATM    8  O   UNL     1     -11.510  16.083  70.104  1.00  0.00    -0.330 OA 
HETATM    9  C   UNL     1     -12.160  12.892  70.254  1.00  0.00    -0.302 C  
HETATM   10  C   UNL     1     -11.513  15.736  68.946  1.00  0.00    -0.378 C  
HETATM   11  O   UNL     1     -11.993  13.852  71.182  1.00  0.00    -0.297 OA 
HETATM   12  OXT UNL     1     -12.674  11.830  70.583  1.00  0.00    -0.217 OA 
ENDROOT
BRANCH   4  13
HETATM   13  CG1 UNL     1     -11.403  10.767  68.341  1.00  0.00    -0.367 C  
HETATM   14  CD1 UNL     1     -10.656   9.808  67.775  1.00  0.00    -0.320 C  
ENDBRANCH   4  13
BRANCH   5  15
HETATM   15  N   UNL     1      -9.739  16.714  67.377  1.00  0.00    -0.247 N  
HETATM   16  H   UNL     1      -9.039  16.192  67.904  1.00  0.00     0.000 HD 
HETATM   17  C   UNL     1      -9.311  17.725  66.556  1.00  0.00    -0.279 C  
HETATM   18  O   UNL     1     -10.062  18.420  65.886  1.00  0.00    -0.540 OA 
BRANCH  17  19
HETATM   19  C   UNL     1      -7.796  17.981  66.558  1.00  0.00    -0.260 C  
BRANCH  19  20
HETATM   20  N   UNL     1      -7.054  18.004  65.480  1.00  0.00    -0.502 NA 
HETATM   21  H   UNL     1      -6.310  19.295  64.159  1.00  0.00     0.000 HD 
HETATM   22  O   UNL     1      -6.849  19.277  64.941  1.00  0.00    -0.430 OA 
HETATM   23  H   UNL     1      -6.657  17.161  65.066  1.00  0.00     0.000 HD 
ENDBRANCH  19  20
BRANCH  19  24
HETATM   24  C   UNL     1      -7.098  18.179  67.831  1.00  0.00    -0.218 A  
HETATM   25  S   UNL     1      -5.661  17.851  69.911  1.00  0.00    -0.247 SA 
HETATM   26  C   UNL     1      -6.309  17.227  68.453  1.00  0.00    -0.162 A  
HETATM   27  C   UNL     1      -6.461  19.340  69.620  1.00  0.00    -0.272 A  
HETATM   28  N   UNL     1      -7.162  19.392  68.517  1.00  0.00    -0.307 NA 
HETATM   29  N   UNL     1      -6.375  20.360  70.485  1.00  0.00    -0.476 NA 
HETATM   30  H1  UNL     1      -6.851  21.246  70.312  1.00  0.00     0.000 HD 
HETATM   31  H2  UNL     1      -5.822  20.249  71.334  1.00  0.00     0.000 HD 
ENDBRANCH  19  24
ENDBRANCH  17  19
ENDBRANCH   5  15
TORSDOF 5
ENDMDL
MODEL       30
REMARK 921   NORMALIZED FREE ENERGY PREDICTED BY IDOCK:   -6.10 KCAL/MOL
REMARK 922        TOTAL FREE ENERGY PREDICTED BY IDOCK:   -8.75 KCAL/MOL
REMARK 923 INTER-LIGAND FREE ENERGY PREDICTED BY IDOCK:   -8.04 KCAL/MOL
REMARK 924 INTRA-LIGAND FREE ENERGY PREDICTED BY IDOCK:   -0.70 KCAL/MOL
REMARK 927      BINDING AFFINITY PREDICTED BY RF-SCORE:    0.00 PKD
ROOT
HETATM    1  C   UNL     1     -11.391  16.519  67.051  1.00  0.00     0.400 C  
HETATM    2  S   UNL     1     -10.366  16.572  65.564  1.00  0.00    -0.211 SA 
HETATM    3  CG2 UNL     1     -11.193  15.158  64.808  1.00  0.00    -0.388 C  
HETATM    4  CB  UNL     1     -11.368  13.948  65.721  1.00  0.00    -0.308 C  
HETATM    5  CA  UNL     1     -10.747  17.165  68.319  1.00  0.00    -0.363 C  
HETATM    6  CA  UNL     1     -11.375  14.018  67.086  1.00  0.00    -0.331 C  
HETATM    7  N   UNL     1     -11.224  15.233  67.702  1.00  0.00    -0.321 N  
HETATM    8  O   UNL     1     -10.624  15.138  69.939  1.00  0.00    -0.255 OA 
HETATM    9  C   UNL     1     -11.572  12.762  67.917  1.00  0.00    -0.351 C  
HETATM   10  C   UNL     1     -10.884  15.721  68.912  1.00  0.00    -0.260 C  
HETATM   11  O   UNL     1     -11.130  12.781  69.188  1.00  0.00    -0.242 OA 
HETATM   12  OXT UNL     1     -12.126  11.755  67.495  1.00  0.00    -0.599 OA 
ENDROOT
BRANCH   4  13
HETATM   13  CG1 UNL     1     -11.426  12.690  64.964  1.00  0.00    -0.366 C  
HETATM   14  CD1 UNL     1     -12.072  12.487  63.807  1.00  0.00    -0.615 C  
ENDBRANCH   4  13
BRANCH   5  15
HETATM   15  N   UNL     1      -9.346  17.633  68.174  1.00  0.00    -0.271 N  
HETATM   16  H   UNL     1      -8.596  16.953  68.296  1.00  0.00     0.000 HD 
HETATM   17  C   UNL     1      -9.006  18.929  67.886  1.00  0.00    -0.297 C  
HETATM   18  O   UNL     1      -9.822  19.827  67.727  1.00  0.00    -0.354 OA 
BRANCH  17  19
HETATM   19  C   UNL     1      -7.498  19.217  67.819  1.00  0.00    -0.254 C  
BRANCH  19  20
HETATM   20  N   UNL     1      -6.852  19.495  66.715  1.00  0.00    -0.196 NA 
HETATM   21  H   UNL     1      -6.866  19.047  64.775  1.00  0.00     0.000 HD 
HETATM   22  O   UNL     1      -7.335  18.845  65.577  1.00  0.00    -0.494 OA 
HETATM   23  H   UNL     1      -6.058  20.135  66.688  1.00  0.00     0.000 HD 
ENDBRANCH  19  20
BRANCH  19  24
HETATM   24  C   UNL     1      -6.694  19.149  69.042  1.00  0.00    -0.307 A  
HETATM   25  S   UNL     1      -5.184  18.358  70.937  1.00  0.00    -0.251 SA 
HETATM   26  C   UNL     1      -6.013  18.025  69.476  1.00  0.00    -0.246 A  
HETATM   27  C   UNL     1      -5.775  19.968  70.896  1.00  0.00    -0.310 A  
HETATM   28  N   UNL     1      -6.533  20.260  69.871  1.00  0.00    -0.288 NA 
HETATM   29  N   UNL     1      -5.481  20.845  71.867  1.00  0.00    -0.566 NA 
HETATM   30  H1  UNL     1      -5.833  21.802  71.842  1.00  0.00     0.000 HD 
HETATM   31  H2  UNL     1      -4.894  20.549  72.646  1.00  0.00     0.000 HD 
ENDBRANCH  19  24
ENDBRANCH  17  19
ENDBRANCH   5  15
TORSDOF 5
ENDMDL
MODEL       31
REMARK 921   NORMALIZED FREE ENERGY PREDICTED BY IDOCK:   -6.08 KCAL/MOL
REMARK 922        TOTAL FREE ENERGY PREDICTED BY IDOCK:   -8.72 KCAL/MOL
REMARK 923 INTER-LIGAND FREE ENERGY PREDICTED BY IDOCK:   -8.29 KCAL/MOL
REMARK 924 INTRA-LIGAND FREE ENERGY PREDICTED BY IDOCK:   -0.43 KCAL/MOL
REMARK 927      BINDING AFFINITY PREDICTED BY RF-SCORE:    0.00 PKD
ROOT
HETATM    1  C   UNL     1     -11.550  13.894  67.121  1.00  0.00    -0.364 C  
HETATM    2  S   UNL     1      -9.937  13.505  67.834  1.00  0.00    -0.252 SA 
HETATM    3  CG2 UNL     1      -9.625  15.209  68.341  1.00  0.00    -0.212 C  
HETATM    4  CB  UNL     1      -9.889  16.260  67.267  1.00  0.00    -0.243 C  
HETATM    5  CA  UNL     1     -12.043  12.900  66.022  1.00  0.00    -0.422 C  
HETATM    6  CA  UNL     1     -10.724  16.069  66.202  1.00  0.00    -0.244 C  
HETATM    7  N   UNL     1     -11.383  14.875  66.065  1.00  0.00    -0.333 N  
HETATM    8  O   UNL     1     -12.234  14.454  63.950  1.00  0.00    -0.595 OA 
HETATM    9  C   UNL     1     -10.941  17.179  65.188  1.00  0.00     0.048 C  
HETATM   10  C   UNL     1     -12.012  14.168  65.104  1.00  0.00    -0.388 C  
HETATM   11  O   UNL     1     -11.374  16.828  63.963  1.00  0.00    -1.153 OA 
HETATM   12  OXT UNL     1     -10.762  18.364  65.439  1.00  0.00    -0.594 OA 
ENDROOT
BRANCH   4  13
HETATM   13  CG1 UNL     1      -9.063  17.461  67.457  1.00  0.00    -0.232 C  
HETATM   14  CD1 UNL     1      -9.200  18.374  68.429  1.00  0.00    -0.341 C  
ENDBRANCH   4  13
BRANCH   5  15
HETATM   15  N   UNL     1     -11.085  11.837  65.625  1.00  0.00    -0.304 N  
HETATM   16  H   UNL     1     -10.451  11.470  66.335  1.00  0.00     0.000 HD 
HETATM   17  C   UNL     1     -11.007  11.322  64.357  1.00  0.00    -0.261 C  
HETATM   18  O   UNL     1     -11.712  11.693  63.429  1.00  0.00    -0.402 OA 
BRANCH  17  19
HETATM   19  C   UNL     1      -9.920  10.258  64.143  1.00  0.00    -0.176 C  
BRANCH  19  20
HETATM   20  N   UNL     1      -9.426   9.937  62.973  1.00  0.00    -0.515 NA 
HETATM   21  H   UNL     1      -8.195  10.650  61.581  1.00  0.00     0.000 HD 
HETATM   22  O   UNL     1      -8.553  10.883  62.430  1.00  0.00    -0.252 OA 
HETATM   23  H   UNL     1      -9.661   9.067  62.496  1.00  0.00     0.000 HD 
ENDBRANCH  19  20
BRANCH  19  24
HETATM   24  C   UNL     1      -9.405   9.509  65.292  1.00  0.00    -0.253 A  
HETATM   25  S   UNL     1      -7.877   8.426  67.022  1.00  0.00    -0.096 SA 
HETATM   26  C   UNL     1      -8.063   9.356  65.596  1.00  0.00    -0.112 A  
HETATM   27  C   UNL     1      -9.582   8.291  67.146  1.00  0.00    -0.180 A  
HETATM   28  N   UNL     1     -10.262   8.894  66.206  1.00  0.00    -0.234 NA 
HETATM   29  N   UNL     1     -10.158   7.595  68.138  1.00  0.00    -0.179 NA 
HETATM   30  H1  UNL     1     -11.172   7.515  68.211  1.00  0.00     0.000 HD 
HETATM   31  H2  UNL     1      -9.569   7.136  68.832  1.00  0.00     0.000 HD 
ENDBRANCH  19  24
ENDBRANCH  17  19
ENDBRANCH   5  15
TORSDOF 5
ENDMDL
MODEL       32
REMARK 921   NORMALIZED FREE ENERGY PREDICTED BY IDOCK:   -6.06 KCAL/MOL
REMARK 922        TOTAL FREE ENERGY PREDICTED BY IDOCK:   -8.70 KCAL/MOL
REMARK 923 INTER-LIGAND FREE ENERGY PREDICTED BY IDOCK:   -7.71 KCAL/MOL
REMARK 924 INTRA-LIGAND FREE ENERGY PREDICTED BY IDOCK:   -0.99 KCAL/MOL
REMARK 927      BINDING AFFINITY PREDICTED BY RF-SCORE:    0.00 PKD
ROOT
HETATM    1  C   UNL     1     -12.109  13.256  67.178  1.00  0.00    -0.298 C  
HETATM    2  S   UNL     1     -11.535  12.319  68.611  1.00  0.00    -0.332 SA 
HETATM    3  CG2 UNL     1     -11.944  13.635  69.776  1.00  0.00    -0.341 C  
HETATM    4  CB  UNL     1     -11.460  15.026  69.374  1.00  0.00    -0.320 C  
HETATM    5  CA  UNL     1     -11.474  12.833  65.815  1.00  0.00    -0.348 C  
HETATM    6  CA  UNL     1     -11.185  15.395  68.088  1.00  0.00    -0.325 C  
HETATM    7  N   UNL     1     -11.348  14.488  67.073  1.00  0.00    -0.337 N  
HETATM    8  O   UNL     1     -10.268  15.017  65.092  1.00  0.00    -0.379 OA 
HETATM    9  C   UNL     1     -10.724  16.809  67.777  1.00  0.00    -0.321 C  
HETATM   10  C   UNL     1     -10.944  14.307  65.800  1.00  0.00    -0.305 C  
HETATM   11  O   UNL     1     -10.045  17.005  66.632  1.00  0.00    -0.284 OA 
HETATM   12  OXT UNL     1     -10.958  17.768  68.502  1.00  0.00    -0.120 OA 
ENDROOT
BRANCH   4  13
HETATM   13  CG1 UNL     1     -11.229  15.888  70.543  1.00  0.00    -0.395 C  
HETATM   14  CD1 UNL     1     -12.000  15.967  71.636  1.00  0.00    -0.569 C  
ENDBRANCH   4  13
BRANCH   5  15
HETATM   15  N   UNL     1     -10.407  11.803  65.883  1.00  0.00    -0.232 N  
HETATM   16  H   UNL     1     -10.156  11.429  66.798  1.00  0.00     0.000 HD 
HETATM   17  C   UNL     1      -9.740  11.328  64.784  1.00  0.00    -0.256 C  
HETATM   18  O   UNL     1      -9.953  11.711  63.642  1.00  0.00    -0.315 OA 
BRANCH  17  19
HETATM   19  C   UNL     1      -8.642  10.294  65.074  1.00  0.00    -0.180 C  
BRANCH  19  20
HETATM   20  N   UNL     1      -7.373  10.475  64.806  1.00  0.00    -0.340 NA 
HETATM   21  H   UNL     1      -5.707  11.154  65.659  1.00  0.00     0.000 HD 
HETATM   22  O   UNL     1      -6.628  11.022  65.854  1.00  0.00    -0.090 OA 
HETATM   23  H   UNL     1      -6.961  10.237  63.904  1.00  0.00     0.000 HD 
ENDBRANCH  19  20
BRANCH  19  24
HETATM   24  C   UNL     1      -9.003   8.998  65.653  1.00  0.00    -0.202 A  
HETATM   25  S   UNL     1      -9.025   6.540  66.329  1.00  0.00    -0.144 SA 
HETATM   26  C   UNL     1      -8.282   7.829  65.481  1.00  0.00    -0.137 A  
HETATM   27  C   UNL     1     -10.249   7.613  66.871  1.00  0.00    -0.294 A  
HETATM   28  N   UNL     1     -10.128   8.850  66.467  1.00  0.00    -0.292 NA 
HETATM   29  N   UNL     1     -11.260   7.187  67.642  1.00  0.00    -0.548 NA 
HETATM   30  H1  UNL     1     -11.988   7.825  67.964  1.00  0.00     0.000 HD 
HETATM   31  H2  UNL     1     -11.303   6.204  67.912  1.00  0.00     0.000 HD 
ENDBRANCH  19  24
ENDBRANCH  17  19
ENDBRANCH   5  15
TORSDOF 5
ENDMDL
MODEL       33
REMARK 921   NORMALIZED FREE ENERGY PREDICTED BY IDOCK:   -6.06 KCAL/MOL
REMARK 922        TOTAL FREE ENERGY PREDICTED BY IDOCK:   -8.69 KCAL/MOL
REMARK 923 INTER-LIGAND FREE ENERGY PREDICTED BY IDOCK:   -7.77 KCAL/MOL
REMARK 924 INTRA-LIGAND FREE ENERGY PREDICTED BY IDOCK:   -0.92 KCAL/MOL
REMARK 927      BINDING AFFINITY PREDICTED BY RF-SCORE:    0.00 PKD
ROOT
HETATM    1  C   UNL     1     -11.377  14.467  68.139  1.00  0.00    -0.294 C  
HETATM    2  S   UNL     1      -9.746  14.057  68.798  1.00  0.00    -0.054 SA 
HETATM    3  CG2 UNL     1      -9.224  15.782  68.885  1.00  0.00    -0.227 C  
HETATM    4  CB  UNL     1      -9.491  16.602  67.626  1.00  0.00    -0.226 C  
HETATM    5  CA  UNL     1     -12.068  13.323  67.331  1.00  0.00    -0.278 C  
HETATM    6  CA  UNL     1     -10.442  16.284  66.697  1.00  0.00    -0.290 C  
HETATM    7  N   UNL     1     -11.222  15.172  66.880  1.00  0.00    -0.321 N  
HETATM    8  O   UNL     1     -12.313  14.408  64.984  1.00  0.00    -0.416 OA 
HETATM    9  C   UNL     1     -10.651  17.168  65.480  1.00  0.00    -0.150 C  
HETATM   10  C   UNL     1     -12.007  14.353  66.152  1.00  0.00    -0.369 C  
HETATM   11  O   UNL     1     -11.234  16.614  64.401  1.00  0.00    -1.033 OA 
HETATM   12  OXT UNL     1     -10.335  18.351  65.444  1.00  0.00    -0.493 OA 
ENDROOT
BRANCH   4  13
HETATM   13  CG1 UNL     1      -8.540  17.713  67.479  1.00  0.00    -0.222 C  
HETATM   14  CD1 UNL     1      -8.603  18.900  68.099  1.00  0.00    -0.349 C  
ENDBRANCH   4  13
BRANCH   5  15
HETATM   15  N   UNL     1     -11.260  12.097  67.111  1.00  0.00    -0.293 N  
HETATM   16  H   UNL     1     -10.522  12.127  66.408  1.00  0.00     0.000 HD 
HETATM   17  C   UNL     1     -11.452  10.928  67.801  1.00  0.00    -0.243 C  
HETATM   18  O   UNL     1     -12.312  10.779  68.658  1.00  0.00    -0.430 OA 
BRANCH  17  19
HETATM   19  C   UNL     1     -10.537   9.764  67.394  1.00  0.00    -0.267 C  
BRANCH  19  20
HETATM   20  N   UNL     1     -10.778   8.508  67.675  1.00  0.00    -0.471 NA 
HETATM   21  H   UNL     1      -9.914   6.936  68.540  1.00  0.00     0.000 HD 
HETATM   22  O   UNL     1      -9.739   7.848  68.337  1.00  0.00    -0.154 OA 
HETATM   23  H   UNL     1     -11.654   8.047  67.429  1.00  0.00     0.000 HD 
ENDBRANCH  19  20
BRANCH  19  24
HETATM   24  C   UNL     1      -9.289  10.041  66.678  1.00  0.00    -0.166 A  
HETATM   25  S   UNL     1      -7.394  10.040  64.973  1.00  0.00    -0.141 SA 
HETATM   26  C   UNL     1      -8.909   9.434  65.493  1.00  0.00    -0.184 A  
HETATM   27  C   UNL     1      -7.342  11.067  66.346  1.00  0.00    -0.128 A  
HETATM   28  N   UNL     1      -8.374  10.986  67.145  1.00  0.00    -0.129 NA 
HETATM   29  N   UNL     1      -6.298  11.877  66.574  1.00  0.00    -0.440 NA 
HETATM   30  H1  UNL     1      -6.267  12.487  67.390  1.00  0.00     0.000 HD 
HETATM   31  H2  UNL     1      -5.518  11.882  65.917  1.00  0.00     0.000 HD 
ENDBRANCH  19  24
ENDBRANCH  17  19
ENDBRANCH   5  15
TORSDOF 5
ENDMDL
MODEL       34
REMARK 921   NORMALIZED FREE ENERGY PREDICTED BY IDOCK:   -6.06 KCAL/MOL
REMARK 922        TOTAL FREE ENERGY PREDICTED BY IDOCK:   -8.69 KCAL/MOL
REMARK 923 INTER-LIGAND FREE ENERGY PREDICTED BY IDOCK:   -7.98 KCAL/MOL
REMARK 924 INTRA-LIGAND FREE ENERGY PREDICTED BY IDOCK:   -0.71 KCAL/MOL
REMARK 927      BINDING AFFINITY PREDICTED BY RF-SCORE:    0.00 PKD
ROOT
HETATM    1  C   UNL     1      -9.803   9.704  68.942  1.00  0.00    -0.174 C  
HETATM    2  S   UNL     1      -8.141  10.201  69.444  1.00  0.00    -0.168 SA 
HETATM    3  CG2 UNL     1      -7.964   8.837  70.612  1.00  0.00    -0.122 C  
HETATM    4  CB  UNL     1      -9.149   8.634  71.551  1.00  0.00    -0.308 C  
HETATM    5  CA  UNL     1     -10.687  10.851  68.357  1.00  0.00    -0.203 C  
HETATM    6  CA  UNL     1     -10.419   9.063  71.280  1.00  0.00    -0.311 C  
HETATM    7  N   UNL     1     -10.676   9.713  70.101  1.00  0.00    -0.253 N  
HETATM    8  O   UNL     1     -12.655  10.918  70.050  1.00  0.00    -0.295 OA 
HETATM    9  C   UNL     1     -11.544   8.801  72.267  1.00  0.00    -0.321 C  
HETATM   10  C   UNL     1     -11.617  10.522  69.574  1.00  0.00    -0.260 C  
HETATM   11  O   UNL     1     -12.626   9.599  72.202  1.00  0.00    -0.362 OA 
HETATM   12  OXT UNL     1     -11.519   7.898  73.093  1.00  0.00    -0.323 OA 
ENDROOT
BRANCH   4  13
HETATM   13  CG1 UNL     1      -8.746   8.015  72.822  1.00  0.00    -0.262 C  
HETATM   14  CD1 UNL     1      -7.716   8.386  73.594  1.00  0.00    -0.151 C  
ENDBRANCH   4  13
BRANCH   5  15
HETATM   15  N   UNL     1     -10.097  12.213  68.392  1.00  0.00    -0.210 N  
HETATM   16  H   UNL     1      -9.111  12.305  68.635  1.00  0.00     0.000 HD 
HETATM   17  C   UNL     1     -10.805  13.354  68.115  1.00  0.00    -0.255 C  
HETATM   18  O   UNL     1     -11.993  13.361  67.821  1.00  0.00    -0.351 OA 
BRANCH  17  19
HETATM   19  C   UNL     1     -10.020  14.667  68.247  1.00  0.00    -0.222 C  
BRANCH  19  20
HETATM   20  N   UNL     1      -9.165  14.918  69.207  1.00  0.00    -0.376 NA 
HETATM   21  H   UNL     1      -7.239  14.673  69.648  1.00  0.00     0.000 HD 
HETATM   22  O   UNL     1      -7.860  14.490  68.952  1.00  0.00    -0.138 OA 
HETATM   23  H   UNL     1      -9.431  15.389  70.072  1.00  0.00     0.000 HD 
ENDBRANCH  19  20
BRANCH  19  24
HETATM   24  C   UNL     1     -10.240  15.743  67.277  1.00  0.00    -0.268 A  
HETATM   25  S   UNL     1     -10.366  18.016  66.130  1.00  0.00    -0.299 SA 
HETATM   26  C   UNL     1      -9.992  17.084  67.517  1.00  0.00    -0.274 A  
HETATM   27  C   UNL     1     -10.826  16.586  65.303  1.00  0.00    -0.221 A  
HETATM   28  N   UNL     1     -10.711  15.479  65.990  1.00  0.00    -0.323 NA 
HETATM   29  N   UNL     1     -11.286  16.624  64.043  1.00  0.00    -1.530 NA 
HETATM   30  H1  UNL     1     -11.560  15.773  63.552  1.00  0.00     0.000 HD 
HETATM   31  H2  UNL     1     -11.363  17.523  63.568  1.00  0.00     0.000 HD 
ENDBRANCH  19  24
ENDBRANCH  17  19
ENDBRANCH   5  15
TORSDOF 5
ENDMDL
MODEL       35
REMARK 921   NORMALIZED FREE ENERGY PREDICTED BY IDOCK:   -6.03 KCAL/MOL
REMARK 922        TOTAL FREE ENERGY PREDICTED BY IDOCK:   -8.65 KCAL/MOL
REMARK 923 INTER-LIGAND FREE ENERGY PREDICTED BY IDOCK:   -7.71 KCAL/MOL
REMARK 924 INTRA-LIGAND FREE ENERGY PREDICTED BY IDOCK:   -0.95 KCAL/MOL
REMARK 927      BINDING AFFINITY PREDICTED BY RF-SCORE:    0.00 PKD
ROOT
HETATM    1  C   UNL     1     -10.235  10.127  70.275  1.00  0.00    -0.120 C  
HETATM    2  S   UNL     1     -11.865  10.826  70.617  1.00  0.00    -0.354 SA 
HETATM    3  CG2 UNL     1     -12.360   9.446  71.669  1.00  0.00    -0.385 C  
HETATM    4  CB  UNL     1     -12.094   8.061  71.085  1.00  0.00    -0.284 C  
HETATM    5  CA  UNL     1      -9.569  10.621  68.952  1.00  0.00    -0.196 C  
HETATM    6  CA  UNL     1     -11.158   7.807  70.122  1.00  0.00    -0.209 C  
HETATM    7  N   UNL     1     -10.392   8.834  69.635  1.00  0.00    -0.208 N  
HETATM    8  O   UNL     1      -9.333   8.404  67.619  1.00  0.00    -0.136 OA 
HETATM    9  C   UNL     1     -10.949   6.392  69.611  1.00  0.00    -0.358 C  
HETATM   10  C   UNL     1      -9.627   9.106  68.558  1.00  0.00    -0.148 C  
HETATM   11  O   UNL     1     -10.385   6.246  68.397  1.00  0.00    -0.161 OA 
HETATM   12  OXT UNL     1     -11.247   5.393  70.253  1.00  0.00    -0.055 OA 
ENDROOT
BRANCH   4  13
HETATM   13  CG1 UNL     1     -13.030   7.055  71.606  1.00  0.00    -0.400 C  
HETATM   14  CD1 UNL     1     -14.323   7.250  71.901  1.00  0.00    -0.507 C  
ENDBRANCH   4  13
BRANCH   5  15
HETATM   15  N   UNL     1     -10.398  11.505  68.094  1.00  0.00    -0.188 N  
HETATM   16  H   UNL     1     -11.237  11.113  67.666  1.00  0.00     0.000 HD 
HETATM   17  C   UNL     1     -10.097  12.819  67.845  1.00  0.00    -0.231 C  
HETATM   18  O   UNL     1      -9.114  13.389  68.298  1.00  0.00    -0.189 OA 
BRANCH  17  19
HETATM   19  C   UNL     1     -11.061  13.548  66.897  1.00  0.00    -0.296 C  
BRANCH  19  20
HETATM   20  N   UNL     1     -11.636  14.692  67.172  1.00  0.00    -0.375 NA 
HETATM   21  H   UNL     1     -12.349  15.715  68.724  1.00  0.00     0.000 HD 
HETATM   22  O   UNL     1     -11.932  14.885  68.524  1.00  0.00    -0.309 OA 
HETATM   23  H   UNL     1     -11.853  15.386  66.456  1.00  0.00     0.000 HD 
ENDBRANCH  19  20
BRANCH  19  24
HETATM   24  C   UNL     1     -11.409  12.940  65.610  1.00  0.00    -0.311 A  
HETATM   25  S   UNL     1     -12.629  12.244  63.482  1.00  0.00    -0.365 SA 
HETATM   26  C   UNL     1     -12.622  13.106  64.963  1.00  0.00    -0.438 A  
HETATM   27  C   UNL     1     -11.028  11.714  63.792  1.00  0.00    -0.422 A  
HETATM   28  N   UNL     1     -10.502  12.142  64.911  1.00  0.00    -0.278 NA 
HETATM   29  N   UNL     1     -10.383  10.903  62.941  1.00  0.00    -0.782 NA 
HETATM   30  H1  UNL     1      -9.430  10.588  63.126  1.00  0.00     0.000 HD 
HETATM   31  H2  UNL     1     -10.855  10.595  62.091  1.00  0.00     0.000 HD 
ENDBRANCH  19  24
ENDBRANCH  17  19
ENDBRANCH   5  15
TORSDOF 5
ENDMDL
MODEL       36
REMARK 921   NORMALIZED FREE ENERGY PREDICTED BY IDOCK:   -5.99 KCAL/MOL
REMARK 922        TOTAL FREE ENERGY PREDICTED BY IDOCK:   -8.60 KCAL/MOL
REMARK 923 INTER-LIGAND FREE ENERGY PREDICTED BY IDOCK:   -7.50 KCAL/MOL
REMARK 924 INTRA-LIGAND FREE ENERGY PREDICTED BY IDOCK:   -1.10 KCAL/MOL
REMARK 927      BINDING AFFINITY PREDICTED BY RF-SCORE:    0.00 PKD
ROOT
HETATM    1  C   UNL     1      -9.115  10.713  67.140  1.00  0.00    -0.143 C  
HETATM    2  S   UNL     1      -9.542   9.462  65.909  1.00  0.00    -0.278 SA 
HETATM    3  CG2 UNL     1      -9.903  10.683  64.630  1.00  0.00    -0.321 C  
HETATM    4  CB  UNL     1     -10.802  11.834  65.072  1.00  0.00    -0.350 C  
HETATM    5  CA  UNL     1      -9.266  10.255  68.626  1.00  0.00    -0.159 C  
HETATM    6  CA  UNL     1     -10.950  12.230  66.372  1.00  0.00    -0.287 C  
HETATM    7  N   UNL     1     -10.259  11.578  67.361  1.00  0.00    -0.200 N  
HETATM    8  O   UNL     1     -11.062  11.910  69.509  1.00  0.00    -0.201 OA 
HETATM    9  C   UNL     1     -11.854  13.400  66.720  1.00  0.00    -0.403 C  
HETATM   10  C   UNL     1     -10.312  11.419  68.699  1.00  0.00    -0.203 C  
HETATM   11  O   UNL     1     -12.325  13.470  67.979  1.00  0.00    -0.215 OA 
HETATM   12  OXT UNL     1     -12.152  14.281  65.923  1.00  0.00    -0.398 OA 
ENDROOT
BRANCH   4  13
HETATM   13  CG1 UNL     1     -11.566  12.399  63.951  1.00  0.00    -0.518 C  
HETATM   14  CD1 UNL     1     -12.698  11.904  63.431  1.00  0.00    -0.496 C  
ENDBRANCH   4  13
BRANCH   5  15
HETATM   15  N   UNL     1      -9.843   8.904  68.838  1.00  0.00    -0.172 N  
HETATM   16  H   UNL     1     -10.068   8.341  68.017  1.00  0.00     0.000 HD 
HETATM   17  C   UNL     1     -10.090   8.371  70.077  1.00  0.00    -0.192 C  
HETATM   18  O   UNL     1      -9.866   8.958  71.126  1.00  0.00    -0.224 OA 
BRANCH  17  19
HETATM   19  C   UNL     1     -10.728   6.973  70.079  1.00  0.00    -0.242 C  
BRANCH  19  20
HETATM   20  N   UNL     1     -11.504   6.522  71.032  1.00  0.00    -0.319 NA 
HETATM   21  H   UNL     1     -13.348   6.752  71.746  1.00  0.00     0.000 HD 
HETATM   22  O   UNL     1     -12.785   7.080  71.054  1.00  0.00    -0.367 OA 
HETATM   23  H   UNL     1     -11.198   5.819  71.704  1.00  0.00     0.000 HD 
ENDBRANCH  19  20
BRANCH  19  24
HETATM   24  C   UNL     1     -10.445   6.047  68.979  1.00  0.00    -0.256 A  
HETATM   25  S   UNL     1      -9.557   4.114  67.575  1.00  0.00    -0.143 SA 
HETATM   26  C   UNL     1      -9.612   4.946  69.071  1.00  0.00    -0.157 A  
HETATM   27  C   UNL     1     -10.642   5.261  66.907  1.00  0.00    -0.214 A  
HETATM   28  N   UNL     1     -11.036   6.202  67.724  1.00  0.00    -0.297 NA 
HETATM   29  N   UNL     1     -11.034   5.189  65.626  1.00  0.00    -0.745 NA 
HETATM   30  H1  UNL     1     -11.679   5.871  65.228  1.00  0.00     0.000 HD 
HETATM   31  H2  UNL     1     -10.678   4.436  65.037  1.00  0.00     0.000 HD 
ENDBRANCH  19  24
ENDBRANCH  17  19
ENDBRANCH   5  15
TORSDOF 5
ENDMDL
MODEL       37
REMARK 921   NORMALIZED FREE ENERGY PREDICTED BY IDOCK:   -5.95 KCAL/MOL
REMARK 922        TOTAL FREE ENERGY PREDICTED BY IDOCK:   -8.55 KCAL/MOL
REMARK 923 INTER-LIGAND FREE ENERGY PREDICTED BY IDOCK:   -7.76 KCAL/MOL
REMARK 924 INTRA-LIGAND FREE ENERGY PREDICTED BY IDOCK:   -0.79 KCAL/MOL
REMARK 927      BINDING AFFINITY PREDICTED BY RF-SCORE:    0.00 PKD
ROOT
HETATM    1  C   UNL     1      -9.405  10.397  67.581  1.00  0.00    -0.148 C  
HETATM    2  S   UNL     1      -9.172   8.719  66.954  1.00  0.00    -0.166 SA 
HETATM    3  CG2 UNL     1      -8.764   9.278  65.287  1.00  0.00    -0.184 C  
HETATM    4  CB  UNL     1      -9.717  10.318  64.704  1.00  0.00    -0.398 C  
HETATM    5  CA  UNL     1     -10.328  10.511  68.835  1.00  0.00    -0.208 C  
HETATM    6  CA  UNL     1     -10.508  11.137  65.460  1.00  0.00    -0.256 C  
HETATM    7  N   UNL     1     -10.461  11.048  66.827  1.00  0.00    -0.241 N  
HETATM    8  O   UNL     1     -12.257  12.002  67.940  1.00  0.00    -0.470 OA 
HETATM    9  C   UNL     1     -11.415  12.157  64.794  1.00  0.00    -0.322 C  
HETATM   10  C   UNL     1     -11.212  11.395  67.892  1.00  0.00    -0.288 C  
HETATM   11  O   UNL     1     -12.472  12.602  65.497  1.00  0.00    -0.622 OA 
HETATM   12  OXT UNL     1     -11.219  12.600  63.669  1.00  0.00    -0.430 OA 
ENDROOT
BRANCH   4  13
HETATM   13  CG1 UNL     1      -9.759  10.264  63.235  1.00  0.00    -0.230 C  
HETATM   14  CD1 UNL     1      -9.008   9.483  62.447  1.00  0.00    -0.279 C  
ENDBRANCH   4  13
BRANCH   5  15
HETATM   15  N   UNL     1     -10.981   9.255  69.282  1.00  0.00    -0.402 N  
HETATM   16  H   UNL     1     -11.584   8.764  68.621  1.00  0.00     0.000 HD 
HETATM   17  C   UNL     1     -10.820   8.719  70.533  1.00  0.00    -0.233 C  
HETATM   18  O   UNL     1     -10.128   9.227  71.405  1.00  0.00    -0.314 OA 
BRANCH  17  19
HETATM   19  C   UNL     1     -11.616   7.435  70.809  1.00  0.00    -0.290 C  
BRANCH  19  20
HETATM   20  N   UNL     1     -12.911   7.400  70.999  1.00  0.00    -0.575 NA 
HETATM   21  H   UNL     1     -14.398   8.557  71.643  1.00  0.00     0.000 HD 
HETATM   22  O   UNL     1     -13.458   8.582  71.505  1.00  0.00    -0.333 OA 
HETATM   23  H   UNL     1     -13.476   6.576  70.793  1.00  0.00     0.000 HD 
ENDBRANCH  19  20
BRANCH  19  24
HETATM   24  C   UNL     1     -10.911   6.154  70.909  1.00  0.00    -0.297 A  
HETATM   25  S   UNL     1      -9.822   4.022  71.784  1.00  0.00    -0.168 SA 
HETATM   26  C   UNL     1     -10.652   5.487  72.094  1.00  0.00    -0.226 A  
HETATM   27  C   UNL     1      -9.865   4.363  70.103  1.00  0.00    -0.217 A  
HETATM   28  N   UNL     1     -10.457   5.481  69.774  1.00  0.00    -0.297 NA 
HETATM   29  N   UNL     1      -9.308   3.534  69.208  1.00  0.00    -0.162 NA 
HETATM   30  H1  UNL     1      -9.334   3.737  68.208  1.00  0.00     0.000 HD 
HETATM   31  H2  UNL     1      -8.850   2.683  69.533  1.00  0.00     0.000 HD 
ENDBRANCH  19  24
ENDBRANCH  17  19
ENDBRANCH   5  15
TORSDOF 5
ENDMDL
MODEL       38
REMARK 921   NORMALIZED FREE ENERGY PREDICTED BY IDOCK:   -5.94 KCAL/MOL
REMARK 922        TOTAL FREE ENERGY PREDICTED BY IDOCK:   -8.53 KCAL/MOL
REMARK 923 INTER-LIGAND FREE ENERGY PREDICTED BY IDOCK:   -7.55 KCAL/MOL
REMARK 924 INTRA-LIGAND FREE ENERGY PREDICTED BY IDOCK:   -0.99 KCAL/MOL
REMARK 927      BINDING AFFINITY PREDICTED BY RF-SCORE:    0.00 PKD
ROOT
HETATM    1  C   UNL     1     -10.266  14.595  67.490  1.00  0.00    -0.225 C  
HETATM    2  S   UNL     1     -11.568  15.374  68.471  1.00  0.00    -0.340 SA 
HETATM    3  CG2 UNL     1     -11.023  17.047  68.071  1.00  0.00    -0.252 C  
HETATM    4  CB  UNL     1      -9.525  17.293  68.231  1.00  0.00    -0.283 C  
HETATM    5  CA  UNL     1      -9.896  13.140  67.921  1.00  0.00    -0.231 C  
HETATM    6  CA  UNL     1      -8.582  16.305  68.195  1.00  0.00    -0.183 C  
HETATM    7  N   UNL     1      -8.971  15.005  68.000  1.00  0.00    -0.171 N  
HETATM    8  O   UNL     1      -7.399  13.406  68.586  1.00  0.00    -0.106 OA 
HETATM    9  C   UNL     1      -7.109  16.644  68.346  1.00  0.00    -0.167 C  
HETATM   10  C   UNL     1      -8.482  13.762  68.183  1.00  0.00    -0.173 C  
HETATM   11  O   UNL     1      -6.283  15.664  68.756  1.00  0.00    -0.101 OA 
HETATM   12  OXT UNL     1      -6.643  17.748  68.094  1.00  0.00    -0.183 OA 
ENDROOT
BRANCH   4  13
HETATM   13  CG1 UNL     1      -9.227  18.702  68.528  1.00  0.00    -0.377 C  
HETATM   14  CD1 UNL     1     -10.104  19.716  68.533  1.00  0.00    -0.557 C  
ENDBRANCH   4  13
BRANCH   5  15
HETATM   15  N   UNL     1     -10.571  12.628  69.139  1.00  0.00    -0.439 N  
HETATM   16  H   UNL     1     -10.211  12.919  70.048  1.00  0.00     0.000 HD 
HETATM   17  C   UNL     1     -11.651  11.784  69.110  1.00  0.00    -0.310 C  
HETATM   18  O   UNL     1     -12.158  11.365  68.078  1.00  0.00    -0.629 OA 
BRANCH  17  19
HETATM   19  C   UNL     1     -12.177  11.337  70.482  1.00  0.00    -0.383 C  
BRANCH  19  20
HETATM   20  N   UNL     1     -13.034  12.021  71.198  1.00  0.00    -0.237 NA 
HETATM   21  H   UNL     1     -13.385  13.885  71.803  1.00  0.00     0.000 HD 
HETATM   22  O   UNL     1     -12.763  13.388  71.284  1.00  0.00    -0.354 OA 
HETATM   23  H   UNL     1     -13.836  11.589  71.657  1.00  0.00     0.000 HD 
ENDBRANCH  19  20
BRANCH  19  24
HETATM   24  C   UNL     1     -11.685  10.091  71.075  1.00  0.00    -0.392 A  
HETATM   25  S   UNL     1     -11.510   7.882  72.336  1.00  0.00    -0.397 SA 
HETATM   26  C   UNL     1     -12.448   9.228  71.843  1.00  0.00    -0.382 A  
HETATM   27  C   UNL     1     -10.160   8.526  71.498  1.00  0.00    -0.245 A  
HETATM   28  N   UNL     1     -10.372   9.660  70.881  1.00  0.00    -0.296 NA 
HETATM   29  N   UNL     1      -8.972   7.903  71.501  1.00  0.00    -0.132 NA 
HETATM   30  H1  UNL     1      -8.169   8.286  71.003  1.00  0.00     0.000 HD 
HETATM   31  H2  UNL     1      -8.871   7.027  72.013  1.00  0.00     0.000 HD 
ENDBRANCH  19  24
ENDBRANCH  17  19
ENDBRANCH   5  15
TORSDOF 5
ENDMDL
MODEL       39
REMARK 921   NORMALIZED FREE ENERGY PREDICTED BY IDOCK:   -5.93 KCAL/MOL
REMARK 922        TOTAL FREE ENERGY PREDICTED BY IDOCK:   -8.53 KCAL/MOL
REMARK 923 INTER-LIGAND FREE ENERGY PREDICTED BY IDOCK:   -7.59 KCAL/MOL
REMARK 924 INTRA-LIGAND FREE ENERGY PREDICTED BY IDOCK:   -0.94 KCAL/MOL
REMARK 927      BINDING AFFINITY PREDICTED BY RF-SCORE:    0.00 PKD
ROOT
HETATM    1  C   UNL     1     -11.298  11.717  68.361  1.00  0.00    -0.270 C  
HETATM    2  S   UNL     1      -9.706  10.870  68.472  1.00  0.00    -0.188 SA 
HETATM    3  CG2 UNL     1     -10.431   9.356  69.133  1.00  0.00    -0.217 C  
HETATM    4  CB  UNL     1     -11.409   9.558  70.286  1.00  0.00    -0.284 C  
HETATM    5  CA  UNL     1     -11.218  13.277  68.385  1.00  0.00    -0.280 C  
HETATM    6  CA  UNL     1     -12.082  10.725  70.520  1.00  0.00    -0.366 C  
HETATM    7  N   UNL     1     -11.893  11.794  69.683  1.00  0.00    -0.324 N  
HETATM    8  O   UNL     1     -12.568  13.843  70.530  1.00  0.00    -0.333 OA 
HETATM    9  C   UNL     1     -13.051  10.832  71.684  1.00  0.00    -0.446 C  
HETATM   10  C   UNL     1     -12.078  13.130  69.686  1.00  0.00    -0.255 C  
HETATM   11  O   UNL     1     -13.330  12.063  72.151  1.00  0.00    -0.510 OA 
HETATM   12  OXT UNL     1     -13.598   9.864  72.197  1.00  0.00    -0.409 OA 
ENDROOT
BRANCH   4  13
HETATM   13  CG1 UNL     1     -11.466   8.387  71.173  1.00  0.00    -0.314 C  
HETATM   14  CD1 UNL     1     -11.763   7.131  70.812  1.00  0.00    -0.363 C  
ENDBRANCH   4  13
BRANCH   5  15
HETATM   15  N   UNL     1      -9.871  13.859  68.607  1.00  0.00    -0.326 N  
HETATM   16  H   UNL     1      -9.075  13.225  68.663  1.00  0.00     0.000 HD 
HETATM   17  C   UNL     1      -9.639  15.204  68.742  1.00  0.00    -0.219 C  
HETATM   18  O   UNL     1     -10.519  16.053  68.700  1.00  0.00    -0.231 OA 
BRANCH  17  19
HETATM   19  C   UNL     1      -8.178  15.598  69.006  1.00  0.00    -0.233 C  
BRANCH  19  20
HETATM   20  N   UNL     1      -7.378  14.951  69.815  1.00  0.00    -0.320 NA 
HETATM   21  H   UNL     1      -6.270  13.297  69.876  1.00  0.00     0.000 HD 
HETATM   22  O   UNL     1      -6.851  13.768  69.290  1.00  0.00    -0.112 OA 
HETATM   23  H   UNL     1      -7.156  15.283  70.753  1.00  0.00     0.000 HD 
ENDBRANCH  19  20
BRANCH  19  24
HETATM   24  C   UNL     1      -7.622  16.789  68.359  1.00  0.00    -0.205 A  
HETATM   25  S   UNL     1      -6.470  19.019  67.911  1.00  0.00    -0.224 SA 
HETATM   26  C   UNL     1      -6.988  17.825  69.024  1.00  0.00    -0.236 A  
HETATM   27  C   UNL     1      -7.112  18.086  66.623  1.00  0.00    -0.211 A  
HETATM   28  N   UNL     1      -7.672  16.957  66.974  1.00  0.00    -0.178 NA 
HETATM   29  N   UNL     1      -7.049  18.511  65.353  1.00  0.00    -0.535 NA 
HETATM   30  H1  UNL     1      -7.431  17.956  64.587  1.00  0.00     0.000 HD 
HETATM   31  H2  UNL     1      -6.610  19.408  65.149  1.00  0.00     0.000 HD 
ENDBRANCH  19  24
ENDBRANCH  17  19
ENDBRANCH   5  15
TORSDOF 5
ENDMDL
MODEL       40
REMARK 921   NORMALIZED FREE ENERGY PREDICTED BY IDOCK:   -5.92 KCAL/MOL
REMARK 922        TOTAL FREE ENERGY PREDICTED BY IDOCK:   -8.51 KCAL/MOL
REMARK 923 INTER-LIGAND FREE ENERGY PREDICTED BY IDOCK:   -7.51 KCAL/MOL
REMARK 924 INTRA-LIGAND FREE ENERGY PREDICTED BY IDOCK:   -1.00 KCAL/MOL
REMARK 927      BINDING AFFINITY PREDICTED BY RF-SCORE:    0.00 PKD
ROOT
HETATM    1  C   UNL     1      -8.659   9.126  67.730  1.00  0.00    -0.121 C  
HETATM    2  S   UNL     1      -8.729  10.524  68.871  1.00  0.00    -0.155 SA 
HETATM    3  CG2 UNL     1      -7.987   9.597  70.230  1.00  0.00    -0.179 C  
HETATM    4  CB  UNL     1      -8.593   8.219  70.478  1.00  0.00    -0.131 C  
HETATM    5  CA  UNL     1      -9.691   9.177  66.559  1.00  0.00    -0.241 C  
HETATM    6  CA  UNL     1      -9.273   7.503  69.532  1.00  0.00    -0.146 C  
HETATM    7  N   UNL     1      -9.430   8.024  68.274  1.00  0.00    -0.140 N  
HETATM    8  O   UNL     1     -11.096   7.038  67.000  1.00  0.00    -0.373 OA 
HETATM    9  C   UNL     1      -9.829   6.129  69.863  1.00  0.00    -0.168 C  
HETATM   10  C   UNL     1     -10.219   7.846  67.195  1.00  0.00    -0.290 C  
HETATM   11  O   UNL     1     -10.842   5.669  69.106  1.00  0.00    -0.284 OA 
HETATM   12  OXT UNL     1      -9.389   5.422  70.761  1.00  0.00    -0.152 OA 
ENDROOT
BRANCH   4  13
HETATM   13  CG1 UNL     1      -8.450   7.798  71.879  1.00  0.00    -0.140 C  
HETATM   14  CD1 UNL     1      -9.117   8.295  72.930  1.00  0.00    -0.332 C  
ENDBRANCH   4  13
BRANCH   5  15
HETATM   15  N   UNL     1     -10.665  10.297  66.595  1.00  0.00    -0.162 N  
HETATM   16  H   UNL     1     -11.347  10.318  67.353  1.00  0.00     0.000 HD 
HETATM   17  C   UNL     1     -10.697  11.304  65.666  1.00  0.00    -0.217 C  
HETATM   18  O   UNL     1      -9.933  11.374  64.713  1.00  0.00    -0.241 OA 
BRANCH  17  19
HETATM   19  C   UNL     1     -11.810  12.346  65.860  1.00  0.00    -0.405 C  
BRANCH  19  20
HETATM   20  N   UNL     1     -12.822  12.500  65.044  1.00  0.00    -0.758 NA 
HETATM   21  H   UNL     1     -13.246  13.262  63.254  1.00  0.00     0.000 HD 
HETATM   22  O   UNL     1     -12.512  13.150  63.847  1.00  0.00    -0.626 OA 
HETATM   23  H   UNL     1     -13.762  12.172  65.265  1.00  0.00     0.000 HD 
ENDBRANCH  19  20
BRANCH  19  24
HETATM   24  C   UNL     1     -11.749  13.265  66.999  1.00  0.00    -0.389 A  
HETATM   25  S   UNL     1     -11.602  15.355  68.452  1.00  0.00    -0.319 SA 
HETATM   26  C   UNL     1     -11.621  14.640  66.896  1.00  0.00    -0.362 A  
HETATM   27  C   UNL     1     -11.769  13.801  69.159  1.00  0.00    -0.334 A  
HETATM   28  N   UNL     1     -11.843  12.806  68.313  1.00  0.00    -0.330 NA 
HETATM   29  N   UNL     1     -11.802  13.638  70.490  1.00  0.00    -0.514 NA 
HETATM   30  H1  UNL     1     -11.902  12.714  70.910  1.00  0.00     0.000 HD 
HETATM   31  H2  UNL     1     -11.727  14.456  71.094  1.00  0.00     0.000 HD 
ENDBRANCH  19  24
ENDBRANCH  17  19
ENDBRANCH   5  15
TORSDOF 5
ENDMDL
MODEL       41
REMARK 921   NORMALIZED FREE ENERGY PREDICTED BY IDOCK:   -5.85 KCAL/MOL
REMARK 922        TOTAL FREE ENERGY PREDICTED BY IDOCK:   -8.43 KCAL/MOL
REMARK 923 INTER-LIGAND FREE ENERGY PREDICTED BY IDOCK:   -7.46 KCAL/MOL
REMARK 924 INTRA-LIGAND FREE ENERGY PREDICTED BY IDOCK:   -0.97 KCAL/MOL
REMARK 927      BINDING AFFINITY PREDICTED BY RF-SCORE:    0.00 PKD
ROOT
HETATM    1  C   UNL     1      -9.700   9.101  69.537  1.00  0.00    -0.173 C  
HETATM    2  S   UNL     1      -8.228  10.111  69.811  1.00  0.00    -0.091 SA 
HETATM    3  CG2 UNL     1      -7.420   8.860  70.828  1.00  0.00    -0.099 C  
HETATM    4  CB  UNL     1      -8.295   8.254  71.922  1.00  0.00    -0.206 C  
HETATM    5  CA  UNL     1     -10.994   9.901  69.187  1.00  0.00    -0.200 C  
HETATM    6  CA  UNL     1      -9.662   8.242  71.887  1.00  0.00    -0.232 C  
HETATM    7  N   UNL     1     -10.315   8.794  70.815  1.00  0.00    -0.201 N  
HETATM    8  O   UNL     1     -12.555   9.274  71.166  1.00  0.00    -0.308 OA 
HETATM    9  C   UNL     1     -10.453   7.601  73.013  1.00  0.00    -0.356 C  
HETATM   10  C   UNL     1     -11.543   9.256  70.505  1.00  0.00    -0.217 C  
HETATM   11  O   UNL     1     -11.729   7.994  73.180  1.00  0.00    -0.268 OA 
HETATM   12  OXT UNL     1      -9.995   6.740  73.753  1.00  0.00    -0.224 OA 
ENDROOT
BRANCH   4  13
HETATM   13  CG1 UNL     1      -7.500   7.777  73.063  1.00  0.00    -0.131 C  
HETATM   14  CD1 UNL     1      -6.644   8.505  73.795  1.00  0.00    -0.116 C  
ENDBRANCH   4  13
BRANCH   5  15
HETATM   15  N   UNL     1     -10.881  11.381  69.235  1.00  0.00    -0.337 N  
HETATM   16  H   UNL     1     -10.380  11.801  70.018  1.00  0.00     0.000 HD 
HETATM   17  C   UNL     1     -11.413  12.213  68.284  1.00  0.00    -0.305 C  
HETATM   18  O   UNL     1     -12.039  11.819  67.309  1.00  0.00    -0.595 OA 
BRANCH  17  19
HETATM   19  C   UNL     1     -11.220  13.715  68.540  1.00  0.00    -0.280 C  
BRANCH  19  20
HETATM   20  N   UNL     1     -10.631  14.533  67.704  1.00  0.00    -0.250 NA 
HETATM   21  H   UNL     1     -10.965  15.463  65.976  1.00  0.00     0.000 HD 
HETATM   22  O   UNL     1     -11.393  14.870  66.582  1.00  0.00    -0.349 OA 
HETATM   23  H   UNL     1      -9.689  14.894  67.858  1.00  0.00     0.000 HD 
ENDBRANCH  19  20
BRANCH  19  24
HETATM   24  C   UNL     1     -11.679  14.299  69.802  1.00  0.00    -0.309 A  
HETATM   25  S   UNL     1     -12.050  15.855  71.788  1.00  0.00    -0.515 SA 
HETATM   26  C   UNL     1     -11.277  15.529  70.295  1.00  0.00    -0.326 A  
HETATM   27  C   UNL     1     -12.870  14.353  71.682  1.00  0.00    -0.343 A  
HETATM   28  N   UNL     1     -12.607  13.645  70.614  1.00  0.00    -0.319 NA 
HETATM   29  N   UNL     1     -13.707  13.944  72.647  1.00  0.00    -0.709 NA 
HETATM   30  H1  UNL     1     -14.195  13.050  72.583  1.00  0.00     0.000 HD 
HETATM   31  H2  UNL     1     -13.859  14.539  73.461  1.00  0.00     0.000 HD 
ENDBRANCH  19  24
ENDBRANCH  17  19
ENDBRANCH   5  15
TORSDOF 5
ENDMDL
MODEL       42
REMARK 921   NORMALIZED FREE ENERGY PREDICTED BY IDOCK:   -5.83 KCAL/MOL
REMARK 922        TOTAL FREE ENERGY PREDICTED BY IDOCK:   -8.39 KCAL/MOL
REMARK 923 INTER-LIGAND FREE ENERGY PREDICTED BY IDOCK:   -7.49 KCAL/MOL
REMARK 924 INTRA-LIGAND FREE ENERGY PREDICTED BY IDOCK:   -0.90 KCAL/MOL
REMARK 927      BINDING AFFINITY PREDICTED BY RF-SCORE:    0.00 PKD
ROOT
HETATM    1  C   UNL     1     -11.517  12.664  65.789  1.00  0.00    -0.358 C  
HETATM    2  S   UNL     1     -10.053  13.062  64.809  1.00  0.00    -0.158 SA 
HETATM    3  CG2 UNL     1      -9.849  11.368  64.221  1.00  0.00    -0.261 C  
HETATM    4  CB  UNL     1      -9.926  10.295  65.303  1.00  0.00    -0.387 C  
HETATM    5  CA  UNL     1     -11.800  13.636  66.977  1.00  0.00    -0.408 C  
HETATM    6  CA  UNL     1     -10.557  10.467  66.503  1.00  0.00    -0.151 C  
HETATM    7  N   UNL     1     -11.173  11.660  66.779  1.00  0.00    -0.310 N  
HETATM    8  O   UNL     1     -11.632  12.039  69.019  1.00  0.00    -0.264 OA 
HETATM    9  C   UNL     1     -10.600   9.336  67.516  1.00  0.00    -0.262 C  
HETATM   10  C   UNL     1     -11.616  12.348  67.850  1.00  0.00    -0.356 C  
HETATM   11  O   UNL     1     -10.806   9.663  68.805  1.00  0.00    -0.219 OA 
HETATM   12  OXT UNL     1     -10.477   8.156  67.214  1.00  0.00    -0.274 OA 
ENDROOT
BRANCH   4  13
HETATM   13  CG1 UNL     1      -9.156   9.095  64.945  1.00  0.00    -0.190 C  
HETATM   14  CD1 UNL     1      -7.821   8.972  64.965  1.00  0.00    -0.113 C  
ENDBRANCH   4  13
BRANCH   5  15
HETATM   15  N   UNL     1     -10.779  14.686  67.220  1.00  0.00    -0.285 N  
HETATM   16  H   UNL     1      -9.915  14.653  66.678  1.00  0.00     0.000 HD 
HETATM   17  C   UNL     1     -10.934  15.698  68.132  1.00  0.00    -0.314 C  
HETATM   18  O   UNL     1     -11.923  15.829  68.840  1.00  0.00    -0.382 OA 
BRANCH  17  19
HETATM   19  C   UNL     1      -9.742  16.659  68.260  1.00  0.00    -0.244 C  
BRANCH  19  20
HETATM   20  N   UNL     1      -8.725  16.466  69.061  1.00  0.00    -0.251 NA 
HETATM   21  H   UNL     1      -8.029  15.126  70.359  1.00  0.00     0.000 HD 
HETATM   22  O   UNL     1      -8.767  15.267  69.778  1.00  0.00    -0.192 OA 
HETATM   23  H   UNL     1      -7.962  17.137  69.155  1.00  0.00     0.000 HD 
ENDBRANCH  19  20
BRANCH  19  24
HETATM   24  C   UNL     1      -9.725  17.898  67.478  1.00  0.00    -0.278 A  
HETATM   25  S   UNL     1     -10.410  19.955  66.136  1.00  0.00    -0.466 SA 
HETATM   26  C   UNL     1     -10.852  18.532  66.980  1.00  0.00    -0.207 A  
HETATM   27  C   UNL     1      -8.761  19.643  66.489  1.00  0.00    -0.362 A  
HETATM   28  N   UNL     1      -8.533  18.564  67.191  1.00  0.00    -0.260 NA 
HETATM   29  N   UNL     1      -7.787  20.454  66.050  1.00  0.00    -0.534 NA 
HETATM   30  H1  UNL     1      -6.806  20.268  66.260  1.00  0.00     0.000 HD 
HETATM   31  H2  UNL     1      -8.033  21.274  65.496  1.00  0.00     0.000 HD 
ENDBRANCH  19  24
ENDBRANCH  17  19
ENDBRANCH   5  15
TORSDOF 5
ENDMDL
MODEL       43
REMARK 921   NORMALIZED FREE ENERGY PREDICTED BY IDOCK:   -5.81 KCAL/MOL
REMARK 922        TOTAL FREE ENERGY PREDICTED BY IDOCK:   -8.37 KCAL/MOL
REMARK 923 INTER-LIGAND FREE ENERGY PREDICTED BY IDOCK:   -7.57 KCAL/MOL
REMARK 924 INTRA-LIGAND FREE ENERGY PREDICTED BY IDOCK:   -0.80 KCAL/MOL
REMARK 927      BINDING AFFINITY PREDICTED BY RF-SCORE:    0.00 PKD
ROOT
HETATM    1  C   UNL     1      -9.447  11.126  67.407  1.00  0.00    -0.164 C  
HETATM    2  S   UNL     1     -10.163   9.679  66.598  1.00  0.00    -0.212 SA 
HETATM    3  CG2 UNL     1     -10.253  10.485  64.986  1.00  0.00    -0.295 C  
HETATM    4  CB  UNL     1     -10.861  11.884  64.997  1.00  0.00    -0.351 C  
HETATM    5  CA  UNL     1      -9.679  11.202  68.949  1.00  0.00    -0.150 C  
HETATM    6  CA  UNL     1     -10.898  12.690  66.100  1.00  0.00    -0.273 C  
HETATM    7  N   UNL     1     -10.361  12.247  67.281  1.00  0.00    -0.213 N  
HETATM    8  O   UNL     1     -11.041  13.403  69.171  1.00  0.00    -0.252 OA 
HETATM    9  C   UNL     1     -11.508  14.079  66.016  1.00  0.00    -0.338 C  
HETATM   10  C   UNL     1     -10.432  12.530  68.597  1.00  0.00    -0.200 C  
HETATM   11  O   UNL     1     -11.936  14.641  67.161  1.00  0.00    -0.391 OA 
HETATM   12  OXT UNL     1     -11.608  14.708  64.970  1.00  0.00    -0.358 OA 
ENDROOT
BRANCH   4  13
HETATM   13  CG1 UNL     1     -11.490  12.223  63.712  1.00  0.00    -0.545 C  
HETATM   14  CD1 UNL     1     -12.736  11.908  63.331  1.00  0.00    -0.496 C  
ENDBRANCH   4  13
BRANCH   5  15
HETATM   15  N   UNL     1     -10.546  10.148  69.533  1.00  0.00    -0.228 N  
HETATM   16  H   UNL     1     -11.476  10.014  69.135  1.00  0.00     0.000 HD 
HETATM   17  C   UNL     1     -10.165   9.344  70.576  1.00  0.00    -0.271 C  
HETATM   18  O   UNL     1      -9.078   9.423  71.132  1.00  0.00    -0.250 OA 
BRANCH  17  19
HETATM   19  C   UNL     1     -11.225   8.342  71.058  1.00  0.00    -0.266 C  
BRANCH  19  20
HETATM   20  N   UNL     1     -12.499   8.424  70.768  1.00  0.00    -0.489 NA 
HETATM   21  H   UNL     1     -14.047   9.654  70.996  1.00  0.00     0.000 HD 
HETATM   22  O   UNL     1     -13.122   9.595  71.207  1.00  0.00    -0.354 OA 
HETATM   23  H   UNL     1     -12.997   7.691  70.263  1.00  0.00     0.000 HD 
ENDBRANCH  19  20
BRANCH  19  24
HETATM   24  C   UNL     1     -10.828   7.232  71.929  1.00  0.00    -0.226 A  
HETATM   25  S   UNL     1     -10.246   5.798  73.954  1.00  0.00    -0.273 SA 
HETATM   26  C   UNL     1     -10.723   7.310  73.307  1.00  0.00    -0.383 A  
HETATM   27  C   UNL     1     -10.216   5.139  72.371  1.00  0.00    -0.198 A  
HETATM   28  N   UNL     1     -10.541   5.968  71.413  1.00  0.00    -0.237 NA 
HETATM   29  N   UNL     1      -9.863   3.864  72.151  1.00  0.00    -0.159 NA 
HETATM   30  H1  UNL     1      -9.845   3.472  71.209  1.00  0.00     0.000 HD 
HETATM   31  H2  UNL     1      -9.608   3.273  72.943  1.00  0.00     0.000 HD 
ENDBRANCH  19  24
ENDBRANCH  17  19
ENDBRANCH   5  15
TORSDOF 5
ENDMDL
MODEL       44
REMARK 921   NORMALIZED FREE ENERGY PREDICTED BY IDOCK:   -5.80 KCAL/MOL
REMARK 922        TOTAL FREE ENERGY PREDICTED BY IDOCK:   -8.35 KCAL/MOL
REMARK 923 INTER-LIGAND FREE ENERGY PREDICTED BY IDOCK:   -7.43 KCAL/MOL
REMARK 924 INTRA-LIGAND FREE ENERGY PREDICTED BY IDOCK:   -0.93 KCAL/MOL
REMARK 927      BINDING AFFINITY PREDICTED BY RF-SCORE:    0.00 PKD
ROOT
HETATM    1  C   UNL     1      -8.814   9.505  70.044  1.00  0.00    -0.223 C  
HETATM    2  S   UNL     1     -10.511   9.368  70.649  1.00  0.00    -0.313 SA 
HETATM    3  CG2 UNL     1     -10.393   7.587  70.911  1.00  0.00    -0.201 C  
HETATM    4  CB  UNL     1      -9.802   6.801  69.744  1.00  0.00    -0.175 C  
HETATM    5  CA  UNL     1      -8.538  10.738  69.126  1.00  0.00    -0.088 C  
HETATM    6  CA  UNL     1      -8.988   7.346  68.792  1.00  0.00    -0.129 C  
HETATM    7  N   UNL     1      -8.658   8.675  68.864  1.00  0.00    -0.129 N  
HETATM    8  O   UNL     1      -7.829   9.594  66.904  1.00  0.00    -0.101 OA 
HETATM    9  C   UNL     1      -8.430   6.483  67.673  1.00  0.00    -0.117 C  
HETATM   10  C   UNL     1      -8.183   9.647  68.059  1.00  0.00    -0.110 C  
HETATM   11  O   UNL     1      -8.036   7.104  66.546  1.00  0.00    -0.106 OA 
HETATM   12  OXT UNL     1      -8.305   5.268  67.758  1.00  0.00    -0.099 OA 
ENDROOT
BRANCH   4  13
HETATM   13  CG1 UNL     1     -10.293   5.416  69.708  1.00  0.00    -0.375 C  
HETATM   14  CD1 UNL     1     -10.111   4.483  70.654  1.00  0.00    -0.232 C  
ENDBRANCH   4  13
BRANCH   5  15
HETATM   15  N   UNL     1      -9.717  11.570  68.777  1.00  0.00    -0.353 N  
HETATM   16  H   UNL     1     -10.646  11.192  68.963  1.00  0.00     0.000 HD 
HETATM   17  C   UNL     1      -9.625  12.818  68.218  1.00  0.00    -0.211 C  
HETATM   18  O   UNL     1      -8.565  13.364  67.945  1.00  0.00    -0.161 OA 
BRANCH  17  19
HETATM   19  C   UNL     1     -10.965  13.496  67.894  1.00  0.00    -0.256 C  
BRANCH  19  20
HETATM   20  N   UNL     1     -11.866  13.807  68.792  1.00  0.00    -0.346 NA 
HETATM   21  H   UNL     1     -12.550  13.188  70.557  1.00  0.00     0.000 HD 
HETATM   22  O   UNL     1     -11.895  12.962  69.905  1.00  0.00    -0.323 OA 
HETATM   23  H   UNL     1     -12.498  14.601  68.687  1.00  0.00     0.000 HD 
ENDBRANCH  19  20
BRANCH  19  24
HETATM   24  C   UNL     1     -11.306  13.799  66.502  1.00  0.00    -0.325 A  
HETATM   25  S   UNL     1     -12.100  13.632  64.085  1.00  0.00    -0.396 SA 
HETATM   26  C   UNL     1     -11.827  12.884  65.602  1.00  0.00    -0.417 A  
HETATM   27  C   UNL     1     -11.517  15.115  64.720  1.00  0.00    -0.383 A  
HETATM   28  N   UNL     1     -11.146  15.080  65.973  1.00  0.00    -0.336 NA 
HETATM   29  N   UNL     1     -11.440  16.217  63.960  1.00  0.00    -1.521 NA 
HETATM   30  H1  UNL     1     -11.093  17.099  64.338  1.00  0.00     0.000 HD 
HETATM   31  H2  UNL     1     -11.734  16.173  62.985  1.00  0.00     0.000 HD 
ENDBRANCH  19  24
ENDBRANCH  17  19
ENDBRANCH   5  15
TORSDOF 5
ENDMDL
MODEL       45
REMARK 921   NORMALIZED FREE ENERGY PREDICTED BY IDOCK:   -5.75 KCAL/MOL
REMARK 922        TOTAL FREE ENERGY PREDICTED BY IDOCK:   -8.29 KCAL/MOL
REMARK 923 INTER-LIGAND FREE ENERGY PREDICTED BY IDOCK:   -7.64 KCAL/MOL
REMARK 924 INTRA-LIGAND FREE ENERGY PREDICTED BY IDOCK:   -0.66 KCAL/MOL
REMARK 927      BINDING AFFINITY PREDICTED BY RF-SCORE:    0.00 PKD
ROOT
HETATM    1  C   UNL     1      -8.780   8.707  70.148  1.00  0.00    -0.143 C  
HETATM    2  S   UNL     1      -9.044   8.313  71.891  1.00  0.00    -0.217 SA 
HETATM    3  CG2 UNL     1      -8.459   6.616  71.712  1.00  0.00    -0.119 C  
HETATM    4  CB  UNL     1      -9.049   5.850  70.531  1.00  0.00    -0.158 C  
HETATM    5  CA  UNL     1      -9.650   9.881  69.598  1.00  0.00    -0.227 C  
HETATM    6  CA  UNL     1      -9.574   6.449  69.420  1.00  0.00    -0.142 C  
HETATM    7  N   UNL     1      -9.581   7.817  69.328  1.00  0.00    -0.159 N  
HETATM    8  O   UNL     1     -11.032   8.693  67.748  1.00  0.00    -0.079 OA 
HETATM    9  C   UNL     1     -10.125   5.607  68.282  1.00  0.00    -0.169 C  
HETATM   10  C   UNL     1     -10.214   8.783  68.633  1.00  0.00    -0.194 C  
HETATM   11  O   UNL     1     -11.015   6.185  67.455  1.00  0.00    -0.321 OA 
HETATM   12  OXT UNL     1      -9.786   4.449  68.076  1.00  0.00    -0.160 OA 
ENDROOT
BRANCH   4  13
HETATM   13  CG1 UNL     1      -9.078   4.401  70.772  1.00  0.00    -0.182 C  
HETATM   14  CD1 UNL     1      -9.657   3.780  71.809  1.00  0.00    -0.226 C  
ENDBRANCH   4  13
BRANCH   5  15
HETATM   15  N   UNL     1     -10.655  10.444  70.534  1.00  0.00    -0.404 N  
HETATM   16  H   UNL     1     -10.500  10.328  71.535  1.00  0.00     0.000 HD 
HETATM   17  C   UNL     1     -11.781  11.112  70.125  1.00  0.00    -0.353 C  
HETATM   18  O   UNL     1     -12.071  11.301  68.952  1.00  0.00    -0.455 OA 
BRANCH  17  19
HETATM   19  C   UNL     1     -12.715  11.581  71.252  1.00  0.00    -0.364 C  
BRANCH  19  20
HETATM   20  N   UNL     1     -13.383  10.772  72.035  1.00  0.00    -0.524 NA 
HETATM   21  H   UNL     1     -13.901   8.855  72.179  1.00  0.00     0.000 HD 
HETATM   22  O   UNL     1     -13.416   9.442  71.610  1.00  0.00    -0.373 OA 
HETATM   23  H   UNL     1     -13.844  11.089  72.889  1.00  0.00     0.000 HD 
ENDBRANCH  19  20
BRANCH  19  24
HETATM   24  C   UNL     1     -12.923  13.014  71.469  1.00  0.00    -0.305 A  
HETATM   25  S   UNL     1     -13.844  15.266  72.233  1.00  0.00    -0.568 SA 
HETATM   26  C   UNL     1     -13.961  13.557  72.207  1.00  0.00    -0.539 A  
HETATM   27  C   UNL     1     -12.426  15.175  71.273  1.00  0.00    -0.344 A  
HETATM   28  N   UNL     1     -12.045  13.966  70.949  1.00  0.00    -0.339 NA 
HETATM   29  N   UNL     1     -11.778  16.280  70.877  1.00  0.00    -0.571 NA 
HETATM   30  H1  UNL     1     -10.934  16.226  70.305  1.00  0.00     0.000 HD 
HETATM   31  H2  UNL     1     -12.136  17.194  71.154  1.00  0.00     0.000 HD 
ENDBRANCH  19  24
ENDBRANCH  17  19
ENDBRANCH   5  15
TORSDOF 5
ENDMDL
MODEL       46
REMARK 921   NORMALIZED FREE ENERGY PREDICTED BY IDOCK:   -5.75 KCAL/MOL
REMARK 922        TOTAL FREE ENERGY PREDICTED BY IDOCK:   -8.29 KCAL/MOL
REMARK 923 INTER-LIGAND FREE ENERGY PREDICTED BY IDOCK:   -7.42 KCAL/MOL
REMARK 924 INTRA-LIGAND FREE ENERGY PREDICTED BY IDOCK:   -0.87 KCAL/MOL
REMARK 927      BINDING AFFINITY PREDICTED BY RF-SCORE:    0.00 PKD
ROOT
HETATM    1  C   UNL     1     -10.964  10.131  69.047  1.00  0.00    -0.226 C  
HETATM    2  S   UNL     1      -9.204  10.513  69.172  1.00  0.00    -0.137 SA 
HETATM    3  CG2 UNL     1      -8.757   8.831  69.648  1.00  0.00    -0.136 C  
HETATM    4  CB  UNL     1      -9.613   8.226  70.757  1.00  0.00    -0.196 C  
HETATM    5  CA  UNL     1     -11.919  11.355  69.217  1.00  0.00    -0.332 C  
HETATM    6  CA  UNL     1     -10.880   8.644  71.057  1.00  0.00    -0.247 C  
HETATM    7  N   UNL     1     -11.446   9.661  70.333  1.00  0.00    -0.265 N  
HETATM    8  O   UNL     1     -13.279  10.676  71.323  1.00  0.00    -0.351 OA 
HETATM    9  C   UNL     1     -11.667   7.971  72.168  1.00  0.00    -0.344 C  
HETATM   10  C   UNL     1     -12.456  10.547  70.447  1.00  0.00    -0.310 C  
HETATM   11  O   UNL     1     -12.673   8.667  72.727  1.00  0.00    -0.319 OA 
HETATM   12  OXT UNL     1     -11.443   6.831  72.557  1.00  0.00    -0.267 OA 
ENDROOT
BRANCH   4  13
HETATM   13  CG1 UNL     1      -8.880   7.212  71.529  1.00  0.00    -0.127 C  
HETATM   14  CD1 UNL     1      -7.797   7.423  72.290  1.00  0.00    -0.104 C  
ENDBRANCH   4  13
BRANCH   5  15
HETATM   15  N   UNL     1     -11.273  12.644  69.569  1.00  0.00    -0.465 N  
HETATM   16  H   UNL     1     -10.616  12.656  70.349  1.00  0.00     0.000 HD 
HETATM   17  C   UNL     1     -11.512  13.818  68.903  1.00  0.00    -0.304 C  
HETATM   18  O   UNL     1     -12.285  13.920  67.961  1.00  0.00    -0.326 OA 
BRANCH  17  19
HETATM   19  C   UNL     1     -10.773  15.049  69.451  1.00  0.00    -0.261 C  
BRANCH  19  20
HETATM   20  N   UNL     1     -10.560  15.271  70.724  1.00  0.00    -0.499 NA 
HETATM   21  H   UNL     1     -11.519  15.238  72.468  1.00  0.00     0.000 HD 
HETATM   22  O   UNL     1     -11.674  15.077  71.544  1.00  0.00    -0.336 OA 
HETATM   23  H   UNL     1      -9.653  15.563  71.087  1.00  0.00     0.000 HD 
ENDBRANCH  19  20
BRANCH  19  24
HETATM   24  C   UNL     1     -10.294  16.077  68.524  1.00  0.00    -0.241 A  
HETATM   25  S   UNL     1      -9.084  17.310  66.649  1.00  0.00    -0.275 SA 
HETATM   26  C   UNL     1      -9.366  15.862  67.519  1.00  0.00    -0.217 A  
HETATM   27  C   UNL     1     -10.211  18.124  67.654  1.00  0.00    -0.374 A  
HETATM   28  N   UNL     1     -10.775  17.387  68.575  1.00  0.00    -0.324 NA 
HETATM   29  N   UNL     1     -10.469  19.431  67.499  1.00  0.00    -0.434 NA 
HETATM   30  H1  UNL     1     -11.139  19.915  68.097  1.00  0.00     0.000 HD 
HETATM   31  H2  UNL     1      -9.984  19.952  66.768  1.00  0.00     0.000 HD 
ENDBRANCH  19  24
ENDBRANCH  17  19
ENDBRANCH   5  15
TORSDOF 5
ENDMDL
MODEL       47
REMARK 921   NORMALIZED FREE ENERGY PREDICTED BY IDOCK:   -5.74 KCAL/MOL
REMARK 922        TOTAL FREE ENERGY PREDICTED BY IDOCK:   -8.28 KCAL/MOL
REMARK 923 INTER-LIGAND FREE ENERGY PREDICTED BY IDOCK:   -7.35 KCAL/MOL
REMARK 924 INTRA-LIGAND FREE ENERGY PREDICTED BY IDOCK:   -0.93 KCAL/MOL
REMARK 927      BINDING AFFINITY PREDICTED BY RF-SCORE:    0.00 PKD
ROOT
HETATM    1  C   UNL     1     -12.532  11.395  70.034  1.00  0.00    -0.154 C  
HETATM    2  S   UNL     1     -12.793  11.391  71.822  1.00  0.00    -0.245 SA 
HETATM    3  CG2 UNL     1     -13.645  12.982  71.813  1.00  0.00    -0.214 C  
HETATM    4  CB  UNL     1     -12.946  14.084  71.022  1.00  0.00    -0.378 C  
HETATM    5  CA  UNL     1     -11.335  10.522  69.541  1.00  0.00    -0.278 C  
HETATM    6  CA  UNL     1     -12.052  13.850  70.015  1.00  0.00    -0.345 C  
HETATM    7  N   UNL     1     -11.748  12.559  69.667  1.00  0.00    -0.311 N  
HETATM    8  O   UNL     1      -9.804  12.303  68.431  1.00  0.00    -0.213 OA 
HETATM    9  C   UNL     1     -11.417  15.010  69.268  1.00  0.00    -0.307 C  
HETATM   10  C   UNL     1     -10.781  11.888  69.009  1.00  0.00    -0.156 C  
HETATM   11  O   UNL     1     -10.252  14.779  68.635  1.00  0.00    -0.223 OA 
HETATM   12  OXT UNL     1     -11.920  16.124  69.201  1.00  0.00    -0.281 OA 
ENDROOT
BRANCH   4  13
HETATM   13  CG1 UNL     1     -13.270  15.422  71.537  1.00  0.00    -0.572 C  
HETATM   14  CD1 UNL     1     -13.655  15.721  72.786  1.00  0.00    -0.662 C  
ENDBRANCH   4  13
BRANCH   5  15
HETATM   15  N   UNL     1     -10.501   9.897  70.598  1.00  0.00    -0.349 N  
HETATM   16  H   UNL     1     -10.831   9.945  71.563  1.00  0.00     0.000 HD 
HETATM   17  C   UNL     1      -9.313   9.260  70.350  1.00  0.00    -0.250 C  
HETATM   18  O   UNL     1      -8.821   9.151  69.236  1.00  0.00    -0.137 OA 
BRANCH  17  19
HETATM   19  C   UNL     1      -8.584   8.716  71.588  1.00  0.00    -0.189 C  
BRANCH  19  20
HETATM   20  N   UNL     1      -7.350   9.016  71.904  1.00  0.00    -0.332 NA 
HETATM   21  H   UNL     1      -5.482   8.482  71.468  1.00  0.00     0.000 HD 
HETATM   22  O   UNL     1      -6.378   8.264  71.239  1.00  0.00    -0.034 OA 
HETATM   23  H   UNL     1      -7.116   9.741  72.583  1.00  0.00     0.000 HD 
ENDBRANCH  19  20
BRANCH  19  24
HETATM   24  C   UNL     1      -9.270   7.773  72.475  1.00  0.00    -0.171 A  
HETATM   25  S   UNL     1      -9.931   6.324  74.466  1.00  0.00    -0.338 SA 
HETATM   26  C   UNL     1      -8.854   7.451  73.756  1.00  0.00    -0.215 A  
HETATM   27  C   UNL     1     -10.878   6.341  73.037  1.00  0.00    -0.259 A  
HETATM   28  N   UNL     1     -10.445   7.128  72.087  1.00  0.00    -0.203 NA 
HETATM   29  N   UNL     1     -11.974   5.577  72.916  1.00  0.00    -0.530 NA 
HETATM   30  H1  UNL     1     -12.537   5.587  72.065  1.00  0.00     0.000 HD 
HETATM   31  H2  UNL     1     -12.250   4.975  73.690  1.00  0.00     0.000 HD 
ENDBRANCH  19  24
ENDBRANCH  17  19
ENDBRANCH   5  15
TORSDOF 5
ENDMDL
MODEL       48
REMARK 921   NORMALIZED FREE ENERGY PREDICTED BY IDOCK:   -5.73 KCAL/MOL
REMARK 922        TOTAL FREE ENERGY PREDICTED BY IDOCK:   -8.27 KCAL/MOL
REMARK 923 INTER-LIGAND FREE ENERGY PREDICTED BY IDOCK:   -7.51 KCAL/MOL
REMARK 924 INTRA-LIGAND FREE ENERGY PREDICTED BY IDOCK:   -0.76 KCAL/MOL
REMARK 927      BINDING AFFINITY PREDICTED BY RF-SCORE:    0.00 PKD
ROOT
HETATM    1  C   UNL     1     -10.851   6.711  72.080  1.00  0.00    -0.233 C  
HETATM    2  S   UNL     1     -11.191   6.504  70.318  1.00  0.00    -0.401 SA 
HETATM    3  CG2 UNL     1     -10.253   4.967  70.203  1.00  0.00    -0.240 C  
HETATM    4  CB  UNL     1      -8.866   5.007  70.839  1.00  0.00    -0.156 C  
HETATM    5  CA  UNL     1     -10.942   8.180  72.602  1.00  0.00    -0.370 C  
HETATM    6  CA  UNL     1      -8.502   5.888  71.819  1.00  0.00    -0.131 C  
HETATM    7  N   UNL     1      -9.416   6.798  72.284  1.00  0.00    -0.143 N  
HETATM    8  O   UNL     1      -8.519   8.594  73.442  1.00  0.00    -0.385 OA 
HETATM    9  C   UNL     1      -7.103   5.845  72.408  1.00  0.00    -0.085 C  
HETATM   10  C   UNL     1      -9.432   7.965  72.959  1.00  0.00    -0.271 C  
HETATM   11  O   UNL     1      -6.644   6.962  73.003  1.00  0.00    -0.062 OA 
HETATM   12  OXT UNL     1      -6.392   4.849  72.384  1.00  0.00    -0.028 OA 
ENDROOT
BRANCH   4  13
HETATM   13  CG1 UNL     1      -7.940   4.059  70.203  1.00  0.00    -0.051 C  
HETATM   14  CD1 UNL     1      -8.236   2.821  69.783  1.00  0.00    -0.064 C  
ENDBRANCH   4  13
BRANCH   5  15
HETATM   15  N   UNL     1     -11.182   9.224  71.575  1.00  0.00    -0.364 N  
HETATM   16  H   UNL     1     -10.419   9.461  70.940  1.00  0.00     0.000 HD 
HETATM   17  C   UNL     1     -12.373   9.888  71.432  1.00  0.00    -0.404 C  
HETATM   18  O   UNL     1     -13.350   9.690  72.140  1.00  0.00    -0.427 OA 
BRANCH  17  19
HETATM   19  C   UNL     1     -12.402  10.962  70.334  1.00  0.00    -0.351 C  
BRANCH  19  20
HETATM   20  N   UNL     1     -12.296  10.707  69.054  1.00  0.00    -0.779 NA 
HETATM   21  H   UNL     1     -11.033   9.882  67.755  1.00  0.00     0.000 HD 
HETATM   22  O   UNL     1     -11.110  10.067  68.684  1.00  0.00    -0.228 OA 
HETATM   23  H   UNL     1     -13.020  10.957  68.381  1.00  0.00     0.000 HD 
ENDBRANCH  19  20
BRANCH  19  24
HETATM   24  C   UNL     1     -12.519  12.374  70.706  1.00  0.00    -0.267 A  
HETATM   25  S   UNL     1     -12.446  14.923  70.695  1.00  0.00    -0.378 SA 
HETATM   26  C   UNL     1     -12.132  13.435  69.905  1.00  0.00    -0.322 A  
HETATM   27  C   UNL     1     -13.078  14.066  72.039  1.00  0.00    -0.401 A  
HETATM   28  N   UNL     1     -13.072  12.763  71.927  1.00  0.00    -0.399 NA 
HETATM   29  N   UNL     1     -13.527  14.708  73.128  1.00  0.00    -0.570 NA 
HETATM   30  H1  UNL     1     -13.903  14.198  73.928  1.00  0.00     0.000 HD 
HETATM   31  H2  UNL     1     -13.491  15.727  73.157  1.00  0.00     0.000 HD 
ENDBRANCH  19  24
ENDBRANCH  17  19
ENDBRANCH   5  15
TORSDOF 5
ENDMDL
MODEL       49
REMARK 921   NORMALIZED FREE ENERGY PREDICTED BY IDOCK:   -5.73 KCAL/MOL
REMARK 922        TOTAL FREE ENERGY PREDICTED BY IDOCK:   -8.27 KCAL/MOL
REMARK 923 INTER-LIGAND FREE ENERGY PREDICTED BY IDOCK:   -7.41 KCAL/MOL
REMARK 924 INTRA-LIGAND FREE ENERGY PREDICTED BY IDOCK:   -0.86 KCAL/MOL
REMARK 927      BINDING AFFINITY PREDICTED BY RF-SCORE:    0.00 PKD
ROOT
HETATM    1  C   UNL     1     -11.616  14.487  67.665  1.00  0.00    -0.378 C  
HETATM    2  S   UNL     1      -9.903  14.064  67.278  1.00  0.00    -0.247 SA 
HETATM    3  CG2 UNL     1     -10.162  12.298  67.541  1.00  0.00    -0.204 C  
HETATM    4  CB  UNL     1     -10.894  11.938  68.831  1.00  0.00    -0.261 C  
HETATM    5  CA  UNL     1     -11.840  15.953  68.153  1.00  0.00     0.006 C  
HETATM    6  CA  UNL     1     -11.716  12.796  69.506  1.00  0.00    -0.318 C  
HETATM    7  N   UNL     1     -11.921  14.061  69.019  1.00  0.00    -0.350 N  
HETATM    8  O   UNL     1     -12.789  15.577  70.542  1.00  0.00    -0.443 OA 
HETATM    9  C   UNL     1     -12.419  12.346  70.775  1.00  0.00    -0.267 C  
HETATM   10  C   UNL     1     -12.359  15.258  69.458  1.00  0.00    -0.175 C  
HETATM   11  O   UNL     1     -12.828  13.300  71.632  1.00  0.00    -0.345 OA 
HETATM   12  OXT UNL     1     -12.645  11.172  71.040  1.00  0.00    -0.365 OA 
ENDROOT
BRANCH   4  13
HETATM   13  CG1 UNL     1     -10.531  10.598  69.315  1.00  0.00    -0.252 C  
HETATM   14  CD1 UNL     1      -9.291  10.148  69.554  1.00  0.00    -0.230 C  
ENDBRANCH   4  13
BRANCH   5  15
HETATM   15  N   UNL     1     -10.617  16.772  68.345  1.00  0.00    -0.336 N  
HETATM   16  H   UNL     1     -10.040  16.592  69.167  1.00  0.00     0.000 HD 
HETATM   17  C   UNL     1     -10.220  17.758  67.479  1.00  0.00    -0.356 C  
HETATM   18  O   UNL     1     -10.838  18.063  66.468  1.00  0.00    -0.197 OA 
BRANCH  17  19
HETATM   19  C   UNL     1      -8.946  18.516  67.880  1.00  0.00    -0.284 C  
BRANCH  19  20
HETATM   20  N   UNL     1      -8.868  19.332  68.901  1.00  0.00    -0.339 NA 
HETATM   21  H   UNL     1     -10.044  20.339  70.152  1.00  0.00     0.000 HD 
HETATM   22  O   UNL     1     -10.101  19.747  69.411  1.00  0.00    -0.387 OA 
HETATM   23  H   UNL     1      -7.978  19.641  69.293  1.00  0.00     0.000 HD 
ENDBRANCH  19  20
BRANCH  19  24
HETATM   24  C   UNL     1      -7.732  18.370  67.073  1.00  0.00    -0.222 A  
HETATM   25  S   UNL     1      -5.396  17.759  66.254  1.00  0.00    -0.209 SA 
HETATM   26  C   UNL     1      -6.579  17.727  67.492  1.00  0.00    -0.164 A  
HETATM   27  C   UNL     1      -6.487  18.615  65.245  1.00  0.00    -0.236 A  
HETATM   28  N   UNL     1      -7.658  18.864  65.770  1.00  0.00    -0.483 NA 
HETATM   29  N   UNL     1      -6.136  19.008  64.011  1.00  0.00    -0.368 NA 
HETATM   30  H1  UNL     1      -6.785  19.517  63.411  1.00  0.00     0.000 HD 
HETATM   31  H2  UNL     1      -5.201  18.792  63.666  1.00  0.00     0.000 HD 
ENDBRANCH  19  24
ENDBRANCH  17  19
ENDBRANCH   5  15
TORSDOF 5
ENDMDL
MODEL       50
REMARK 921   NORMALIZED FREE ENERGY PREDICTED BY IDOCK:   -5.67 KCAL/MOL
REMARK 922        TOTAL FREE ENERGY PREDICTED BY IDOCK:   -8.19 KCAL/MOL
REMARK 923 INTER-LIGAND FREE ENERGY PREDICTED BY IDOCK:   -7.23 KCAL/MOL
REMARK 924 INTRA-LIGAND FREE ENERGY PREDICTED BY IDOCK:   -0.95 KCAL/MOL
REMARK 927      BINDING AFFINITY PREDICTED BY RF-SCORE:    0.00 PKD
ROOT
HETATM    1  C   UNL     1     -10.395  15.303  68.502  1.00  0.00    -0.231 C  
HETATM    2  S   UNL     1      -8.637  15.126  68.875  1.00  0.00    -0.212 SA 
HETATM    3  CG2 UNL     1      -8.322  16.900  68.779  1.00  0.00    -0.240 C  
HETATM    4  CB  UNL     1      -8.901  17.592  67.548  1.00  0.00    -0.229 C  
HETATM    5  CA  UNL     1     -11.071  14.035  67.891  1.00  0.00    -0.255 C  
HETATM    6  CA  UNL     1      -9.952  17.105  66.823  1.00  0.00    -0.291 C  
HETATM    7  N   UNL     1     -10.548  15.929  67.201  1.00  0.00    -0.315 N  
HETATM    8  O   UNL     1     -11.850  14.915  65.575  1.00  0.00    -0.279 OA 
HETATM    9  C   UNL     1     -10.475  17.870  65.620  1.00  0.00    -0.104 C  
HETATM   10  C   UNL     1     -11.342  14.978  66.670  1.00  0.00    -0.289 C  
HETATM   11  O   UNL     1     -11.164  17.179  64.694  1.00  0.00    -1.003 OA 
HETATM   12  OXT UNL     1     -10.317  19.075  65.468  1.00  0.00    -0.485 OA 
ENDROOT
BRANCH   4  13
HETATM   13  CG1 UNL     1      -8.132  18.788  67.175  1.00  0.00    -0.259 C  
HETATM   14  CD1 UNL     1      -7.379  19.536  67.995  1.00  0.00    -0.317 C  
ENDBRANCH   4  13
BRANCH   5  15
HETATM   15  N   UNL     1     -10.171  12.894  67.592  1.00  0.00    -0.217 N  
HETATM   16  H   UNL     1      -9.164  13.047  67.649  1.00  0.00     0.000 HD 
HETATM   17  C   UNL     1     -10.618  11.646  67.244  1.00  0.00    -0.228 C  
HETATM   18  O   UNL     1     -11.801  11.353  67.138  1.00  0.00    -0.566 OA 
BRANCH  17  19
HETATM   19  C   UNL     1      -9.522  10.614  66.935  1.00  0.00    -0.165 C  
BRANCH  19  20
HETATM   20  N   UNL     1      -8.750  10.069  67.841  1.00  0.00    -0.125 NA 
HETATM   21  H   UNL     1      -8.257  10.272  69.759  1.00  0.00     0.000 HD 
HETATM   22  O   UNL     1      -8.818  10.668  69.101  1.00  0.00    -0.164 OA 
HETATM   23  H   UNL     1      -8.146   9.272  67.642  1.00  0.00     0.000 HD 
ENDBRANCH  19  20
BRANCH  19  24
HETATM   24  C   UNL     1      -9.273  10.218  65.546  1.00  0.00    -0.190 A  
HETATM   25  S   UNL     1      -9.081  10.195  63.004  1.00  0.00    -0.300 SA 
HETATM   26  C   UNL     1      -9.518  11.017  64.442  1.00  0.00    -0.238 A  
HETATM   27  C   UNL     1      -8.593   8.840  63.936  1.00  0.00    -0.043 A  
HETATM   28  N   UNL     1      -8.730   8.972  65.230  1.00  0.00    -0.184 NA 
HETATM   29  N   UNL     1      -8.122   7.727  63.356  1.00  0.00    -0.307 NA 
HETATM   30  H1  UNL     1      -7.832   6.921  63.910  1.00  0.00     0.000 HD 
HETATM   31  H2  UNL     1      -8.052   7.685  62.340  1.00  0.00     0.000 HD 
ENDBRANCH  19  24
ENDBRANCH  17  19
ENDBRANCH   5  15
TORSDOF 5
ENDMDL
MODEL       51
REMARK 921   NORMALIZED FREE ENERGY PREDICTED BY IDOCK:   -5.65 KCAL/MOL
REMARK 922        TOTAL FREE ENERGY PREDICTED BY IDOCK:   -8.16 KCAL/MOL
REMARK 923 INTER-LIGAND FREE ENERGY PREDICTED BY IDOCK:   -7.27 KCAL/MOL
REMARK 924 INTRA-LIGAND FREE ENERGY PREDICTED BY IDOCK:   -0.89 KCAL/MOL
REMARK 927      BINDING AFFINITY PREDICTED BY RF-SCORE:    0.00 PKD
ROOT
HETATM    1  C   UNL     1     -11.747   6.422  70.305  1.00  0.00    -0.320 C  
HETATM    2  S   UNL     1     -10.417   6.128  69.119  1.00  0.00    -0.285 SA 
HETATM    3  CG2 UNL     1      -9.993   4.521  69.822  1.00  0.00    -0.198 C  
HETATM    4  CB  UNL     1      -9.847   4.499  71.341  1.00  0.00    -0.264 C  
HETATM    5  CA  UNL     1     -12.105   7.924  70.535  1.00  0.00     0.121 C  
HETATM    6  CA  UNL     1     -10.429   5.411  72.176  1.00  0.00    -0.218 C  
HETATM    7  N   UNL     1     -11.201   6.415  71.649  1.00  0.00    -0.266 N  
HETATM    8  O   UNL     1     -11.585   8.210  73.064  1.00  0.00    -0.309 OA 
HETATM    9  C   UNL     1     -10.244   5.302  73.680  1.00  0.00    -0.210 C  
HETATM   10  C   UNL     1     -11.682   7.621  72.013  1.00  0.00    -0.298 C  
HETATM   11  O   UNL     1     -10.424   6.418  74.411  1.00  0.00    -0.304 OA 
HETATM   12  OXT UNL     1      -9.962   4.256  74.250  1.00  0.00    -0.132 OA 
ENDROOT
BRANCH   4  13
HETATM   13  CG1 UNL     1      -8.927   3.445  71.791  1.00  0.00    -0.155 C  
HETATM   14  CD1 UNL     1      -9.106   2.123  71.656  1.00  0.00    -0.149 C  
ENDBRANCH   4  13
BRANCH   5  15
HETATM   15  N   UNL     1     -11.242   8.915  69.846  1.00  0.00    -0.425 N  
HETATM   16  H   UNL     1     -10.395   8.580  69.387  1.00  0.00     0.000 HD 
HETATM   17  C   UNL     1     -11.522  10.257  69.792  1.00  0.00    -0.256 C  
HETATM   18  O   UNL     1     -12.504  10.768  70.312  1.00  0.00    -0.321 OA 
BRANCH  17  19
HETATM   19  C   UNL     1     -10.479  11.119  69.064  1.00  0.00    -0.206 C  
BRANCH  19  20
HETATM   20  N   UNL     1      -9.187  11.029  69.257  1.00  0.00    -0.403 NA 
HETATM   21  H   UNL     1      -7.614   9.976  68.640  1.00  0.00     0.000 HD 
HETATM   22  O   UNL     1      -8.552  10.042  68.499  1.00  0.00    -0.113 OA 
HETATM   23  H   UNL     1      -8.685  11.631  69.909  1.00  0.00     0.000 HD 
ENDBRANCH  19  20
BRANCH  19  24
HETATM   24  C   UNL     1     -10.923  12.141  68.113  1.00  0.00    -0.230 A  
HETATM   25  S   UNL     1     -11.301  14.345  66.888  1.00  0.00    -0.360 SA 
HETATM   26  C   UNL     1     -10.602  13.486  68.194  1.00  0.00    -0.245 A  
HETATM   27  C   UNL     1     -11.978  12.883  66.299  1.00  0.00    -0.408 A  
HETATM   28  N   UNL     1     -11.709  11.816  67.006  1.00  0.00    -0.594 NA 
HETATM   29  N   UNL     1     -12.742  12.861  65.197  1.00  0.00    -0.722 NA 
HETATM   30  H1  UNL     1     -13.144  11.991  64.847  1.00  0.00     0.000 HD 
HETATM   31  H2  UNL     1     -12.924  13.731  64.698  1.00  0.00     0.000 HD 
ENDBRANCH  19  24
ENDBRANCH  17  19
ENDBRANCH   5  15
TORSDOF 5
ENDMDL
MODEL       52
REMARK 921   NORMALIZED FREE ENERGY PREDICTED BY IDOCK:   -5.63 KCAL/MOL
REMARK 922        TOTAL FREE ENERGY PREDICTED BY IDOCK:   -8.14 KCAL/MOL
REMARK 923 INTER-LIGAND FREE ENERGY PREDICTED BY IDOCK:   -7.55 KCAL/MOL
REMARK 924 INTRA-LIGAND FREE ENERGY PREDICTED BY IDOCK:   -0.59 KCAL/MOL
REMARK 927      BINDING AFFINITY PREDICTED BY RF-SCORE:    0.00 PKD
ROOT
HETATM    1  C   UNL     1      -9.045   8.715  69.731  1.00  0.00    -0.150 C  
HETATM    2  S   UNL     1      -7.657   9.807  70.110  1.00  0.00    -0.175 SA 
HETATM    3  CG2 UNL     1      -7.034   8.741  71.426  1.00  0.00    -0.089 C  
HETATM    4  CB  UNL     1      -8.085   8.265  72.425  1.00  0.00    -0.204 C  
HETATM    5  CA  UNL     1     -10.263   9.411  69.044  1.00  0.00    -0.205 C  
HETATM    6  CA  UNL     1      -9.423   8.200  72.149  1.00  0.00    -0.225 C  
HETATM    7  N   UNL     1      -9.878   8.570  70.910  1.00  0.00    -0.180 N  
HETATM    8  O   UNL     1     -12.149   9.014  70.785  1.00  0.00    -0.242 OA 
HETATM    9  C   UNL     1     -10.398   7.696  73.199  1.00  0.00    -0.352 C  
HETATM   10  C   UNL     1     -11.034   8.939  70.324  1.00  0.00    -0.241 C  
HETATM   11  O   UNL     1     -11.687   8.063  73.078  1.00  0.00    -0.309 OA 
HETATM   12  OXT UNL     1     -10.072   6.965  74.126  1.00  0.00    -0.331 OA 
ENDROOT
BRANCH   4  13
HETATM   13  CG1 UNL     1      -7.505   7.984  73.745  1.00  0.00    -0.203 C  
HETATM   14  CD1 UNL     1      -6.355   8.475  74.228  1.00  0.00    -0.151 C  
ENDBRANCH   4  13
BRANCH   5  15
HETATM   15  N   UNL     1     -10.175  10.885  68.895  1.00  0.00    -0.192 N  
HETATM   16  H   UNL     1      -9.300  11.344  69.148  1.00  0.00     0.000 HD 
HETATM   17  C   UNL     1     -11.205  11.663  68.434  1.00  0.00    -0.249 C  
HETATM   18  O   UNL     1     -12.299  11.221  68.110  1.00  0.00    -0.500 OA 
BRANCH  17  19
HETATM   19  C   UNL     1     -10.924  13.173  68.393  1.00  0.00    -0.262 C  
BRANCH  19  20
HETATM   20  N   UNL     1     -10.732  13.913  69.456  1.00  0.00    -0.450 NA 
HETATM   21  H   UNL     1     -11.557  15.441  70.431  1.00  0.00     0.000 HD 
HETATM   22  O   UNL     1     -11.697  14.903  69.660  1.00  0.00    -0.284 OA 
HETATM   23  H   UNL     1      -9.940  13.779  70.085  1.00  0.00     0.000 HD 
ENDBRANCH  19  20
BRANCH  19  24
HETATM   24  C   UNL     1     -10.898  13.869  67.104  1.00  0.00    -0.284 A  
HETATM   25  S   UNL     1     -10.219  15.313  65.116  1.00  0.00    -0.285 SA 
HETATM   26  C   UNL     1      -9.881  14.710  66.684  1.00  0.00    -0.269 A  
HETATM   27  C   UNL     1     -11.682  14.419  65.096  1.00  0.00    -0.372 A  
HETATM   28  N   UNL     1     -11.920  13.709  66.168  1.00  0.00    -0.391 NA 
HETATM   29  N   UNL     1     -12.519  14.473  64.049  1.00  0.00    -0.959 NA 
HETATM   30  H1  UNL     1     -13.389  13.941  64.037  1.00  0.00     0.000 HD 
HETATM   31  H2  UNL     1     -12.280  15.058  63.249  1.00  0.00     0.000 HD 
ENDBRANCH  19  24
ENDBRANCH  17  19
ENDBRANCH   5  15
TORSDOF 5
ENDMDL
MODEL       53
REMARK 921   NORMALIZED FREE ENERGY PREDICTED BY IDOCK:   -5.60 KCAL/MOL
REMARK 922        TOTAL FREE ENERGY PREDICTED BY IDOCK:   -8.10 KCAL/MOL
REMARK 923 INTER-LIGAND FREE ENERGY PREDICTED BY IDOCK:   -6.98 KCAL/MOL
REMARK 924 INTRA-LIGAND FREE ENERGY PREDICTED BY IDOCK:   -1.11 KCAL/MOL
REMARK 927      BINDING AFFINITY PREDICTED BY RF-SCORE:    0.00 PKD
ROOT
HETATM    1  C   UNL     1     -10.921  13.336  67.872  1.00  0.00    -0.249 C  
HETATM    2  S   UNL     1     -11.621  14.580  66.765  1.00  0.00    -0.364 SA 
HETATM    3  CG2 UNL     1     -12.274  13.352  65.616  1.00  0.00    -0.463 C  
HETATM    4  CB  UNL     1     -11.289  12.259  65.210  1.00  0.00    -0.384 C  
HETATM    5  CA  UNL     1      -9.736  13.834  68.758  1.00  0.00    -0.065 C  
HETATM    6  CA  UNL     1     -10.200  11.900  65.954  1.00  0.00    -0.236 C  
HETATM    7  N   UNL     1      -9.953  12.537  67.143  1.00  0.00    -0.214 N  
HETATM    8  O   UNL     1      -7.799  12.296  67.964  1.00  0.00    -0.126 OA 
HETATM    9  C   UNL     1      -9.280  10.788  65.482  1.00  0.00    -0.202 C  
HETATM   10  C   UNL     1      -8.928  12.728  67.997  1.00  0.00    -0.196 C  
HETATM   11  O   UNL     1      -8.024  10.771  65.964  1.00  0.00    -0.156 OA 
HETATM   12  OXT UNL     1      -9.632   9.906  64.708  1.00  0.00    -0.289 OA 
ENDROOT
BRANCH   4  13
HETATM   13  CG1 UNL     1     -11.591  11.710  63.880  1.00  0.00    -0.403 C  
HETATM   14  CD1 UNL     1     -12.652  12.011  63.119  1.00  0.00    -0.352 C  
ENDBRANCH   4  13
BRANCH   5  15
HETATM   15  N   UNL     1      -9.264  15.218  68.501  1.00  0.00    -0.192 N  
HETATM   16  H   UNL     1      -9.751  15.770  67.795  1.00  0.00     0.000 HD 
HETATM   17  C   UNL     1      -8.210  15.794  69.162  1.00  0.00    -0.247 C  
HETATM   18  O   UNL     1      -7.551  15.223  70.020  1.00  0.00    -0.106 OA 
BRANCH  17  19
HETATM   19  C   UNL     1      -7.855  17.222  68.720  1.00  0.00    -0.254 C  
BRANCH  19  20
HETATM   20  N   UNL     1      -6.694  17.789  68.929  1.00  0.00    -0.228 NA 
HETATM   21  H   UNL     1      -4.862  17.865  68.153  1.00  0.00     0.000 HD 
HETATM   22  O   UNL     1      -5.705  17.454  68.001  1.00  0.00    -0.129 OA 
HETATM   23  H   UNL     1      -6.524  18.425  69.709  1.00  0.00     0.000 HD 
ENDBRANCH  19  20
BRANCH  19  24
HETATM   24  C   UNL     1      -8.866  18.044  68.050  1.00  0.00    -0.275 A  
HETATM   25  S   UNL     1     -10.497  19.909  67.445  1.00  0.00    -0.370 SA 
HETATM   26  C   UNL     1      -9.333  19.260  68.521  1.00  0.00    -0.388 A  
HETATM   27  C   UNL     1     -10.303  18.544  66.425  1.00  0.00    -0.423 A  
HETATM   28  N   UNL     1      -9.433  17.658  66.834  1.00  0.00    -0.267 NA 
HETATM   29  N   UNL     1     -11.017  18.406  65.298  1.00  0.00    -0.408 NA 
HETATM   30  H1  UNL     1     -10.902  17.594  64.691  1.00  0.00     0.000 HD 
HETATM   31  H2  UNL     1     -11.690  19.129  65.043  1.00  0.00     0.000 HD 
ENDBRANCH  19  24
ENDBRANCH  17  19
ENDBRANCH   5  15
TORSDOF 5
ENDMDL
MODEL       54
REMARK 921   NORMALIZED FREE ENERGY PREDICTED BY IDOCK:   -5.60 KCAL/MOL
REMARK 922        TOTAL FREE ENERGY PREDICTED BY IDOCK:   -8.10 KCAL/MOL
REMARK 923 INTER-LIGAND FREE ENERGY PREDICTED BY IDOCK:   -7.23 KCAL/MOL
REMARK 924 INTRA-LIGAND FREE ENERGY PREDICTED BY IDOCK:   -0.86 KCAL/MOL
REMARK 927      BINDING AFFINITY PREDICTED BY RF-SCORE:    0.00 PKD
ROOT
HETATM    1  C   UNL     1      -8.970  10.652  66.755  1.00  0.00    -0.138 C  
HETATM    2  S   UNL     1      -9.478   9.477  65.481  1.00  0.00    -0.262 SA 
HETATM    3  CG2 UNL     1      -9.820  10.768  64.268  1.00  0.00    -0.326 C  
HETATM    4  CB  UNL     1     -10.660  11.933  64.785  1.00  0.00    -0.346 C  
HETATM    5  CA  UNL     1      -9.102  10.133  68.222  1.00  0.00    -0.122 C  
HETATM    6  CA  UNL     1     -10.760  12.274  66.105  1.00  0.00    -0.261 C  
HETATM    7  N   UNL     1     -10.071  11.551  67.044  1.00  0.00    -0.206 N  
HETATM    8  O   UNL     1     -10.807  11.816  69.226  1.00  0.00    -0.215 OA 
HETATM    9  C   UNL     1     -11.606  13.462  66.528  1.00  0.00    -0.357 C  
HETATM   10  C   UNL     1     -10.098  11.333  68.375  1.00  0.00    -0.195 C  
HETATM   11  O   UNL     1     -12.043  13.493  67.800  1.00  0.00    -0.349 OA 
HETATM   12  OXT UNL     1     -11.888  14.390  65.780  1.00  0.00    -0.363 OA 
ENDROOT
BRANCH   4  13
HETATM   13  CG1 UNL     1     -11.428  12.578  63.710  1.00  0.00    -0.542 C  
HETATM   14  CD1 UNL     1     -12.599  12.161  63.209  1.00  0.00    -0.492 C  
ENDBRANCH   4  13
BRANCH   5  15
HETATM   15  N   UNL     1      -9.728   8.798  68.389  1.00  0.00    -0.158 N  
HETATM   16  H   UNL     1     -10.033   8.300  67.552  1.00  0.00     0.000 HD 
HETATM   17  C   UNL     1      -9.920   8.197  69.606  1.00  0.00    -0.193 C  
HETATM   18  O   UNL     1      -9.601   8.704  70.672  1.00  0.00    -0.168 OA 
BRANCH  17  19
HETATM   19  C   UNL     1     -10.623   6.831  69.565  1.00  0.00    -0.232 C  
BRANCH  19  20
HETATM   20  N   UNL     1     -11.422   6.446  68.602  1.00  0.00    -0.520 NA 
HETATM   21  H   UNL     1     -11.396   6.058  66.649  1.00  0.00     0.000 HD 
HETATM   22  O   UNL     1     -10.815   6.338  67.348  1.00  0.00    -0.289 OA 
HETATM   23  H   UNL     1     -12.410   6.241  68.755  1.00  0.00     0.000 HD 
ENDBRANCH  19  20
BRANCH  19  24
HETATM   24  C   UNL     1     -10.439   5.889  70.672  1.00  0.00    -0.253 A  
HETATM   25  S   UNL     1      -9.695   3.924  72.115  1.00  0.00    -0.167 SA 
HETATM   26  C   UNL     1      -9.660   4.746  70.613  1.00  0.00    -0.185 A  
HETATM   27  C   UNL     1     -10.733   5.136  72.745  1.00  0.00    -0.241 A  
HETATM   28  N   UNL     1     -11.039   6.098  71.914  1.00  0.00    -0.261 NA 
HETATM   29  N   UNL     1     -11.200   5.072  74.000  1.00  0.00    -0.390 NA 
HETATM   30  H1  UNL     1     -11.818   5.793  74.375  1.00  0.00     0.000 HD 
HETATM   31  H2  UNL     1     -10.933   4.286  74.593  1.00  0.00     0.000 HD 
ENDBRANCH  19  24
ENDBRANCH  17  19
ENDBRANCH   5  15
TORSDOF 5
ENDMDL
MODEL       55
REMARK 921   NORMALIZED FREE ENERGY PREDICTED BY IDOCK:   -5.58 KCAL/MOL
REMARK 922        TOTAL FREE ENERGY PREDICTED BY IDOCK:   -8.08 KCAL/MOL
REMARK 923 INTER-LIGAND FREE ENERGY PREDICTED BY IDOCK:   -7.02 KCAL/MOL
REMARK 924 INTRA-LIGAND FREE ENERGY PREDICTED BY IDOCK:   -1.05 KCAL/MOL
REMARK 927      BINDING AFFINITY PREDICTED BY RF-SCORE:    0.00 PKD
ROOT
HETATM    1  C   UNL     1      -8.132   9.511  67.082  1.00  0.00    -0.106 C  
HETATM    2  S   UNL     1      -7.379  11.134  66.834  1.00  0.00    -0.144 SA 
HETATM    3  CG2 UNL     1      -6.190  10.911  68.173  1.00  0.00    -0.049 C  
HETATM    4  CB  UNL     1      -6.782  10.400  69.484  1.00  0.00    -0.081 C  
HETATM    5  CA  UNL     1      -9.601   9.380  66.570  1.00  0.00    -0.208 C  
HETATM    6  CA  UNL     1      -7.956   9.705  69.570  1.00  0.00    -0.125 C  
HETATM    7  N   UNL     1      -8.665   9.430  68.430  1.00  0.00    -0.124 N  
HETATM    8  O   UNL     1     -10.880   8.835  68.764  1.00  0.00    -0.127 OA 
HETATM    9  C   UNL     1      -8.462   9.218  70.917  1.00  0.00    -0.149 C  
HETATM   10  C   UNL     1      -9.918   9.079  68.075  1.00  0.00    -0.176 C  
HETATM   11  O   UNL     1      -9.778   8.962  71.032  1.00  0.00    -0.206 OA 
HETATM   12  OXT UNL     1      -7.733   9.031  71.883  1.00  0.00    -0.340 OA 
ENDROOT
BRANCH   4  13
HETATM   13  CG1 UNL     1      -5.995  10.829  70.648  1.00  0.00    -0.094 C  
HETATM   14  CD1 UNL     1      -5.570  12.074  70.906  1.00  0.00    -0.080 C  
ENDBRANCH   4  13
BRANCH   5  15
HETATM   15  N   UNL     1     -10.227  10.623  66.053  1.00  0.00    -0.250 N  
HETATM   16  H   UNL     1     -10.623  11.279  66.726  1.00  0.00     0.000 HD 
HETATM   17  C   UNL     1     -10.301  10.938  64.721  1.00  0.00    -0.323 C  
HETATM   18  O   UNL     1      -9.866  10.222  63.829  1.00  0.00    -0.299 OA 
BRANCH  17  19
HETATM   19  C   UNL     1     -11.024  12.252  64.392  1.00  0.00    -0.329 C  
BRANCH  19  20
HETATM   20  N   UNL     1     -11.621  12.497  63.253  1.00  0.00    -0.700 NA 
HETATM   21  H   UNL     1     -13.404  12.312  62.385  1.00  0.00     0.000 HD 
HETATM   22  O   UNL     1     -12.970  12.134  63.212  1.00  0.00    -0.735 OA 
HETATM   23  H   UNL     1     -11.140  12.918  62.459  1.00  0.00     0.000 HD 
ENDBRANCH  19  20
BRANCH  19  24
HETATM   24  C   UNL     1     -11.038  13.336  65.378  1.00  0.00    -0.282 A  
HETATM   25  S   UNL     1     -10.626  15.532  66.607  1.00  0.00    -0.305 SA 
HETATM   26  C   UNL     1     -10.335  14.523  65.254  1.00  0.00    -0.410 A  
HETATM   27  C   UNL     1     -11.666  14.336  67.264  1.00  0.00    -0.395 A  
HETATM   28  N   UNL     1     -11.806  13.257  66.540  1.00  0.00    -0.380 NA 
HETATM   29  N   UNL     1     -12.270  14.510  68.449  1.00  0.00    -0.608 NA 
HETATM   30  H1  UNL     1     -12.889  13.799  68.840  1.00  0.00     0.000 HD 
HETATM   31  H2  UNL     1     -12.108  15.372  68.970  1.00  0.00     0.000 HD 
ENDBRANCH  19  24
ENDBRANCH  17  19
ENDBRANCH   5  15
TORSDOF 5
ENDMDL
MODEL       56
REMARK 921   NORMALIZED FREE ENERGY PREDICTED BY IDOCK:   -5.57 KCAL/MOL
REMARK 922        TOTAL FREE ENERGY PREDICTED BY IDOCK:   -8.06 KCAL/MOL
REMARK 923 INTER-LIGAND FREE ENERGY PREDICTED BY IDOCK:   -7.27 KCAL/MOL
REMARK 924 INTRA-LIGAND FREE ENERGY PREDICTED BY IDOCK:   -0.79 KCAL/MOL
REMARK 927      BINDING AFFINITY PREDICTED BY RF-SCORE:    0.00 PKD
ROOT
HETATM    1  C   UNL     1     -12.760  11.627  69.772  1.00  0.00     0.265 C  
HETATM    2  S   UNL     1     -12.896  10.994  71.458  1.00  0.00    -0.419 SA 
HETATM    3  CG2 UNL     1     -13.605  12.525  72.095  1.00  0.00    -0.360 C  
HETATM    4  CB  UNL     1     -12.870  13.798  71.684  1.00  0.00    -0.438 C  
HETATM    5  CA  UNL     1     -11.680  10.926  68.888  1.00  0.00    -0.306 C  
HETATM    6  CA  UNL     1     -12.072  13.893  70.578  1.00  0.00    -0.356 C  
HETATM    7  N   UNL     1     -11.905  12.800  69.768  1.00  0.00    -0.327 N  
HETATM    8  O   UNL     1     -10.081  12.899  68.341  1.00  0.00    -0.233 OA 
HETATM    9  C   UNL     1     -11.392  15.207  70.234  1.00  0.00    -0.283 C  
HETATM   10  C   UNL     1     -11.048  12.358  68.826  1.00  0.00    -0.262 C  
HETATM   11  O   UNL     1     -10.298  15.155  69.452  1.00  0.00    -0.236 OA 
HETATM   12  OXT UNL     1     -11.800  16.297  70.615  1.00  0.00    -0.283 OA 
ENDROOT
BRANCH   4  13
HETATM   13  CG1 UNL     1     -13.041  14.876  72.668  1.00  0.00    -0.520 C  
HETATM   14  CD1 UNL     1     -12.350  15.028  73.807  1.00  0.00    -0.654 C  
ENDBRANCH   4  13
BRANCH   5  15
HETATM   15  N   UNL     1     -10.832   9.916  69.571  1.00  0.00    -0.236 N  
HETATM   16  H   UNL     1     -10.559  10.091  70.538  1.00  0.00     0.000 HD 
HETATM   17  C   UNL     1     -10.397   8.762  68.973  1.00  0.00    -0.213 C  
HETATM   18  O   UNL     1     -10.658   8.455  67.817  1.00  0.00    -0.229 OA 
BRANCH  17  19
HETATM   19  C   UNL     1      -9.496   7.869  69.839  1.00  0.00    -0.160 C  
BRANCH  19  20
HETATM   20  N   UNL     1      -8.319   7.431  69.466  1.00  0.00    -0.131 NA 
HETATM   21  H   UNL     1      -6.577   8.109  68.783  1.00  0.00     0.000 HD 
HETATM   22  O   UNL     1      -7.431   8.427  69.054  1.00  0.00    -0.089 OA 
HETATM   23  H   UNL     1      -8.072   6.441  69.475  1.00  0.00     0.000 HD 
ENDBRANCH  19  20
BRANCH  19  24
HETATM   24  C   UNL     1      -9.963   7.430  71.156  1.00  0.00    -0.185 A  
HETATM   25  S   UNL     1     -10.338   7.195  73.667  1.00  0.00    -0.345 SA 
HETATM   26  C   UNL     1      -9.550   7.974  72.361  1.00  0.00    -0.232 A  
HETATM   27  C   UNL     1     -11.177   6.195  72.554  1.00  0.00    -0.287 A  
HETATM   28  N   UNL     1     -10.909   6.413  71.293  1.00  0.00    -0.247 NA 
HETATM   29  N   UNL     1     -12.031   5.249  72.972  1.00  0.00    -0.503 NA 
HETATM   30  H1  UNL     1     -12.530   4.654  72.310  1.00  0.00     0.000 HD 
HETATM   31  H2  UNL     1     -12.185   5.122  73.972  1.00  0.00     0.000 HD 
ENDBRANCH  19  24
ENDBRANCH  17  19
ENDBRANCH   5  15
TORSDOF 5
ENDMDL
MODEL       57
REMARK 921   NORMALIZED FREE ENERGY PREDICTED BY IDOCK:   -5.55 KCAL/MOL
REMARK 922        TOTAL FREE ENERGY PREDICTED BY IDOCK:   -8.03 KCAL/MOL
REMARK 923 INTER-LIGAND FREE ENERGY PREDICTED BY IDOCK:   -7.13 KCAL/MOL
REMARK 924 INTRA-LIGAND FREE ENERGY PREDICTED BY IDOCK:   -0.90 KCAL/MOL
REMARK 927      BINDING AFFINITY PREDICTED BY RF-SCORE:    0.00 PKD
ROOT
HETATM    1  C   UNL     1     -10.487   8.236  68.425  1.00  0.00    -0.162 C  
HETATM    2  S   UNL     1     -10.103   7.696  66.745  1.00  0.00    -0.230 SA 
HETATM    3  CG2 UNL     1      -9.536   6.068  67.278  1.00  0.00    -0.114 C  
HETATM    4  CB  UNL     1      -8.559   6.077  68.451  1.00  0.00    -0.111 C  
HETATM    5  CA  UNL     1     -10.485   9.783  68.637  1.00  0.00    -0.208 C  
HETATM    6  CA  UNL     1      -8.462   7.098  69.354  1.00  0.00    -0.134 C  
HETATM    7  N   UNL     1      -9.281   8.191  69.230  1.00  0.00    -0.151 N  
HETATM    8  O   UNL     1      -8.597  10.073  70.398  1.00  0.00    -0.070 OA 
HETATM    9  C   UNL     1      -7.472   7.015  70.503  1.00  0.00    -0.088 C  
HETATM   10  C   UNL     1      -9.336   9.470  69.655  1.00  0.00    -0.200 C  
HETATM   11  O   UNL     1      -7.083   8.170  71.074  1.00  0.00    -0.051 OA 
HETATM   12  OXT UNL     1      -7.033   5.958  70.939  1.00  0.00    -0.062 OA 
ENDROOT
BRANCH   4  13
HETATM   13  CG1 UNL     1      -7.668   4.908  68.435  1.00  0.00    -0.082 C  
HETATM   14  CD1 UNL     1      -8.000   3.661  68.072  1.00  0.00    -0.076 C  
ENDBRANCH   4  13
BRANCH   5  15
HETATM   15  N   UNL     1     -10.061  10.602  67.474  1.00  0.00    -0.178 N  
HETATM   16  H   UNL     1      -9.129  10.446  67.088  1.00  0.00     0.000 HD 
HETATM   17  C   UNL     1     -10.853  11.556  66.889  1.00  0.00    -0.284 C  
HETATM   18  O   UNL     1     -11.981  11.831  67.273  1.00  0.00    -0.618 OA 
BRANCH  17  19
HETATM   19  C   UNL     1     -10.212  12.322  65.721  1.00  0.00    -0.255 C  
BRANCH  19  20
HETATM   20  N   UNL     1      -9.519  11.756  64.765  1.00  0.00    -0.428 NA 
HETATM   21  H   UNL     1      -9.458  10.070  63.707  1.00  0.00     0.000 HD 
HETATM   22  O   UNL     1      -9.961  10.481  64.401  1.00  0.00    -0.321 OA 
HETATM   23  H   UNL     1      -8.721  12.210  64.321  1.00  0.00     0.000 HD 
ENDBRANCH  19  20
BRANCH  19  24
HETATM   24  C   UNL     1     -10.331  13.780  65.660  1.00  0.00    -0.311 A  
HETATM   25  S   UNL     1     -10.130  16.275  66.146  1.00  0.00    -0.362 SA 
HETATM   26  C   UNL     1      -9.776  14.656  66.578  1.00  0.00    -0.280 A  
HETATM   27  C   UNL     1     -10.988  15.712  64.772  1.00  0.00    -0.400 A  
HETATM   28  N   UNL     1     -11.016  14.413  64.622  1.00  0.00    -0.381 NA 
HETATM   29  N   UNL     1     -11.595  16.562  63.931  1.00  0.00    -1.578 NA 
HETATM   30  H1  UNL     1     -12.106  16.227  63.113  1.00  0.00     0.000 HD 
HETATM   31  H2  UNL     1     -11.546  17.564  64.113  1.00  0.00     0.000 HD 
ENDBRANCH  19  24
ENDBRANCH  17  19
ENDBRANCH   5  15
TORSDOF 5
ENDMDL
MODEL       58
REMARK 921   NORMALIZED FREE ENERGY PREDICTED BY IDOCK:   -5.54 KCAL/MOL
REMARK 922        TOTAL FREE ENERGY PREDICTED BY IDOCK:   -8.02 KCAL/MOL
REMARK 923 INTER-LIGAND FREE ENERGY PREDICTED BY IDOCK:   -7.25 KCAL/MOL
REMARK 924 INTRA-LIGAND FREE ENERGY PREDICTED BY IDOCK:   -0.78 KCAL/MOL
REMARK 927      BINDING AFFINITY PREDICTED BY RF-SCORE:    0.00 PKD
ROOT
HETATM    1  C   UNL     1     -11.105  10.466  66.248  1.00  0.00     0.285 C  
HETATM    2  S   UNL     1      -9.633  10.708  65.229  1.00  0.00    -0.264 SA 
HETATM    3  CG2 UNL     1      -8.924   9.111  65.676  1.00  0.00    -0.203 C  
HETATM    4  CB  UNL     1      -8.927   8.798  67.170  1.00  0.00    -0.146 C  
HETATM    5  CA  UNL     1     -11.819  11.780  66.699  1.00  0.00     0.050 C  
HETATM    6  CA  UNL     1      -9.781   9.374  68.068  1.00  0.00    -0.145 C  
HETATM    7  N   UNL     1     -10.706  10.287  67.632  1.00  0.00    -0.267 N  
HETATM    8  O   UNL     1     -11.628  11.625  69.285  1.00  0.00    -0.265 OA 
HETATM    9  C   UNL     1      -9.724   8.990  69.536  1.00  0.00    -0.170 C  
HETATM   10  C   UNL     1     -11.484  11.264  68.140  1.00  0.00    -0.306 C  
HETATM   11  O   UNL     1     -10.225   9.864  70.428  1.00  0.00    -0.277 OA 
HETATM   12  OXT UNL     1      -9.267   7.927  69.937  1.00  0.00    -0.152 OA 
ENDROOT
BRANCH   4  13
HETATM   13  CG1 UNL     1      -7.838   7.884  67.543  1.00  0.00    -0.122 C  
HETATM   14  CD1 UNL     1      -6.755   7.596  66.808  1.00  0.00    -0.066 C  
ENDBRANCH   4  13
BRANCH   5  15
HETATM   15  N   UNL     1     -11.142  13.050  66.334  1.00  0.00    -0.281 N  
HETATM   16  H   UNL     1     -10.221  13.236  66.730  1.00  0.00     0.000 HD 
HETATM   17  C   UNL     1     -11.688  13.986  65.494  1.00  0.00    -0.350 C  
HETATM   18  O   UNL     1     -12.787  13.870  64.970  1.00  0.00    -0.693 OA 
BRANCH  17  19
HETATM   19  C   UNL     1     -10.843  15.251  65.277  1.00  0.00    -0.403 C  
BRANCH  19  20
HETATM   20  N   UNL     1     -10.913  16.007  64.211  1.00  0.00    -0.991 NA 
HETATM   21  H   UNL     1     -11.419  17.856  63.673  1.00  0.00     0.000 HD 
HETATM   22  O   UNL     1     -11.368  17.307  64.447  1.00  0.00    -1.052 OA 
HETATM   23  H   UNL     1     -10.657  15.673  63.281  1.00  0.00     0.000 HD 
ENDBRANCH  19  20
BRANCH  19  24
HETATM   24  C   UNL     1      -9.861  15.647  66.289  1.00  0.00    -0.295 A  
HETATM   25  S   UNL     1      -7.845  16.655  67.481  1.00  0.00    -0.178 SA 
HETATM   26  C   UNL     1      -8.723  16.393  66.034  1.00  0.00    -0.239 A  
HETATM   27  C   UNL     1      -9.030  15.770  68.350  1.00  0.00    -0.187 A  
HETATM   28  N   UNL     1     -10.022  15.309  67.634  1.00  0.00    -0.221 NA 
HETATM   29  N   UNL     1      -8.918  15.563  69.671  1.00  0.00    -0.309 NA 
HETATM   30  H1  UNL     1      -9.623  15.036  70.188  1.00  0.00     0.000 HD 
HETATM   31  H2  UNL     1      -8.112  15.939  70.168  1.00  0.00     0.000 HD 
ENDBRANCH  19  24
ENDBRANCH  17  19
ENDBRANCH   5  15
TORSDOF 5
ENDMDL
MODEL       59
REMARK 921   NORMALIZED FREE ENERGY PREDICTED BY IDOCK:   -5.53 KCAL/MOL
REMARK 922        TOTAL FREE ENERGY PREDICTED BY IDOCK:   -8.01 KCAL/MOL
REMARK 923 INTER-LIGAND FREE ENERGY PREDICTED BY IDOCK:   -7.00 KCAL/MOL
REMARK 924 INTRA-LIGAND FREE ENERGY PREDICTED BY IDOCK:   -1.01 KCAL/MOL
REMARK 927      BINDING AFFINITY PREDICTED BY RF-SCORE:    0.00 PKD
ROOT
HETATM    1  C   UNL     1     -11.904  12.832  68.337  1.00  0.00    -0.310 C  
HETATM    2  S   UNL     1     -12.031  12.151  70.005  1.00  0.00    -0.255 SA 
HETATM    3  CG2 UNL     1     -12.556  13.719  70.727  1.00  0.00    -0.340 C  
HETATM    4  CB  UNL     1     -11.716  14.928  70.326  1.00  0.00    -0.352 C  
HETATM    5  CA  UNL     1     -10.938  12.063  67.382  1.00  0.00    -0.261 C  
HETATM    6  CA  UNL     1     -10.959  14.987  69.189  1.00  0.00    -0.261 C  
HETATM    7  N   UNL     1     -10.937  13.915  68.334  1.00  0.00    -0.244 N  
HETATM    8  O   UNL     1      -9.175  13.889  66.829  1.00  0.00    -0.252 OA 
HETATM    9  C   UNL     1     -10.166  16.240  68.859  1.00  0.00    -0.256 C  
HETATM   10  C   UNL     1     -10.169  13.427  67.339  1.00  0.00    -0.237 C  
HETATM   11  O   UNL     1      -9.117  16.111  68.026  1.00  0.00    -0.188 OA 
HETATM   12  OXT UNL     1     -10.447  17.349  69.295  1.00  0.00    -0.341 OA 
ENDROOT
BRANCH   4  13
HETATM   13  CG1 UNL     1     -11.735  15.979  71.353  1.00  0.00    -0.536 C  
HETATM   14  CD1 UNL     1     -11.883  15.796  72.673  1.00  0.00    -0.596 C  
ENDBRANCH   4  13
BRANCH   5  15
HETATM   15  N   UNL     1     -10.167  10.949  67.990  1.00  0.00    -0.173 N  
HETATM   16  H   UNL     1      -9.850  11.052  68.954  1.00  0.00     0.000 HD 
HETATM   17  C   UNL     1      -9.859   9.790  67.326  1.00  0.00    -0.181 C  
HETATM   18  O   UNL     1     -10.181   9.563  66.168  1.00  0.00    -0.273 OA 
BRANCH  17  19
HETATM   19  C   UNL     1      -9.018   8.778  68.120  1.00  0.00    -0.141 C  
BRANCH  19  20
HETATM   20  N   UNL     1      -7.709   8.746  68.114  1.00  0.00    -0.100 NA 
HETATM   21  H   UNL     1      -6.146   9.964  67.923  1.00  0.00     0.000 HD 
HETATM   22  O   UNL     1      -7.096   9.988  67.927  1.00  0.00    -0.083 OA 
HETATM   23  H   UNL     1      -7.179   7.883  68.236  1.00  0.00     0.000 HD 
ENDBRANCH  19  20
BRANCH  19  24
HETATM   24  C   UNL     1      -9.688   7.748  68.918  1.00  0.00    -0.160 A  
HETATM   25  S   UNL     1     -10.279   5.571  70.105  1.00  0.00    -0.287 SA 
HETATM   26  C   UNL     1      -9.216   6.459  69.098  1.00  0.00    -0.133 A  
HETATM   27  C   UNL     1     -11.290   6.949  70.241  1.00  0.00    -0.324 A  
HETATM   28  N   UNL     1     -10.880   8.010  69.595  1.00  0.00    -0.214 NA 
HETATM   29  N   UNL     1     -12.427   6.915  70.951  1.00  0.00    -0.503 NA 
HETATM   30  H1  UNL     1     -13.029   7.735  71.031  1.00  0.00     0.000 HD 
HETATM   31  H2  UNL     1     -12.696   6.051  71.421  1.00  0.00     0.000 HD 
ENDBRANCH  19  24
ENDBRANCH  17  19
ENDBRANCH   5  15
TORSDOF 5
ENDMDL
MODEL       60
REMARK 921   NORMALIZED FREE ENERGY PREDICTED BY IDOCK:   -5.53 KCAL/MOL
REMARK 922        TOTAL FREE ENERGY PREDICTED BY IDOCK:   -8.01 KCAL/MOL
REMARK 923 INTER-LIGAND FREE ENERGY PREDICTED BY IDOCK:   -6.95 KCAL/MOL
REMARK 924 INTRA-LIGAND FREE ENERGY PREDICTED BY IDOCK:   -1.05 KCAL/MOL
REMARK 927      BINDING AFFINITY PREDICTED BY RF-SCORE:    0.00 PKD
ROOT
HETATM    1  C   UNL     1      -8.173  10.090  65.931  1.00  0.00    -0.128 C  
HETATM    2  S   UNL     1      -7.638  11.585  66.791  1.00  0.00    -0.089 SA 
HETATM    3  CG2 UNL     1      -6.346  10.728  67.713  1.00  0.00    -0.058 C  
HETATM    4  CB  UNL     1      -6.784   9.429  68.383  1.00  0.00    -0.058 C  
HETATM    5  CA  UNL     1      -9.646  10.117  65.414  1.00  0.00    -0.264 C  
HETATM    6  CA  UNL     1      -7.859   8.687  67.978  1.00  0.00    -0.103 C  
HETATM    7  N   UNL     1      -8.603   9.104  66.905  1.00  0.00    -0.122 N  
HETATM    8  O   UNL     1     -10.704   8.141  66.728  1.00  0.00    -0.278 OA 
HETATM    9  C   UNL     1      -8.213   7.395  68.694  1.00  0.00    -0.125 C  
HETATM   10  C   UNL     1      -9.825   8.893  66.375  1.00  0.00    -0.283 C  
HETATM   11  O   UNL     1      -9.479   6.950  68.586  1.00  0.00    -0.135 OA 
HETATM   12  OXT UNL     1      -7.405   6.739  69.340  1.00  0.00    -0.086 OA 
ENDROOT
BRANCH   4  13
HETATM   13  CG1 UNL     1      -5.980   9.124  69.575  1.00  0.00    -0.033 C  
HETATM   14  CD1 UNL     1      -6.051   9.744  70.762  1.00  0.00    -0.092 C  
ENDBRANCH   4  13
BRANCH   5  15
HETATM   15  N   UNL     1     -10.449  11.308  65.790  1.00  0.00    -0.252 N  
HETATM   16  H   UNL     1     -10.349  11.678  66.735  1.00  0.00     0.000 HD 
HETATM   17  C   UNL     1     -11.316  11.938  64.936  1.00  0.00    -0.277 C  
HETATM   18  O   UNL     1     -11.519  11.577  63.785  1.00  0.00    -0.402 OA 
BRANCH  17  19
HETATM   19  C   UNL     1     -12.082  13.129  65.532  1.00  0.00    -0.442 C  
BRANCH  19  20
HETATM   20  N   UNL     1     -13.027  13.783  64.905  1.00  0.00    -0.722 NA 
HETATM   21  H   UNL     1     -13.264  15.098  63.429  1.00  0.00     0.000 HD 
HETATM   22  O   UNL     1     -12.577  14.623  63.885  1.00  0.00    -0.834 OA 
HETATM   23  H   UNL     1     -14.015  13.686  65.144  1.00  0.00     0.000 HD 
ENDBRANCH  19  20
BRANCH  19  24
HETATM   24  C   UNL     1     -11.735  13.615  66.870  1.00  0.00    -0.389 A  
HETATM   25  S   UNL     1     -10.957  15.053  68.826  1.00  0.00    -0.269 SA 
HETATM   26  C   UNL     1     -11.210  14.867  67.142  1.00  0.00    -0.343 A  
HETATM   27  C   UNL     1     -11.562  13.469  69.084  1.00  0.00    -0.310 A  
HETATM   28  N   UNL     1     -11.938  12.831  68.007  1.00  0.00    -0.323 NA 
HETATM   29  N   UNL     1     -11.619  12.935  70.313  1.00  0.00    -0.532 NA 
HETATM   30  H1  UNL     1     -11.979  11.993  70.466  1.00  0.00     0.000 HD 
HETATM   31  H2  UNL     1     -11.297  13.482  71.110  1.00  0.00     0.000 HD 
ENDBRANCH  19  24
ENDBRANCH  17  19
ENDBRANCH   5  15
TORSDOF 5
ENDMDL
MODEL       61
REMARK 921   NORMALIZED FREE ENERGY PREDICTED BY IDOCK:   -5.50 KCAL/MOL
REMARK 922        TOTAL FREE ENERGY PREDICTED BY IDOCK:   -7.97 KCAL/MOL
REMARK 923 INTER-LIGAND FREE ENERGY PREDICTED BY IDOCK:   -7.26 KCAL/MOL
REMARK 924 INTRA-LIGAND FREE ENERGY PREDICTED BY IDOCK:   -0.71 KCAL/MOL
REMARK 927      BINDING AFFINITY PREDICTED BY RF-SCORE:    0.00 PKD
ROOT
HETATM    1  C   UNL     1     -10.809  10.257  68.702  1.00  0.00    -0.234 C  
HETATM    2  S   UNL     1      -9.149  10.825  69.134  1.00  0.00    -0.032 SA 
HETATM    3  CG2 UNL     1      -8.482   9.152  69.240  1.00  0.00    -0.132 C  
HETATM    4  CB  UNL     1      -9.323   8.172  70.054  1.00  0.00    -0.159 C  
HETATM    5  CA  UNL     1     -11.958  11.257  69.043  1.00  0.00    -0.325 C  
HETATM    6  CA  UNL     1     -10.662   8.326  70.287  1.00  0.00    -0.235 C  
HETATM    7  N   UNL     1     -11.318   9.411  69.766  1.00  0.00    -0.114 N  
HETATM    8  O   UNL     1     -13.369   9.883  70.737  1.00  0.00    -0.313 OA 
HETATM    9  C   UNL     1     -11.424   7.290  71.095  1.00  0.00    -0.283 C  
HETATM   10  C   UNL     1     -12.463  10.095  69.966  1.00  0.00     0.045 C  
HETATM   11  O   UNL     1     -12.574   7.679  71.677  1.00  0.00    -0.317 OA 
HETATM   12  OXT UNL     1     -11.056   6.130  71.221  1.00  0.00    -0.273 OA 
ENDROOT
BRANCH   4  13
HETATM   13  CG1 UNL     1      -8.507   7.101  70.642  1.00  0.00    -0.138 C  
HETATM   14  CD1 UNL     1      -7.339   6.642  70.170  1.00  0.00    -0.085 C  
ENDBRANCH   4  13
BRANCH   5  15
HETATM   15  N   UNL     1     -11.560  12.486  69.775  1.00  0.00    -0.471 N  
HETATM   16  H   UNL     1     -11.278  12.395  70.751  1.00  0.00     0.000 HD 
HETATM   17  C   UNL     1     -11.551  13.735  69.211  1.00  0.00    -0.312 C  
HETATM   18  O   UNL     1     -11.877  13.960  68.053  1.00  0.00    -0.341 OA 
BRANCH  17  19
HETATM   19  C   UNL     1     -11.145  14.881  70.150  1.00  0.00    -0.213 C  
BRANCH  19  20
HETATM   20  N   UNL     1     -10.010  15.529  70.071  1.00  0.00    -0.383 NA 
HETATM   21  H   UNL     1      -9.264  17.233  69.361  1.00  0.00     0.000 HD 
HETATM   22  O   UNL     1     -10.088  16.762  69.419  1.00  0.00    -0.245 OA 
HETATM   23  H   UNL     1      -9.139  15.162  70.453  1.00  0.00     0.000 HD 
ENDBRANCH  19  20
BRANCH  19  24
HETATM   24  C   UNL     1     -12.043  15.277  71.238  1.00  0.00    -0.349 A  
HETATM   25  S   UNL     1     -14.105  15.728  72.668  1.00  0.00    -0.174 SA 
HETATM   26  C   UNL     1     -13.423  15.174  71.197  1.00  0.00    -0.465 A  
HETATM   27  C   UNL     1     -12.531  16.060  73.263  1.00  0.00    -0.535 A  
HETATM   28  N   UNL     1     -11.552  15.780  72.443  1.00  0.00    -0.438 NA 
HETATM   29  N   UNL     1     -12.342  16.587  74.482  1.00  0.00    -0.736 NA 
HETATM   30  H1  UNL     1     -11.406  16.785  74.835  1.00  0.00     0.000 HD 
HETATM   31  H2  UNL     1     -13.151  16.794  75.067  1.00  0.00     0.000 HD 
ENDBRANCH  19  24
ENDBRANCH  17  19
ENDBRANCH   5  15
TORSDOF 5
ENDMDL
MODEL       62
REMARK 921   NORMALIZED FREE ENERGY PREDICTED BY IDOCK:   -5.48 KCAL/MOL
REMARK 922        TOTAL FREE ENERGY PREDICTED BY IDOCK:   -7.95 KCAL/MOL
REMARK 923 INTER-LIGAND FREE ENERGY PREDICTED BY IDOCK:   -7.07 KCAL/MOL
REMARK 924 INTRA-LIGAND FREE ENERGY PREDICTED BY IDOCK:   -0.88 KCAL/MOL
REMARK 927      BINDING AFFINITY PREDICTED BY RF-SCORE:    0.00 PKD
ROOT
HETATM    1  C   UNL     1     -10.106  12.483  66.982  1.00  0.00    -0.216 C  
HETATM    2  S   UNL     1     -11.663  13.121  67.640  1.00  0.00    -0.366 SA 
HETATM    3  CG2 UNL     1     -11.527  14.685  66.751  1.00  0.00    -0.364 C  
HETATM    4  CB  UNL     1     -10.170  15.374  66.861  1.00  0.00    -0.273 C  
HETATM    5  CA  UNL     1      -9.423  11.382  67.854  1.00  0.00    -0.174 C  
HETATM    6  CA  UNL     1      -9.005  14.722  67.157  1.00  0.00    -0.224 C  
HETATM    7  N   UNL     1      -9.023  13.368  67.369  1.00  0.00    -0.205 N  
HETATM    8  O   UNL     1      -7.166  12.515  68.461  1.00  0.00    -0.099 OA 
HETATM    9  C   UNL     1      -7.695  15.487  67.228  1.00  0.00    -0.212 C  
HETATM   10  C   UNL     1      -8.253  12.421  67.942  1.00  0.00    -0.163 C  
HETATM   11  O   UNL     1      -6.694  14.940  67.943  1.00  0.00    -0.128 OA 
HETATM   12  OXT UNL     1      -7.504  16.552  66.655  1.00  0.00    -0.231 OA 
ENDROOT
BRANCH   4  13
HETATM   13  CG1 UNL     1     -10.278  16.832  66.710  1.00  0.00    -0.304 C  
HETATM   14  CD1 UNL     1     -10.601  17.708  67.672  1.00  0.00    -0.364 C  
ENDBRANCH   4  13
BRANCH   5  15
HETATM   15  N   UNL     1     -10.071  11.084  69.156  1.00  0.00    -0.350 N  
HETATM   16  H   UNL     1     -10.046  11.800  69.882  1.00  0.00     0.000 HD 
HETATM   17  C   UNL     1     -10.701   9.899  69.435  1.00  0.00    -0.232 C  
HETATM   18  O   UNL     1     -10.784   8.970  68.643  1.00  0.00    -0.188 OA 
BRANCH  17  19
HETATM   19  C   UNL     1     -11.272   9.774  70.856  1.00  0.00    -0.359 C  
BRANCH  19  20
HETATM   20  N   UNL     1     -12.286  10.470  71.303  1.00  0.00    -0.382 NA 
HETATM   21  H   UNL     1     -13.077  12.292  71.162  1.00  0.00     0.000 HD 
HETATM   22  O   UNL     1     -12.341  11.786  70.837  1.00  0.00    -0.375 OA 
HETATM   23  H   UNL     1     -12.981  10.084  71.942  1.00  0.00     0.000 HD 
ENDBRANCH  19  20
BRANCH  19  24
HETATM   24  C   UNL     1     -10.647   8.854  71.809  1.00  0.00    -0.362 A  
HETATM   25  S   UNL     1     -10.230   6.995  73.503  1.00  0.00    -0.363 SA 
HETATM   26  C   UNL     1     -11.317   7.860  72.501  1.00  0.00    -0.390 A  
HETATM   27  C   UNL     1      -8.945   7.986  72.951  1.00  0.00    -0.239 A  
HETATM   28  N   UNL     1      -9.278   8.900  72.077  1.00  0.00    -0.386 NA 
HETATM   29  N   UNL     1      -7.695   7.830  73.411  1.00  0.00    -0.119 NA 
HETATM   30  H1  UNL     1      -6.930   8.420  73.082  1.00  0.00     0.000 HD 
HETATM   31  H2  UNL     1      -7.505   7.106  74.103  1.00  0.00     0.000 HD 
ENDBRANCH  19  24
ENDBRANCH  17  19
ENDBRANCH   5  15
TORSDOF 5
ENDMDL
MODEL       63
REMARK 921   NORMALIZED FREE ENERGY PREDICTED BY IDOCK:   -5.45 KCAL/MOL
REMARK 922        TOTAL FREE ENERGY PREDICTED BY IDOCK:   -7.91 KCAL/MOL
REMARK 923 INTER-LIGAND FREE ENERGY PREDICTED BY IDOCK:   -6.85 KCAL/MOL
REMARK 924 INTRA-LIGAND FREE ENERGY PREDICTED BY IDOCK:   -1.06 KCAL/MOL
REMARK 927      BINDING AFFINITY PREDICTED BY RF-SCORE:    0.00 PKD
ROOT
HETATM    1  C   UNL     1     -11.494  12.346  68.196  1.00  0.00    -0.318 C  
HETATM    2  S   UNL     1      -9.832  11.640  68.238  1.00  0.00    -0.202 SA 
HETATM    3  CG2 UNL     1     -10.395  10.071  68.929  1.00  0.00    -0.202 C  
HETATM    4  CB  UNL     1     -11.336  10.193  70.124  1.00  0.00    -0.372 C  
HETATM    5  CA  UNL     1     -11.548  13.907  68.215  1.00  0.00    -0.337 C  
HETATM    6  CA  UNL     1     -12.096  11.299  70.386  1.00  0.00    -0.384 C  
HETATM    7  N   UNL     1     -12.036  12.377  69.542  1.00  0.00    -0.288 N  
HETATM    8  O   UNL     1     -12.848  14.363  70.418  1.00  0.00    -0.350 OA 
HETATM    9  C   UNL     1     -13.020  11.326  71.591  1.00  0.00    -0.432 C  
HETATM   10  C   UNL     1     -12.335  13.691  69.553  1.00  0.00    -0.182 C  
HETATM   11  O   UNL     1     -13.384  12.531  72.069  1.00  0.00    -0.502 OA 
HETATM   12  OXT UNL     1     -13.459  10.316  72.127  1.00  0.00    -0.401 OA 
ENDROOT
BRANCH   4  13
HETATM   13  CG1 UNL     1     -11.254   9.025  71.013  1.00  0.00    -0.361 C  
HETATM   14  CD1 UNL     1     -10.250   8.735  71.853  1.00  0.00    -0.415 C  
ENDBRANCH   4  13
BRANCH   5  15
HETATM   15  N   UNL     1     -10.248  14.604  68.379  1.00  0.00    -0.229 N  
HETATM   16  H   UNL     1      -9.796  14.573  69.293  1.00  0.00     0.000 HD 
HETATM   17  C   UNL     1      -9.621  15.288  67.370  1.00  0.00    -0.207 C  
HETATM   18  O   UNL     1     -10.076  15.396  66.239  1.00  0.00    -0.262 OA 
BRANCH  17  19
HETATM   19  C   UNL     1      -8.303  15.974  67.757  1.00  0.00    -0.150 C  
BRANCH  19  20
HETATM   20  N   UNL     1      -7.859  17.076  67.206  1.00  0.00    -0.168 NA 
HETATM   21  H   UNL     1      -8.302  19.012  67.078  1.00  0.00     0.000 HD 
HETATM   22  O   UNL     1      -8.624  18.213  67.478  1.00  0.00    -0.245 OA 
HETATM   23  H   UNL     1      -7.022  17.102  66.624  1.00  0.00     0.000 HD 
ENDBRANCH  19  20
BRANCH  19  24
HETATM   24  C   UNL     1      -7.444  15.368  68.777  1.00  0.00    -0.136 A  
HETATM   25  S   UNL     1      -5.815  15.005  70.704  1.00  0.00    -0.054 SA 
HETATM   26  C   UNL     1      -6.655  16.077  69.666  1.00  0.00    -0.185 A  
HETATM   27  C   UNL     1      -6.554  13.674  69.914  1.00  0.00     0.032 A  
HETATM   28  N   UNL     1      -7.377  13.984  68.946  1.00  0.00    -0.124 NA 
HETATM   29  N   UNL     1      -6.279  12.410  70.269  1.00  0.00    -0.380 NA 
HETATM   30  H1  UNL     1      -6.719  11.619  69.798  1.00  0.00     0.000 HD 
HETATM   31  H2  UNL     1      -5.616  12.237  71.024  1.00  0.00     0.000 HD 
ENDBRANCH  19  24
ENDBRANCH  17  19
ENDBRANCH   5  15
TORSDOF 5
ENDMDL
MODEL       64
REMARK 921   NORMALIZED FREE ENERGY PREDICTED BY IDOCK:   -5.43 KCAL/MOL
REMARK 922        TOTAL FREE ENERGY PREDICTED BY IDOCK:   -7.87 KCAL/MOL
REMARK 923 INTER-LIGAND FREE ENERGY PREDICTED BY IDOCK:   -6.89 KCAL/MOL
REMARK 924 INTRA-LIGAND FREE ENERGY PREDICTED BY IDOCK:   -0.98 KCAL/MOL
REMARK 927      BINDING AFFINITY PREDICTED BY RF-SCORE:    0.00 PKD
ROOT
HETATM    1  C   UNL     1     -12.849  11.254  70.297  1.00  0.00     0.010 C  
HETATM    2  S   UNL     1     -13.078  11.587  72.057  1.00  0.00    -0.112 SA 
HETATM    3  CG2 UNL     1     -13.534  13.312  71.786  1.00  0.00    -0.354 C  
HETATM    4  CB  UNL     1     -12.608  14.085  70.850  1.00  0.00    -0.431 C  
HETATM    5  CA  UNL     1     -11.897  10.060  69.969  1.00  0.00    -0.126 C  
HETATM    6  CA  UNL     1     -11.809  13.496  69.911  1.00  0.00    -0.316 C  
HETATM    7  N   UNL     1     -11.820  12.132  69.772  1.00  0.00    -0.332 N  
HETATM    8  O   UNL     1     -10.009  11.241  68.633  1.00  0.00    -0.196 OA 
HETATM    9  C   UNL     1     -10.930  14.346  69.009  1.00  0.00    -0.256 C  
HETATM   10  C   UNL     1     -11.047  11.160  69.247  1.00  0.00    -0.259 C  
HETATM   11  O   UNL     1      -9.861  13.754  68.445  1.00  0.00    -0.224 OA 
HETATM   12  OXT UNL     1     -11.160  15.523  68.760  1.00  0.00    -0.257 OA 
ENDROOT
BRANCH   4  13
HETATM   13  CG1 UNL     1     -12.602  15.525  71.147  1.00  0.00    -0.509 C  
HETATM   14  CD1 UNL     1     -11.992  16.120  72.181  1.00  0.00    -0.623 C  
ENDBRANCH   4  13
BRANCH   5  15
HETATM   15  N   UNL     1     -11.218   9.429  71.129  1.00  0.00    -0.325 N  
HETATM   16  H   UNL     1     -10.676  10.027  71.753  1.00  0.00     0.000 HD 
HETATM   17  C   UNL     1     -11.278   8.088  71.405  1.00  0.00    -0.252 C  
HETATM   18  O   UNL     1     -11.890   7.280  70.721  1.00  0.00    -0.309 OA 
BRANCH  17  19
HETATM   19  C   UNL     1     -10.471   7.629  72.629  1.00  0.00    -0.287 C  
BRANCH  19  20
HETATM   20  N   UNL     1     -10.978   6.961  73.635  1.00  0.00    -0.528 NA 
HETATM   21  H   UNL     1     -11.426   5.096  74.167  1.00  0.00     0.000 HD 
HETATM   22  O   UNL     1     -11.058   5.581  73.437  1.00  0.00    -0.282 OA 
HETATM   23  H   UNL     1     -11.290   7.413  74.494  1.00  0.00     0.000 HD 
ENDBRANCH  19  20
BRANCH  19  24
HETATM   24  C   UNL     1      -9.050   7.973  72.729  1.00  0.00    -0.238 A  
HETATM   25  S   UNL     1      -6.636   8.197  73.517  1.00  0.00    -0.121 SA 
HETATM   26  C   UNL     1      -8.226   7.618  73.783  1.00  0.00    -0.178 A  
HETATM   27  C   UNL     1      -7.141   8.873  72.024  1.00  0.00     0.076 A  
HETATM   28  N   UNL     1      -8.400   8.687  71.722  1.00  0.00    -0.246 NA 
HETATM   29  N   UNL     1      -6.291   9.557  71.243  1.00  0.00    -0.219 NA 
HETATM   30  H1  UNL     1      -6.592   9.959  70.355  1.00  0.00     0.000 HD 
HETATM   31  H2  UNL     1      -5.324   9.677  71.544  1.00  0.00     0.000 HD 
ENDBRANCH  19  24
ENDBRANCH  17  19
ENDBRANCH   5  15
TORSDOF 5
ENDMDL
MODEL       65
REMARK 921   NORMALIZED FREE ENERGY PREDICTED BY IDOCK:   -5.42 KCAL/MOL
REMARK 922        TOTAL FREE ENERGY PREDICTED BY IDOCK:   -7.87 KCAL/MOL
REMARK 923 INTER-LIGAND FREE ENERGY PREDICTED BY IDOCK:   -7.09 KCAL/MOL
REMARK 924 INTRA-LIGAND FREE ENERGY PREDICTED BY IDOCK:   -0.78 KCAL/MOL
REMARK 927      BINDING AFFINITY PREDICTED BY RF-SCORE:    0.00 PKD
ROOT
HETATM    1  C   UNL     1      -9.265   7.177  72.279  1.00  0.00    -0.132 C  
HETATM    2  S   UNL     1     -10.520   6.972  73.562  1.00  0.00    -0.370 SA 
HETATM    3  CG2 UNL     1     -10.092   5.245  73.863  1.00  0.00    -0.210 C  
HETATM    4  CB  UNL     1      -9.957   4.385  72.609  1.00  0.00    -0.217 C  
HETATM    5  CA  UNL     1      -9.550   8.319  71.254  1.00  0.00    -0.171 C  
HETATM    6  CA  UNL     1      -9.690   4.887  71.366  1.00  0.00    -0.175 C  
HETATM    7  N   UNL     1      -9.521   6.237  71.203  1.00  0.00    -0.170 N  
HETATM    8  O   UNL     1      -9.710   6.999  69.022  1.00  0.00    -0.145 OA 
HETATM    9  C   UNL     1      -9.555   3.953  70.175  1.00  0.00    -0.197 C  
HETATM   10  C   UNL     1      -9.548   7.150  70.211  1.00  0.00    -0.169 C  
HETATM   11  O   UNL     1      -9.749   4.476  68.950  1.00  0.00    -0.164 OA 
HETATM   12  OXT UNL     1      -9.263   2.769  70.277  1.00  0.00    -0.111 OA 
ENDROOT
BRANCH   4  13
HETATM   13  CG1 UNL     1     -10.248   2.970  72.878  1.00  0.00    -0.235 C  
HETATM   14  CD1 UNL     1     -11.303   2.490  73.552  1.00  0.00    -0.295 C  
ENDBRANCH   4  13
BRANCH   5  15
HETATM   15  N   UNL     1     -10.856   9.011  71.391  1.00  0.00    -0.301 N  
HETATM   16  H   UNL     1     -11.490   8.701  72.129  1.00  0.00     0.000 HD 
HETATM   17  C   UNL     1     -11.257  10.042  70.582  1.00  0.00    -0.350 C  
HETATM   18  O   UNL     1     -10.583  10.487  69.664  1.00  0.00    -0.236 OA 
BRANCH  17  19
HETATM   19  C   UNL     1     -12.663  10.594  70.864  1.00  0.00    -0.404 C  
BRANCH  19  20
HETATM   20  N   UNL     1     -13.748   9.861  70.893  1.00  0.00    -0.400 NA 
HETATM   21  H   UNL     1     -14.652   8.505  72.036  1.00  0.00     0.000 HD 
HETATM   22  O   UNL     1     -13.865   9.037  72.015  1.00  0.00    -0.412 OA 
HETATM   23  H   UNL     1     -14.451   9.889  70.155  1.00  0.00     0.000 HD 
ENDBRANCH  19  20
BRANCH  19  24
HETATM   24  C   UNL     1     -12.845  12.031  71.085  1.00  0.00    -0.235 A  
HETATM   25  S   UNL     1     -13.470  14.295  72.077  1.00  0.00    -0.457 SA 
HETATM   26  C   UNL     1     -13.474  12.586  72.187  1.00  0.00    -0.422 A  
HETATM   27  C   UNL     1     -12.633  14.189  70.584  1.00  0.00    -0.351 A  
HETATM   28  N   UNL     1     -12.360  12.975  70.180  1.00  0.00    -0.249 NA 
HETATM   29  N   UNL     1     -12.307  15.286  69.886  1.00  0.00    -0.510 NA 
HETATM   30  H1  UNL     1     -11.809  15.223  68.997  1.00  0.00     0.000 HD 
HETATM   31  H2  UNL     1     -12.561  16.204  70.251  1.00  0.00     0.000 HD 
ENDBRANCH  19  24
ENDBRANCH  17  19
ENDBRANCH   5  15
TORSDOF 5
ENDMDL
MODEL       66
REMARK 921   NORMALIZED FREE ENERGY PREDICTED BY IDOCK:   -5.40 KCAL/MOL
REMARK 922        TOTAL FREE ENERGY PREDICTED BY IDOCK:   -7.83 KCAL/MOL
REMARK 923 INTER-LIGAND FREE ENERGY PREDICTED BY IDOCK:   -7.13 KCAL/MOL
REMARK 924 INTRA-LIGAND FREE ENERGY PREDICTED BY IDOCK:   -0.71 KCAL/MOL
REMARK 927      BINDING AFFINITY PREDICTED BY RF-SCORE:    0.00 PKD
ROOT
HETATM    1  C   UNL     1     -11.910  11.455  67.684  1.00  0.00    -0.078 C  
HETATM    2  S   UNL     1     -11.651  12.902  66.634  1.00  0.00    -0.391 SA 
HETATM    3  CG2 UNL     1     -11.169  11.915  65.202  1.00  0.00    -0.289 C  
HETATM    4  CB  UNL     1     -10.135  10.829  65.485  1.00  0.00    -0.335 C  
HETATM    5  CA  UNL     1     -11.791  11.724  69.218  1.00  0.00    -0.326 C  
HETATM    6  CA  UNL     1      -9.922  10.282  66.719  1.00  0.00    -0.209 C  
HETATM    7  N   UNL     1     -10.669  10.709  67.786  1.00  0.00    -0.235 N  
HETATM    8  O   UNL     1      -9.799  10.189  69.871  1.00  0.00    -0.233 OA 
HETATM    9  C   UNL     1      -8.882   9.191  66.906  1.00  0.00    -0.123 C  
HETATM   10  C   UNL     1     -10.615  10.692  69.133  1.00  0.00    -0.226 C  
HETATM   11  O   UNL     1      -8.386   9.010  68.144  1.00  0.00    -0.119 OA 
HETATM   12  OXT UNL     1      -8.494   8.467  65.997  1.00  0.00    -0.124 OA 
ENDROOT
BRANCH   4  13
HETATM   13  CG1 UNL     1      -9.328  10.514  64.297  1.00  0.00    -0.310 C  
HETATM   14  CD1 UNL     1      -9.437  11.083  63.089  1.00  0.00    -0.363 C  
ENDBRANCH   4  13
BRANCH   5  15
HETATM   15  N   UNL     1     -11.373  13.093  69.611  1.00  0.00    -0.472 N  
HETATM   16  H   UNL     1     -10.538  13.485  69.177  1.00  0.00     0.000 HD 
HETATM   17  C   UNL     1     -12.048  13.858  70.527  1.00  0.00    -0.356 C  
HETATM   18  O   UNL     1     -13.055  13.486  71.114  1.00  0.00    -0.293 OA 
BRANCH  17  19
HETATM   19  C   UNL     1     -11.427  15.232  70.824  1.00  0.00    -0.325 C  
BRANCH  19  20
HETATM   20  N   UNL     1     -11.684  15.936  71.898  1.00  0.00    -0.465 NA 
HETATM   21  H   UNL     1     -13.228  16.593  72.968  1.00  0.00     0.000 HD 
HETATM   22  O   UNL     1     -13.042  16.082  72.189  1.00  0.00    -0.429 OA 
HETATM   23  H   UNL     1     -10.950  16.347  72.475  1.00  0.00     0.000 HD 
ENDBRANCH  19  20
BRANCH  19  24
HETATM   24  C   UNL     1     -10.515  15.839  69.852  1.00  0.00    -0.320 A  
HETATM   25  S   UNL     1      -9.439  17.404  68.152  1.00  0.00    -0.298 SA 
HETATM   26  C   UNL     1     -10.749  17.032  69.190  1.00  0.00    -0.253 A  
HETATM   27  C   UNL     1      -8.647  15.967  68.650  1.00  0.00    -0.206 A  
HETATM   28  N   UNL     1      -9.291  15.249  69.532  1.00  0.00    -0.228 NA 
HETATM   29  N   UNL     1      -7.456  15.614  68.144  1.00  0.00    -0.120 NA 
HETATM   30  H1  UNL     1      -6.984  14.759  68.441  1.00  0.00     0.000 HD 
HETATM   31  H2  UNL     1      -7.012  16.213  67.448  1.00  0.00     0.000 HD 
ENDBRANCH  19  24
ENDBRANCH  17  19
ENDBRANCH   5  15
TORSDOF 5
ENDMDL
MODEL       67
REMARK 921   NORMALIZED FREE ENERGY PREDICTED BY IDOCK:   -5.39 KCAL/MOL
REMARK 922        TOTAL FREE ENERGY PREDICTED BY IDOCK:   -7.82 KCAL/MOL
REMARK 923 INTER-LIGAND FREE ENERGY PREDICTED BY IDOCK:   -6.95 KCAL/MOL
REMARK 924 INTRA-LIGAND FREE ENERGY PREDICTED BY IDOCK:   -0.87 KCAL/MOL
REMARK 927      BINDING AFFINITY PREDICTED BY RF-SCORE:    0.00 PKD
ROOT
HETATM    1  C   UNL     1     -10.069  13.956  67.945  1.00  0.00    -0.242 C  
HETATM    2  S   UNL     1     -10.974  15.173  66.964  1.00  0.00    -0.314 SA 
HETATM    3  CG2 UNL     1     -12.041  13.933  66.204  1.00  0.00    -0.448 C  
HETATM    4  CB  UNL     1     -11.316  12.710  65.649  1.00  0.00    -0.357 C  
HETATM    5  CA  UNL     1      -8.634  14.394  68.379  1.00  0.00    -0.174 C  
HETATM    6  CA  UNL     1     -10.083  12.298  66.072  1.00  0.00    -0.248 C  
HETATM    7  N   UNL     1      -9.436  12.999  67.056  1.00  0.00    -0.229 N  
HETATM    8  O   UNL     1      -7.160  12.594  67.222  1.00  0.00    -0.149 OA 
HETATM    9  C   UNL     1      -9.443  11.057  65.474  1.00  0.00    -0.216 C  
HETATM   10  C   UNL     1      -8.187  13.148  67.540  1.00  0.00    -0.183 C  
HETATM   11  O   UNL     1      -8.105  10.944  65.562  1.00  0.00    -0.129 OA 
HETATM   12  OXT UNL     1     -10.083  10.158  64.942  1.00  0.00    -0.330 OA 
ENDROOT
BRANCH   4  13
HETATM   13  CG1 UNL     1     -12.052  12.090  64.538  1.00  0.00    -0.340 C  
HETATM   14  CD1 UNL     1     -12.369  12.671  63.372  1.00  0.00    -0.553 C  
ENDBRANCH   4  13
BRANCH   5  15
HETATM   15  N   UNL     1      -8.156  15.692  67.842  1.00  0.00    -0.138 N  
HETATM   16  H   UNL     1      -8.796  16.241  67.267  1.00  0.00     0.000 HD 
HETATM   17  C   UNL     1      -6.902  16.195  68.076  1.00  0.00    -0.126 C  
HETATM   18  O   UNL     1      -6.053  15.619  68.742  1.00  0.00    -0.098 OA 
BRANCH  17  19
HETATM   19  C   UNL     1      -6.591  17.536  67.395  1.00  0.00    -0.159 C  
BRANCH  19  20
HETATM   20  N   UNL     1      -6.610  17.724  66.099  1.00  0.00    -0.252 NA 
HETATM   21  H   UNL     1      -7.856  18.279  64.649  1.00  0.00     0.000 HD 
HETATM   22  O   UNL     1      -7.842  18.142  65.589  1.00  0.00    -0.520 OA 
HETATM   23  H   UNL     1      -5.791  17.577  65.509  1.00  0.00     0.000 HD 
ENDBRANCH  19  20
BRANCH  19  24
HETATM   24  C   UNL     1      -6.210  18.691  68.212  1.00  0.00    -0.207 A  
HETATM   25  S   UNL     1      -5.198  20.883  69.031  1.00  0.00    -0.338 SA 
HETATM   26  C   UNL     1      -5.388  19.721  67.787  1.00  0.00    -0.186 A  
HETATM   27  C   UNL     1      -6.219  19.952  70.046  1.00  0.00    -0.350 A  
HETATM   28  N   UNL     1      -6.685  18.851  69.515  1.00  0.00    -0.235 NA 
HETATM   29  N   UNL     1      -6.493  20.335  71.302  1.00  0.00    -0.429 NA 
HETATM   30  H1  UNL     1      -7.100  19.780  71.906  1.00  0.00     0.000 HD 
HETATM   31  H2  UNL     1      -6.086  21.198  71.660  1.00  0.00     0.000 HD 
ENDBRANCH  19  24
ENDBRANCH  17  19
ENDBRANCH   5  15
TORSDOF 5
ENDMDL
MODEL       68
REMARK 921   NORMALIZED FREE ENERGY PREDICTED BY IDOCK:   -5.37 KCAL/MOL
REMARK 922        TOTAL FREE ENERGY PREDICTED BY IDOCK:   -7.80 KCAL/MOL
REMARK 923 INTER-LIGAND FREE ENERGY PREDICTED BY IDOCK:   -6.96 KCAL/MOL
REMARK 924 INTRA-LIGAND FREE ENERGY PREDICTED BY IDOCK:   -0.84 KCAL/MOL
REMARK 927      BINDING AFFINITY PREDICTED BY RF-SCORE:    0.00 PKD
ROOT
HETATM    1  C   UNL     1      -8.707   8.244  71.821  1.00  0.00    -0.164 C  
HETATM    2  S   UNL     1     -10.317   8.233  72.641  1.00  0.00    -0.250 SA 
HETATM    3  CG2 UNL     1     -10.074   6.588  73.342  1.00  0.00    -0.218 C  
HETATM    4  CB  UNL     1      -9.573   5.534  72.358  1.00  0.00    -0.170 C  
HETATM    5  CA  UNL     1      -8.602   9.195  70.588  1.00  0.00    -0.226 C  
HETATM    6  CA  UNL     1      -8.899   5.827  71.205  1.00  0.00    -0.136 C  
HETATM    7  N   UNL     1      -8.637   7.134  70.888  1.00  0.00    -0.136 N  
HETATM    8  O   UNL     1      -8.080   7.520  68.672  1.00  0.00    -0.121 OA 
HETATM    9  C   UNL     1      -8.422   4.711  70.292  1.00  0.00    -0.075 C  
HETATM   10  C   UNL     1      -8.307   7.869  69.807  1.00  0.00    -0.127 C  
HETATM   11  O   UNL     1      -8.189   5.020  69.003  1.00  0.00    -0.086 OA 
HETATM   12  OXT UNL     1      -8.223   3.565  70.675  1.00  0.00    -0.056 OA 
ENDROOT
BRANCH   4  13
HETATM   13  CG1 UNL     1      -9.989   4.178  72.744  1.00  0.00    -0.206 C  
HETATM   14  CD1 UNL     1     -11.022   3.859  73.535  1.00  0.00    -0.343 C  
ENDBRANCH   4  13
BRANCH   5  15
HETATM   15  N   UNL     1      -9.855   9.877  70.178  1.00  0.00    -0.332 N  
HETATM   16  H   UNL     1     -10.641   9.872  70.829  1.00  0.00     0.000 HD 
HETATM   17  C   UNL     1     -10.015  10.512  68.974  1.00  0.00    -0.211 C  
HETATM   18  O   UNL     1      -9.144  10.573  68.117  1.00  0.00    -0.136 OA 
BRANCH  17  19
HETATM   19  C   UNL     1     -11.404  11.120  68.728  1.00  0.00    -0.277 C  
BRANCH  19  20
HETATM   20  N   UNL     1     -12.501  10.706  69.310  1.00  0.00    -0.711 NA 
HETATM   21  H   UNL     1     -13.339  10.616  71.114  1.00  0.00     0.000 HD 
HETATM   22  O   UNL     1     -12.543  10.917  70.691  1.00  0.00    -0.331 OA 
HETATM   23  H   UNL     1     -13.263  10.263  68.797  1.00  0.00     0.000 HD 
ENDBRANCH  19  20
BRANCH  19  24
HETATM   24  C   UNL     1     -11.555  12.210  67.760  1.00  0.00    -0.342 A  
HETATM   25  S   UNL     1     -11.479  14.476  66.595  1.00  0.00    -0.366 SA 
HETATM   26  C   UNL     1     -11.132  13.512  67.967  1.00  0.00    -0.258 A  
HETATM   27  C   UNL     1     -12.160  13.108  65.816  1.00  0.00    -0.447 A  
HETATM   28  N   UNL     1     -12.135  11.999  66.509  1.00  0.00    -0.541 NA 
HETATM   29  N   UNL     1     -12.692  13.196  64.588  1.00  0.00    -0.699 NA 
HETATM   30  H1  UNL     1     -13.097  12.382  64.125  1.00  0.00     0.000 HD 
HETATM   31  H2  UNL     1     -12.691  14.095  64.107  1.00  0.00     0.000 HD 
ENDBRANCH  19  24
ENDBRANCH  17  19
ENDBRANCH   5  15
TORSDOF 5
ENDMDL
MODEL       69
REMARK 921   NORMALIZED FREE ENERGY PREDICTED BY IDOCK:   -5.37 KCAL/MOL
REMARK 922        TOTAL FREE ENERGY PREDICTED BY IDOCK:   -7.80 KCAL/MOL
REMARK 923 INTER-LIGAND FREE ENERGY PREDICTED BY IDOCK:   -7.06 KCAL/MOL
REMARK 924 INTRA-LIGAND FREE ENERGY PREDICTED BY IDOCK:   -0.74 KCAL/MOL
REMARK 927      BINDING AFFINITY PREDICTED BY RF-SCORE:    0.00 PKD
ROOT
HETATM    1  C   UNL     1      -8.966  11.234  67.179  1.00  0.00    -0.155 C  
HETATM    2  S   UNL     1     -10.608  10.571  67.534  1.00  0.00    -0.279 SA 
HETATM    3  CG2 UNL     1     -11.426  11.656  66.348  1.00  0.00    -0.165 C  
HETATM    4  CB  UNL     1     -11.026  13.126  66.435  1.00  0.00    -0.305 C  
HETATM    5  CA  UNL     1      -7.922  11.062  68.328  1.00  0.00    -0.124 C  
HETATM    6  CA  UNL     1      -9.850  13.566  66.974  1.00  0.00    -0.251 C  
HETATM    7  N   UNL     1      -8.951  12.656  67.468  1.00  0.00    -0.177 N  
HETATM    8  O   UNL     1      -7.342  13.530  68.890  1.00  0.00    -0.101 OA 
HETATM    9  C   UNL     1      -9.526  15.049  67.004  1.00  0.00    -0.229 C  
HETATM   10  C   UNL     1      -7.891  12.628  68.302  1.00  0.00    -0.144 C  
HETATM   11  O   UNL     1      -8.626  15.472  67.912  1.00  0.00    -0.153 OA 
HETATM   12  OXT UNL     1     -10.025  15.863  66.237  1.00  0.00    -0.261 OA 
ENDROOT
BRANCH   4  13
HETATM   13  CG1 UNL     1     -12.097  14.018  65.966  1.00  0.00    -0.461 C  
HETATM   14  CD1 UNL     1     -12.426  14.262  64.690  1.00  0.00    -0.371 C  
ENDBRANCH   4  13
BRANCH   5  15
HETATM   15  N   UNL     1      -8.435  10.484  69.595  1.00  0.00    -0.375 N  
HETATM   16  H   UNL     1      -8.806  11.121  70.300  1.00  0.00     0.000 HD 
HETATM   17  C   UNL     1      -8.436   9.141  69.871  1.00  0.00    -0.147 C  
HETATM   18  O   UNL     1      -8.008   8.290  69.104  1.00  0.00    -0.108 OA 
BRANCH  17  19
HETATM   19  C   UNL     1      -8.973   8.752  71.257  1.00  0.00    -0.231 C  
BRANCH  19  20
HETATM   20  N   UNL     1      -8.248   8.736  72.347  1.00  0.00    -0.390 NA 
HETATM   21  H   UNL     1      -6.421   9.210  72.981  1.00  0.00     0.000 HD 
HETATM   22  O   UNL     1      -6.947   9.222  72.190  1.00  0.00    -0.313 OA 
HETATM   23  H   UNL     1      -8.604   8.395  73.240  1.00  0.00     0.000 HD 
ENDBRANCH  19  20
BRANCH  19  24
HETATM   24  C   UNL     1     -10.369   8.333  71.400  1.00  0.00    -0.213 A  
HETATM   25  S   UNL     1     -12.562   7.040  71.269  1.00  0.00    -0.325 SA 
HETATM   26  C   UNL     1     -10.903   7.172  70.867  1.00  0.00    -0.244 A  
HETATM   27  C   UNL     1     -12.464   8.522  72.126  1.00  0.00    -0.379 A  
HETATM   28  N   UNL     1     -11.286   9.090  72.131  1.00  0.00    -0.320 NA 
HETATM   29  N   UNL     1     -13.539   9.054  72.728  1.00  0.00    -0.845 NA 
HETATM   30  H1  UNL     1     -13.480   9.936  73.238  1.00  0.00     0.000 HD 
HETATM   31  H2  UNL     1     -14.432   8.566  72.675  1.00  0.00     0.000 HD 
ENDBRANCH  19  24
ENDBRANCH  17  19
ENDBRANCH   5  15
TORSDOF 5
ENDMDL
MODEL       70
REMARK 921   NORMALIZED FREE ENERGY PREDICTED BY IDOCK:   -5.34 KCAL/MOL
REMARK 922        TOTAL FREE ENERGY PREDICTED BY IDOCK:   -7.76 KCAL/MOL
REMARK 923 INTER-LIGAND FREE ENERGY PREDICTED BY IDOCK:   -6.88 KCAL/MOL
REMARK 924 INTRA-LIGAND FREE ENERGY PREDICTED BY IDOCK:   -0.88 KCAL/MOL
REMARK 927      BINDING AFFINITY PREDICTED BY RF-SCORE:    0.00 PKD
ROOT
HETATM    1  C   UNL     1      -8.482  12.452  66.720  1.00  0.00    -0.095 C  
HETATM    2  S   UNL     1      -8.281  11.063  67.857  1.00  0.00    -0.123 SA 
HETATM    3  CG2 UNL     1      -7.671   9.954  66.571  1.00  0.00    -0.107 C  
HETATM    4  CB  UNL     1      -8.496   9.936  65.288  1.00  0.00    -0.158 C  
HETATM    5  CA  UNL     1      -9.522  13.527  67.168  1.00  0.00    -0.244 C  
HETATM    6  CA  UNL     1      -9.313  10.959  64.893  1.00  0.00    -0.224 C  
HETATM    7  N   UNL     1      -9.415  12.083  65.671  1.00  0.00    -0.188 N  
HETATM    8  O   UNL     1     -11.258  13.419  65.240  1.00  0.00    -0.287 OA 
HETATM    9  C   UNL     1     -10.086  10.863  63.589  1.00  0.00    -0.355 C  
HETATM   10  C   UNL     1     -10.251  13.126  65.841  1.00  0.00    -0.291 C  
HETATM   11  O   UNL     1     -11.183  11.631  63.458  1.00  0.00    -0.410 OA 
HETATM   12  OXT UNL     1      -9.748  10.144  62.657  1.00  0.00    -0.261 OA 
ENDROOT
BRANCH   4  13
HETATM   13  CG1 UNL     1      -8.388   8.653  64.580  1.00  0.00    -0.157 C  
HETATM   14  CD1 UNL     1      -7.764   7.552  65.022  1.00  0.00    -0.116 C  
ENDBRANCH   4  13
BRANCH   5  15
HETATM   15  N   UNL     1     -10.290  13.219  68.401  1.00  0.00    -0.248 N  
HETATM   16  H   UNL     1     -10.092  12.344  68.886  1.00  0.00     0.000 HD 
HETATM   17  C   UNL     1     -11.249  14.048  68.923  1.00  0.00    -0.272 C  
HETATM   18  O   UNL     1     -11.571  15.116  68.421  1.00  0.00    -0.318 OA 
BRANCH  17  19
HETATM   19  C   UNL     1     -11.956  13.526  70.184  1.00  0.00    -0.329 C  
BRANCH  19  20
HETATM   20  N   UNL     1     -12.118  12.257  70.463  1.00  0.00    -0.474 NA 
HETATM   21  H   UNL     1     -12.328  10.501  69.549  1.00  0.00     0.000 HD 
HETATM   22  O   UNL     1     -12.210  11.422  69.347  1.00  0.00    -0.297 OA 
HETATM   23  H   UNL     1     -12.172  11.907  71.419  1.00  0.00     0.000 HD 
ENDBRANCH  19  20
BRANCH  19  24
HETATM   24  C   UNL     1     -12.529  14.478  71.138  1.00  0.00    -0.341 A  
HETATM   25  S   UNL     1     -14.143  15.856  72.551  1.00  0.00    -0.064 SA 
HETATM   26  C   UNL     1     -13.885  14.667  71.346  1.00  0.00    -0.403 A  
HETATM   27  C   UNL     1     -12.447  16.039  72.722  1.00  0.00    -0.487 A  
HETATM   28  N   UNL     1     -11.720  15.274  71.951  1.00  0.00    -0.402 NA 
HETATM   29  N   UNL     1     -11.923  16.925  73.582  1.00  0.00    -0.226 NA 
HETATM   30  H1  UNL     1     -10.913  17.034  73.684  1.00  0.00     0.000 HD 
HETATM   31  H2  UNL     1     -12.547  17.502  74.146  1.00  0.00     0.000 HD 
ENDBRANCH  19  24
ENDBRANCH  17  19
ENDBRANCH   5  15
TORSDOF 5
ENDMDL
MODEL       71
REMARK 921   NORMALIZED FREE ENERGY PREDICTED BY IDOCK:   -5.33 KCAL/MOL
REMARK 922        TOTAL FREE ENERGY PREDICTED BY IDOCK:   -7.74 KCAL/MOL
REMARK 923 INTER-LIGAND FREE ENERGY PREDICTED BY IDOCK:   -6.92 KCAL/MOL
REMARK 924 INTRA-LIGAND FREE ENERGY PREDICTED BY IDOCK:   -0.82 KCAL/MOL
REMARK 927      BINDING AFFINITY PREDICTED BY RF-SCORE:    0.00 PKD
ROOT
HETATM    1  C   UNL     1     -11.260  10.480  68.253  1.00  0.00    -0.291 C  
HETATM    2  S   UNL     1      -9.504  10.141  67.996  1.00  0.00    -0.146 SA 
HETATM    3  CG2 UNL     1      -9.682   8.376  68.327  1.00  0.00    -0.155 C  
HETATM    4  CB  UNL     1     -10.476   8.032  69.583  1.00  0.00    -0.224 C  
HETATM    5  CA  UNL     1     -11.595  11.952  68.654  1.00  0.00    -0.310 C  
HETATM    6  CA  UNL     1     -11.387   8.870  70.163  1.00  0.00    -0.106 C  
HETATM    7  N   UNL     1     -11.629  10.098  69.603  1.00  0.00    -0.195 N  
HETATM    8  O   UNL     1     -12.677  11.627  70.994  1.00  0.00    -0.356 OA 
HETATM    9  C   UNL     1     -12.146   8.437  71.405  1.00  0.00    -0.301 C  
HETATM   10  C   UNL     1     -12.159  11.286  69.956  1.00  0.00    -0.348 C  
HETATM   11  O   UNL     1     -12.663   9.403  72.187  1.00  0.00    -0.384 OA 
HETATM   12  OXT UNL     1     -12.325   7.265  71.711  1.00  0.00    -0.313 OA 
ENDROOT
BRANCH   4  13
HETATM   13  CG1 UNL     1     -10.073   6.738  70.153  1.00  0.00    -0.195 C  
HETATM   14  CD1 UNL     1     -10.338   5.527  69.641  1.00  0.00    -0.359 C  
ENDBRANCH   4  13
BRANCH   5  15
HETATM   15  N   UNL     1     -10.434  12.848  68.883  1.00  0.00    -0.419 N  
HETATM   16  H   UNL     1      -9.926  12.763  69.764  1.00  0.00     0.000 HD 
HETATM   17  C   UNL     1     -10.008  13.783  67.977  1.00  0.00    -0.246 C  
HETATM   18  O   UNL     1     -10.546  13.976  66.895  1.00  0.00    -0.277 OA 
BRANCH  17  19
HETATM   19  C   UNL     1      -8.812  14.638  68.423  1.00  0.00    -0.181 C  
BRANCH  19  20
HETATM   20  N   UNL     1      -7.888  14.230  69.256  1.00  0.00    -0.345 NA 
HETATM   21  H   UNL     1      -6.793  12.618  69.662  1.00  0.00     0.000 HD 
HETATM   22  O   UNL     1      -7.464  12.914  69.058  1.00  0.00    -0.030 OA 
HETATM   23  H   UNL     1      -7.508  14.826  69.992  1.00  0.00     0.000 HD 
ENDBRANCH  19  20
BRANCH  19  24
HETATM   24  C   UNL     1      -8.683  16.013  67.935  1.00  0.00    -0.165 A  
HETATM   25  S   UNL     1      -8.869  18.541  67.663  1.00  0.00    -0.274 SA 
HETATM   26  C   UNL     1      -9.271  17.118  68.527  1.00  0.00    -0.264 A  
HETATM   27  C   UNL     1      -7.940  17.604  66.567  1.00  0.00    -0.267 A  
HETATM   28  N   UNL     1      -7.912  16.320  66.813  1.00  0.00    -0.242 NA 
HETATM   29  N   UNL     1      -7.308  18.168  65.527  1.00  0.00    -0.526 NA 
HETATM   30  H1  UNL     1      -6.755  17.610  64.876  1.00  0.00     0.000 HD 
HETATM   31  H2  UNL     1      -7.381  19.175  65.385  1.00  0.00     0.000 HD 
ENDBRANCH  19  24
ENDBRANCH  17  19
ENDBRANCH   5  15
TORSDOF 5
ENDMDL
MODEL       72
REMARK 921   NORMALIZED FREE ENERGY PREDICTED BY IDOCK:   -5.32 KCAL/MOL
REMARK 922        TOTAL FREE ENERGY PREDICTED BY IDOCK:   -7.74 KCAL/MOL
REMARK 923 INTER-LIGAND FREE ENERGY PREDICTED BY IDOCK:   -6.84 KCAL/MOL
REMARK 924 INTRA-LIGAND FREE ENERGY PREDICTED BY IDOCK:   -0.90 KCAL/MOL
REMARK 927      BINDING AFFINITY PREDICTED BY RF-SCORE:    0.00 PKD
ROOT
HETATM    1  C   UNL     1     -12.216  13.188  67.095  1.00  0.00    -0.191 C  
HETATM    2  S   UNL     1     -11.847  12.309  68.630  1.00  0.00    -0.255 SA 
HETATM    3  CG2 UNL     1     -12.159  13.755  69.664  1.00  0.00    -0.336 C  
HETATM    4  CB  UNL     1     -11.484  15.041  69.195  1.00  0.00    -0.320 C  
HETATM    5  CA  UNL     1     -11.559  12.583  65.814  1.00  0.00    -0.392 C  
HETATM    6  CA  UNL     1     -11.090  15.270  67.907  1.00  0.00    -0.321 C  
HETATM    7  N   UNL     1     -11.304  14.308  66.953  1.00  0.00    -0.329 N  
HETATM    8  O   UNL     1     -10.053  14.543  65.017  1.00  0.00    -0.393 OA 
HETATM    9  C   UNL     1     -10.441  16.589  67.525  1.00  0.00    -0.310 C  
HETATM   10  C   UNL     1     -10.852  13.978  65.727  1.00  0.00    -0.291 C  
HETATM   11  O   UNL     1      -9.676  16.609  66.418  1.00  0.00    -0.256 OA 
HETATM   12  OXT UNL     1     -10.596  17.624  68.160  1.00  0.00    -0.376 OA 
ENDROOT
BRANCH   4  13
HETATM   13  CG1 UNL     1     -11.218  15.961  70.310  1.00  0.00    -0.388 C  
HETATM   14  CD1 UNL     1     -11.825  15.959  71.505  1.00  0.00    -0.536 C  
ENDBRANCH   4  13
BRANCH   5  15
HETATM   15  N   UNL     1     -10.633  11.443  66.031  1.00  0.00    -0.261 N  
HETATM   16  H   UNL     1     -10.446  11.149  66.989  1.00  0.00     0.000 HD 
HETATM   17  C   UNL     1     -10.016  10.764  65.012  1.00  0.00    -0.300 C  
HETATM   18  O   UNL     1     -10.161  11.035  63.828  1.00  0.00    -0.316 OA 
BRANCH  17  19
HETATM   19  C   UNL     1      -9.063   9.641  65.450  1.00  0.00    -0.215 C  
BRANCH  19  20
HETATM   20  N   UNL     1      -9.218   8.929  66.538  1.00  0.00    -0.169 NA 
HETATM   21  H   UNL     1     -10.581   7.803  67.453  1.00  0.00     0.000 HD 
HETATM   22  O   UNL     1     -10.469   8.320  66.663  1.00  0.00    -0.305 OA 
HETATM   23  H   UNL     1      -8.484   8.828  67.239  1.00  0.00     0.000 HD 
ENDBRANCH  19  20
BRANCH  19  24
HETATM   24  C   UNL     1      -7.877   9.344  64.644  1.00  0.00    -0.120 A  
HETATM   25  S   UNL     1      -5.587   9.448  63.528  1.00  0.00    -0.077 SA 
HETATM   26  C   UNL     1      -6.757  10.154  64.561  1.00  0.00    -0.117 A  
HETATM   27  C   UNL     1      -6.635   8.117  63.264  1.00  0.00    -0.080 A  
HETATM   28  N   UNL     1      -7.778   8.170  63.896  1.00  0.00    -0.131 NA 
HETATM   29  N   UNL     1      -6.292   7.109  62.448  1.00  0.00    -0.052 NA 
HETATM   30  H1  UNL     1      -6.916   6.317  62.291  1.00  0.00     0.000 HD 
HETATM   31  H2  UNL     1      -5.390   7.135  61.974  1.00  0.00     0.000 HD 
ENDBRANCH  19  24
ENDBRANCH  17  19
ENDBRANCH   5  15
TORSDOF 5
ENDMDL
MODEL       73
REMARK 921   NORMALIZED FREE ENERGY PREDICTED BY IDOCK:   -5.29 KCAL/MOL
REMARK 922        TOTAL FREE ENERGY PREDICTED BY IDOCK:   -7.70 KCAL/MOL
REMARK 923 INTER-LIGAND FREE ENERGY PREDICTED BY IDOCK:   -7.12 KCAL/MOL
REMARK 924 INTRA-LIGAND FREE ENERGY PREDICTED BY IDOCK:   -0.58 KCAL/MOL
REMARK 927      BINDING AFFINITY PREDICTED BY RF-SCORE:    0.00 PKD
ROOT
HETATM    1  C   UNL     1      -9.722  12.773  69.047  1.00  0.00     0.353 C  
HETATM    2  S   UNL     1     -11.349  12.109  68.631  1.00  0.00    -0.307 SA 
HETATM    3  CG2 UNL     1     -11.102  10.600  69.587  1.00  0.00    -0.284 C  
HETATM    4  CB  UNL     1      -9.770   9.895  69.348  1.00  0.00    -0.228 C  
HETATM    5  CA  UNL     1      -9.154  13.815  68.031  1.00  0.00    -0.191 C  
HETATM    6  CA  UNL     1      -8.653  10.519  68.868  1.00  0.00    -0.153 C  
HETATM    7  N   UNL     1      -8.697  11.858  68.580  1.00  0.00    -0.145 N  
HETATM    8  O   UNL     1      -6.993  12.630  67.212  1.00  0.00    -0.154 OA 
HETATM    9  C   UNL     1      -7.362   9.741  68.678  1.00  0.00    -0.074 C  
HETATM   10  C   UNL     1      -8.006  12.763  67.858  1.00  0.00    -0.158 C  
HETATM   11  O   UNL     1      -6.460  10.236  67.810  1.00  0.00    -0.061 OA 
HETATM   12  OXT UNL     1      -7.100   8.710  69.284  1.00  0.00    -0.060 OA 
ENDROOT
BRANCH   4  13
HETATM   13  CG1 UNL     1      -9.859   8.449  69.598  1.00  0.00    -0.184 C  
HETATM   14  CD1 UNL     1     -10.700   7.839  70.445  1.00  0.00    -0.238 C  
ENDBRANCH   4  13
BRANCH   5  15
HETATM   15  N   UNL     1      -9.962  14.040  66.806  1.00  0.00    -0.262 N  
HETATM   16  H   UNL     1     -10.632  13.322  66.532  1.00  0.00     0.000 HD 
HETATM   17  C   UNL     1      -9.857  15.161  66.024  1.00  0.00    -0.320 C  
HETATM   18  O   UNL     1      -9.082  16.080  66.255  1.00  0.00    -0.284 OA 
BRANCH  17  19
HETATM   19  C   UNL     1     -10.754  15.183  64.777  1.00  0.00    -0.319 C  
BRANCH  19  20
HETATM   20  N   UNL     1     -11.098  16.273  64.140  1.00  0.00    -1.202 NA 
HETATM   21  H   UNL     1     -11.164  18.246  64.399  1.00  0.00     0.000 HD 
HETATM   22  O   UNL     1     -10.914  17.455  64.862  1.00  0.00    -0.862 OA 
HETATM   23  H   UNL     1     -11.473  16.261  63.191  1.00  0.00     0.000 HD 
ENDBRANCH  19  20
BRANCH  19  24
HETATM   24  C   UNL     1     -11.305  13.928  64.261  1.00  0.00    -0.294 A  
HETATM   25  S   UNL     1     -12.887  12.092  63.469  1.00  0.00    -0.128 SA 
HETATM   26  C   UNL     1     -12.656  13.661  64.116  1.00  0.00    -0.108 A  
HETATM   27  C   UNL     1     -11.187  11.872  63.418  1.00  0.00    -0.377 A  
HETATM   28  N   UNL     1     -10.478  12.885  63.842  1.00  0.00    -0.383 NA 
HETATM   29  N   UNL     1     -10.644  10.724  62.985  1.00  0.00    -0.701 NA 
HETATM   30  H1  UNL     1      -9.633  10.593  62.955  1.00  0.00     0.000 HD 
HETATM   31  H2  UNL     1     -11.255   9.967  62.680  1.00  0.00     0.000 HD 
ENDBRANCH  19  24
ENDBRANCH  17  19
ENDBRANCH   5  15
TORSDOF 5
ENDMDL
MODEL       74
REMARK 921   NORMALIZED FREE ENERGY PREDICTED BY IDOCK:   -5.28 KCAL/MOL
REMARK 922        TOTAL FREE ENERGY PREDICTED BY IDOCK:   -7.68 KCAL/MOL
REMARK 923 INTER-LIGAND FREE ENERGY PREDICTED BY IDOCK:   -6.62 KCAL/MOL
REMARK 924 INTRA-LIGAND FREE ENERGY PREDICTED BY IDOCK:   -1.06 KCAL/MOL
REMARK 927      BINDING AFFINITY PREDICTED BY RF-SCORE:    0.00 PKD
ROOT
HETATM    1  C   UNL     1     -12.696  11.507  69.940  1.00  0.00     0.150 C  
HETATM    2  S   UNL     1     -12.919  10.993  71.657  1.00  0.00    -0.397 SA 
HETATM    3  CG2 UNL     1     -13.653  12.566  72.150  1.00  0.00    -0.360 C  
HETATM    4  CB  UNL     1     -12.893  13.806  71.688  1.00  0.00    -0.438 C  
HETATM    5  CA  UNL     1     -11.576  10.744  69.163  1.00  0.00    -0.305 C  
HETATM    6  CA  UNL     1     -12.039  13.823  70.620  1.00  0.00    -0.333 C  
HETATM    7  N   UNL     1     -11.837  12.676  69.897  1.00  0.00    -0.320 N  
HETATM    8  O   UNL     1      -9.944  12.672  68.561  1.00  0.00    -0.219 OA 
HETATM    9  C   UNL     1     -11.337  15.109  70.220  1.00  0.00    -0.283 C  
HETATM   10  C   UNL     1     -10.936  12.168  69.032  1.00  0.00    -0.205 C  
HETATM   11  O   UNL     1     -10.205  15.001  69.499  1.00  0.00    -0.225 OA 
HETATM   12  OXT UNL     1     -11.759  16.223  70.502  1.00  0.00    -0.303 OA 
ENDROOT
BRANCH   4  13
HETATM   13  CG1 UNL     1     -13.107  14.951  72.585  1.00  0.00    -0.520 C  
HETATM   14  CD1 UNL     1     -12.540  15.136  73.785  1.00  0.00    -0.712 C  
ENDBRANCH   4  13
BRANCH   5  15
HETATM   15  N   UNL     1     -10.768   9.784  69.956  1.00  0.00    -0.261 N  
HETATM   16  H   UNL     1     -10.534  10.030  70.918  1.00  0.00     0.000 HD 
HETATM   17  C   UNL     1     -10.320   8.584  69.467  1.00  0.00    -0.218 C  
HETATM   18  O   UNL     1     -10.535   8.192  68.328  1.00  0.00    -0.204 OA 
BRANCH  17  19
HETATM   19  C   UNL     1      -9.465   7.754  70.436  1.00  0.00    -0.164 C  
BRANCH  19  20
HETATM   20  N   UNL     1      -9.921   6.752  71.144  1.00  0.00    -0.182 NA 
HETATM   21  H   UNL     1     -11.521   6.229  72.209  1.00  0.00     0.000 HD 
HETATM   22  O   UNL     1     -11.189   6.956  71.695  1.00  0.00    -0.235 OA 
HETATM   23  H   UNL     1      -9.393   5.890  71.283  1.00  0.00     0.000 HD 
ENDBRANCH  19  20
BRANCH  19  24
HETATM   24  C   UNL     1      -8.055   8.099  70.634  1.00  0.00    -0.105 A  
HETATM   25  S   UNL     1      -5.512   8.006  70.795  1.00  0.00    -0.029 SA 
HETATM   26  C   UNL     1      -7.000   7.212  70.494  1.00  0.00    -0.058 A  
HETATM   27  C   UNL     1      -6.359   9.468  71.085  1.00  0.00    -0.054 A  
HETATM   28  N   UNL     1      -7.660   9.395  70.965  1.00  0.00    -0.311 NA 
HETATM   29  N   UNL     1      -5.715  10.593  71.428  1.00  0.00    -0.327 NA 
HETATM   30  H1  UNL     1      -6.219  11.463  71.600  1.00  0.00     0.000 HD 
HETATM   31  H2  UNL     1      -4.699  10.578  71.517  1.00  0.00     0.000 HD 
ENDBRANCH  19  24
ENDBRANCH  17  19
ENDBRANCH   5  15
TORSDOF 5
ENDMDL
MODEL       75
REMARK 921   NORMALIZED FREE ENERGY PREDICTED BY IDOCK:   -5.25 KCAL/MOL
REMARK 922        TOTAL FREE ENERGY PREDICTED BY IDOCK:   -7.65 KCAL/MOL
REMARK 923 INTER-LIGAND FREE ENERGY PREDICTED BY IDOCK:   -6.71 KCAL/MOL
REMARK 924 INTRA-LIGAND FREE ENERGY PREDICTED BY IDOCK:   -0.94 KCAL/MOL
REMARK 927      BINDING AFFINITY PREDICTED BY RF-SCORE:    0.00 PKD
ROOT
HETATM    1  C   UNL     1     -10.920  10.461  67.418  1.00  0.00    -0.270 C  
HETATM    2  S   UNL     1      -9.144  10.344  67.107  1.00  0.00    -0.139 SA 
HETATM    3  CG2 UNL     1      -8.965   8.818  68.054  1.00  0.00    -0.140 C  
HETATM    4  CB  UNL     1      -9.625   8.831  69.430  1.00  0.00    -0.163 C  
HETATM    5  CA  UNL     1     -11.515  11.901  67.312  1.00  0.00    -0.317 C  
HETATM    6  CA  UNL     1     -10.655   9.661  69.774  1.00  0.00    -0.242 C  
HETATM    7  N   UNL     1     -11.152  10.543  68.848  1.00  0.00    -0.245 N  
HETATM    8  O   UNL     1     -12.415  12.280  69.719  1.00  0.00    -0.056 OA 
HETATM    9  C   UNL     1     -11.264   9.593  71.164  1.00  0.00    -0.384 C  
HETATM   10  C   UNL     1     -11.885  11.673  68.817  1.00  0.00    -0.325 C  
HETATM   11  O   UNL     1     -11.923  10.679  71.608  1.00  0.00    -0.193 OA 
HETATM   12  OXT UNL     1     -11.200   8.602  71.879  1.00  0.00    -0.296 OA 
ENDROOT
BRANCH   4  13
HETATM   13  CG1 UNL     1      -8.957   7.920  70.370  1.00  0.00    -0.147 C  
HETATM   14  CD1 UNL     1      -7.663   7.568  70.352  1.00  0.00    -0.091 C  
ENDBRANCH   4  13
BRANCH   5  15
HETATM   15  N   UNL     1     -10.539  12.996  67.084  1.00  0.00    -0.245 N  
HETATM   16  H   UNL     1      -9.552  12.753  66.999  1.00  0.00     0.000 HD 
HETATM   17  C   UNL     1     -10.892  14.317  66.982  1.00  0.00    -0.297 C  
HETATM   18  O   UNL     1     -12.043  14.722  67.077  1.00  0.00    -0.306 OA 
BRANCH  17  19
HETATM   19  C   UNL     1      -9.727  15.299  66.787  1.00  0.00    -0.236 C  
BRANCH  19  20
HETATM   20  N   UNL     1      -8.479  14.934  66.624  1.00  0.00    -0.414 NA 
HETATM   21  H   UNL     1      -7.020  13.987  67.591  1.00  0.00     0.000 HD 
HETATM   22  O   UNL     1      -7.925  14.251  67.709  1.00  0.00    -0.139 OA 
HETATM   23  H   UNL     1      -7.954  15.134  65.773  1.00  0.00     0.000 HD 
ENDBRANCH  19  20
BRANCH  19  24
HETATM   24  C   UNL     1      -9.983  16.741  66.815  1.00  0.00    -0.282 A  
HETATM   25  S   UNL     1     -10.572  19.135  66.166  1.00  0.00    -0.387 SA 
HETATM   26  C   UNL     1     -10.356  17.496  65.716  1.00  0.00    -0.209 A  
HETATM   27  C   UNL     1     -10.163  18.736  67.783  1.00  0.00    -0.394 A  
HETATM   28  N   UNL     1      -9.888  17.476  67.997  1.00  0.00    -0.285 NA 
HETATM   29  N   UNL     1     -10.118  19.672  68.743  1.00  0.00    -0.510 NA 
HETATM   30  H1  UNL     1      -9.874  19.435  69.705  1.00  0.00     0.000 HD 
HETATM   31  H2  UNL     1     -10.331  20.640  68.506  1.00  0.00     0.000 HD 
ENDBRANCH  19  24
ENDBRANCH  17  19
ENDBRANCH   5  15
TORSDOF 5
ENDMDL
MODEL       76
REMARK 921   NORMALIZED FREE ENERGY PREDICTED BY IDOCK:   -5.25 KCAL/MOL
REMARK 922        TOTAL FREE ENERGY PREDICTED BY IDOCK:   -7.64 KCAL/MOL
REMARK 923 INTER-LIGAND FREE ENERGY PREDICTED BY IDOCK:   -6.61 KCAL/MOL
REMARK 924 INTRA-LIGAND FREE ENERGY PREDICTED BY IDOCK:   -1.03 KCAL/MOL
REMARK 927      BINDING AFFINITY PREDICTED BY RF-SCORE:    0.00 PKD
ROOT
HETATM    1  C   UNL     1      -8.683  11.173  66.132  1.00  0.00    -0.186 C  
HETATM    2  S   UNL     1      -9.722   9.767  65.676  1.00  0.00    -0.294 SA 
HETATM    3  CG2 UNL     1     -10.324  10.556  64.170  1.00  0.00    -0.098 C  
HETATM    4  CB  UNL     1     -10.806  11.994  64.342  1.00  0.00    -0.378 C  
HETATM    5  CA  UNL     1      -8.354  11.284  67.654  1.00  0.00    -0.123 C  
HETATM    6  CA  UNL     1     -10.406  12.815  65.360  1.00  0.00    -0.293 C  
HETATM    7  N   UNL     1      -9.516  12.351  66.293  1.00  0.00    -0.234 N  
HETATM    8  O   UNL     1      -9.419  13.575  68.259  1.00  0.00    -0.209 OA 
HETATM    9  C   UNL     1     -10.924  14.240  65.444  1.00  0.00    -0.333 C  
HETATM   10  C   UNL     1      -9.103  12.656  67.540  1.00  0.00    -0.192 C  
HETATM   11  O   UNL     1     -10.888  14.845  66.645  1.00  0.00    -0.307 OA 
HETATM   12  OXT UNL     1     -11.347  14.861  64.477  1.00  0.00    -0.364 OA 
ENDROOT
BRANCH   4  13
HETATM   13  CG1 UNL     1     -11.825  12.357  63.347  1.00  0.00    -0.571 C  
HETATM   14  CD1 UNL     1     -13.131  12.062  63.404  1.00  0.00    -0.101 C  
ENDBRANCH   4  13
BRANCH   5  15
HETATM   15  N   UNL     1      -9.021  10.298  68.541  1.00  0.00    -0.129 N  
HETATM   16  H   UNL     1      -9.892   9.873  68.221  1.00  0.00     0.000 HD 
HETATM   17  C   UNL     1      -8.532   9.928  69.767  1.00  0.00    -0.192 C  
HETATM   18  O   UNL     1      -7.503  10.379  70.252  1.00  0.00    -0.206 OA 
BRANCH  17  19
HETATM   19  C   UNL     1      -9.394   8.924  70.546  1.00  0.00    -0.202 C  
BRANCH  19  20
HETATM   20  N   UNL     1      -9.787   9.097  71.783  1.00  0.00    -0.257 NA 
HETATM   21  H   UNL     1     -11.458   9.223  72.858  1.00  0.00     0.000 HD 
HETATM   22  O   UNL     1     -11.173   9.097  71.960  1.00  0.00    -0.364 OA 
HETATM   23  H   UNL     1      -9.133   9.224  72.556  1.00  0.00     0.000 HD 
ENDBRANCH  19  20
BRANCH  19  24
HETATM   24  C   UNL     1      -9.792   7.665  69.910  1.00  0.00    -0.184 A  
HETATM   25  S   UNL     1     -10.142   5.198  69.374  1.00  0.00    -0.224 SA 
HETATM   26  C   UNL     1      -9.486   6.405  70.395  1.00  0.00    -0.162 A  
HETATM   27  C   UNL     1     -10.793   6.419  68.361  1.00  0.00    -0.311 A  
HETATM   28  N   UNL     1     -10.556   7.648  68.742  1.00  0.00    -0.183 NA 
HETATM   29  N   UNL     1     -11.480   6.114  67.251  1.00  0.00    -0.515 NA 
HETATM   30  H1  UNL     1     -11.867   6.841  66.648  1.00  0.00     0.000 HD 
HETATM   31  H2  UNL     1     -11.618   5.134  67.003  1.00  0.00     0.000 HD 
ENDBRANCH  19  24
ENDBRANCH  17  19
ENDBRANCH   5  15
TORSDOF 5
ENDMDL
MODEL       77
REMARK 921   NORMALIZED FREE ENERGY PREDICTED BY IDOCK:   -5.22 KCAL/MOL
REMARK 922        TOTAL FREE ENERGY PREDICTED BY IDOCK:   -7.61 KCAL/MOL
REMARK 923 INTER-LIGAND FREE ENERGY PREDICTED BY IDOCK:   -6.66 KCAL/MOL
REMARK 924 INTRA-LIGAND FREE ENERGY PREDICTED BY IDOCK:   -0.95 KCAL/MOL
REMARK 927      BINDING AFFINITY PREDICTED BY RF-SCORE:    0.00 PKD
ROOT
HETATM    1  C   UNL     1     -10.897  13.295  67.750  1.00  0.00    -0.252 C  
HETATM    2  S   UNL     1      -9.101  13.190  67.902  1.00  0.00    -0.215 SA 
HETATM    3  CG2 UNL     1      -8.853  14.930  67.494  1.00  0.00    -0.188 C  
HETATM    4  CB  UNL     1      -9.611  15.419  66.263  1.00  0.00    -0.342 C  
HETATM    5  CA  UNL     1     -11.613  11.942  67.438  1.00  0.00    -0.297 C  
HETATM    6  CA  UNL     1     -10.735  14.817  65.771  1.00  0.00    -0.326 C  
HETATM    7  N   UNL     1     -11.241  13.710  66.402  1.00  0.00    -0.304 N  
HETATM    8  O   UNL     1     -12.719  12.445  65.143  1.00  0.00    -0.630 OA 
HETATM    9  C   UNL     1     -11.436  15.383  64.549  1.00  0.00    -0.311 C  
HETATM   10  C   UNL     1     -12.071  12.682  66.136  1.00  0.00    -0.333 C  
HETATM   11  O   UNL     1     -12.224  14.551  63.842  1.00  0.00    -0.603 OA 
HETATM   12  OXT UNL     1     -11.335  16.551  64.194  1.00  0.00    -1.060 OA 
ENDROOT
BRANCH   4  13
HETATM   13  CG1 UNL     1      -8.933  16.549  65.611  1.00  0.00     0.229 C  
HETATM   14  CD1 UNL     1      -7.733  17.050  65.935  1.00  0.00     0.054 C  
ENDBRANCH   4  13
BRANCH   5  15
HETATM   15  N   UNL     1     -10.728  10.775  67.196  1.00  0.00    -0.260 N  
HETATM   16  H   UNL     1     -10.411  10.600  66.242  1.00  0.00     0.000 HD 
HETATM   17  C   UNL     1     -10.313   9.920  68.184  1.00  0.00    -0.195 C  
HETATM   18  O   UNL     1     -10.637  10.030  69.359  1.00  0.00    -0.204 OA 
BRANCH  17  19
HETATM   19  C   UNL     1      -9.433   8.750  67.718  1.00  0.00    -0.142 C  
BRANCH  19  20
HETATM   20  N   UNL     1      -9.718   7.489  67.925  1.00  0.00    -0.142 NA 
HETATM   21  H   UNL     1     -10.870   6.038  67.197  1.00  0.00     0.000 HD 
HETATM   22  O   UNL     1     -10.664   6.954  67.047  1.00  0.00    -0.310 OA 
HETATM   23  H   UNL     1      -9.284   6.941  68.668  1.00  0.00     0.000 HD 
ENDBRANCH  19  20
BRANCH  19  24
HETATM   24  C   UNL     1      -8.170   9.025  67.027  1.00  0.00    -0.109 A  
HETATM   25  S   UNL     1      -5.732   9.003  66.284  1.00  0.00    -0.054 SA 
HETATM   26  C   UNL     1      -6.961   8.421  67.326  1.00  0.00    -0.075 A  
HETATM   27  C   UNL     1      -6.880  10.010  65.504  1.00  0.00    -0.120 A  
HETATM   28  N   UNL     1      -8.101   9.930  65.967  1.00  0.00    -0.117 NA 
HETATM   29  N   UNL     1      -6.526  10.829  64.503  1.00  0.00    -0.359 NA 
HETATM   30  H1  UNL     1      -7.210  11.428  64.039  1.00  0.00     0.000 HD 
HETATM   31  H2  UNL     1      -5.553  10.853  64.199  1.00  0.00     0.000 HD 
ENDBRANCH  19  24
ENDBRANCH  17  19
ENDBRANCH   5  15
TORSDOF 5
ENDMDL
MODEL       78
REMARK 921   NORMALIZED FREE ENERGY PREDICTED BY IDOCK:   -5.22 KCAL/MOL
REMARK 922        TOTAL FREE ENERGY PREDICTED BY IDOCK:   -7.61 KCAL/MOL
REMARK 923 INTER-LIGAND FREE ENERGY PREDICTED BY IDOCK:   -6.66 KCAL/MOL
REMARK 924 INTRA-LIGAND FREE ENERGY PREDICTED BY IDOCK:   -0.95 KCAL/MOL
REMARK 927      BINDING AFFINITY PREDICTED BY RF-SCORE:    0.00 PKD
ROOT
HETATM    1  C   UNL     1     -10.057  11.534  66.656  1.00  0.00    -0.210 C  
HETATM    2  S   UNL     1     -11.492  11.843  67.709  1.00  0.00    -0.317 SA 
HETATM    3  CG2 UNL     1     -11.682  13.545  67.142  1.00  0.00    -0.379 C  
HETATM    4  CB  UNL     1     -10.398  14.369  67.131  1.00  0.00    -0.262 C  
HETATM    5  CA  UNL     1      -9.113  10.391  67.146  1.00  0.00    -0.139 C  
HETATM    6  CA  UNL     1      -9.145  13.827  67.068  1.00  0.00    -0.246 C  
HETATM    7  N   UNL     1      -8.999  12.465  67.003  1.00  0.00    -0.204 N  
HETATM    8  O   UNL     1      -6.887  11.672  67.534  1.00  0.00    -0.086 OA 
HETATM    9  C   UNL     1      -7.920  14.725  67.044  1.00  0.00    -0.104 C  
HETATM   10  C   UNL     1      -8.047  11.536  67.220  1.00  0.00    -0.153 C  
HETATM   11  O   UNL     1      -6.749  14.191  67.435  1.00  0.00    -0.252 OA 
HETATM   12  OXT UNL     1      -7.947  15.891  66.671  1.00  0.00    -0.247 OA 
ENDROOT
BRANCH   4  13
HETATM   13  CG1 UNL     1     -10.663  15.805  67.300  1.00  0.00    -0.313 C  
HETATM   14  CD1 UNL     1     -11.133  16.402  68.404  1.00  0.00    -0.351 C  
ENDBRANCH   4  13
BRANCH   5  15
HETATM   15  N   UNL     1      -9.447   9.784  68.459  1.00  0.00    -0.144 N  
HETATM   16  H   UNL     1      -9.176  10.286  69.305  1.00  0.00     0.000 HD 
HETATM   17  C   UNL     1     -10.101   8.587  68.597  1.00  0.00    -0.190 C  
HETATM   18  O   UNL     1     -10.464   7.898  67.654  1.00  0.00    -0.228 OA 
BRANCH  17  19
HETATM   19  C   UNL     1     -10.315   8.115  70.044  1.00  0.00    -0.215 C  
BRANCH  19  20
HETATM   20  N   UNL     1      -9.584   7.204  70.635  1.00  0.00    -0.165 NA 
HETATM   21  H   UNL     1      -9.386   5.226  70.737  1.00  0.00     0.000 HD 
HETATM   22  O   UNL     1      -9.917   5.887  70.308  1.00  0.00    -0.176 OA 
HETATM   23  H   UNL     1      -8.831   7.437  71.283  1.00  0.00     0.000 HD 
ENDBRANCH  19  20
BRANCH  19  24
HETATM   24  C   UNL     1     -11.418   8.672  70.830  1.00  0.00    -0.275 A  
HETATM   25  S   UNL     1     -13.472   8.941  72.316  1.00  0.00    -0.460 SA 
HETATM   26  C   UNL     1     -12.360   7.918  71.510  1.00  0.00    -0.315 A  
HETATM   27  C   UNL     1     -12.633  10.312  71.719  1.00  0.00    -0.389 A  
HETATM   28  N   UNL     1     -11.590  10.049  70.974  1.00  0.00    -0.372 NA 
HETATM   29  N   UNL     1     -13.044  11.558  71.994  1.00  0.00    -0.465 NA 
HETATM   30  H1  UNL     1     -12.544  12.373  71.639  1.00  0.00     0.000 HD 
HETATM   31  H2  UNL     1     -13.874  11.693  72.571  1.00  0.00     0.000 HD 
ENDBRANCH  19  24
ENDBRANCH  17  19
ENDBRANCH   5  15
TORSDOF 5
ENDMDL
MODEL       79
REMARK 921   NORMALIZED FREE ENERGY PREDICTED BY IDOCK:   -5.19 KCAL/MOL
REMARK 922        TOTAL FREE ENERGY PREDICTED BY IDOCK:   -7.57 KCAL/MOL
REMARK 923 INTER-LIGAND FREE ENERGY PREDICTED BY IDOCK:   -6.82 KCAL/MOL
REMARK 924 INTRA-LIGAND FREE ENERGY PREDICTED BY IDOCK:   -0.75 KCAL/MOL
REMARK 927      BINDING AFFINITY PREDICTED BY RF-SCORE:    0.00 PKD
ROOT
HETATM    1  C   UNL     1     -10.294   8.497  68.954  1.00  0.00    -0.210 C  
HETATM    2  S   UNL     1     -10.408   9.024  67.230  1.00  0.00    -0.273 SA 
HETATM    3  CG2 UNL     1      -9.603   7.535  66.605  1.00  0.00    -0.200 C  
HETATM    4  CB  UNL     1      -8.318   7.143  67.329  1.00  0.00    -0.119 C  
HETATM    5  CA  UNL     1     -10.325   9.655  70.001  1.00  0.00    -0.257 C  
HETATM    6  CA  UNL     1      -8.015   7.527  68.605  1.00  0.00    -0.123 C  
HETATM    7  N   UNL     1      -8.899   8.306  69.306  1.00  0.00    -0.142 N  
HETATM    8  O   UNL     1      -8.013   9.388  71.153  1.00  0.00    -0.322 OA 
HETATM    9  C   UNL     1      -6.718   7.075  69.255  1.00  0.00    -0.049 C  
HETATM   10  C   UNL     1      -8.903   9.119  70.381  1.00  0.00    -0.220 C  
HETATM   11  O   UNL     1      -6.247   7.809  70.280  1.00  0.00    -0.033 OA 
HETATM   12  OXT UNL     1      -6.102   6.077  68.905  1.00  0.00    -0.028 OA 
ENDROOT
BRANCH   4  13
HETATM   13  CG1 UNL     1      -7.402   6.391  66.459  1.00  0.00    -0.078 C  
HETATM   14  CD1 UNL     1      -7.581   5.142  66.008  1.00  0.00    -0.087 C  
ENDBRANCH   4  13
BRANCH   5  15
HETATM   15  N   UNL     1     -10.329  11.034  69.451  1.00  0.00    -0.403 N  
HETATM   16  H   UNL     1      -9.461  11.398  69.058  1.00  0.00     0.000 HD 
HETATM   17  C   UNL     1     -11.435  11.844  69.441  1.00  0.00    -0.302 C  
HETATM   18  O   UNL     1     -12.523  11.513  69.892  1.00  0.00    -0.200 OA 
BRANCH  17  19
HETATM   19  C   UNL     1     -11.218  13.250  68.863  1.00  0.00    -0.277 C  
BRANCH  19  20
HETATM   20  N   UNL     1     -10.842  14.285  69.572  1.00  0.00    -0.408 NA 
HETATM   21  H   UNL     1     -11.606  15.697  70.749  1.00  0.00     0.000 HD 
HETATM   22  O   UNL     1     -11.879  14.946  70.235  1.00  0.00    -0.270 OA 
HETATM   23  H   UNL     1      -9.869  14.586  69.634  1.00  0.00     0.000 HD 
ENDBRANCH  19  20
BRANCH  19  24
HETATM   24  C   UNL     1     -11.473  13.496  67.442  1.00  0.00    -0.336 A  
HETATM   25  S   UNL     1     -11.506  14.500  65.099  1.00  0.00    -0.383 SA 
HETATM   26  C   UNL     1     -11.003  14.588  66.733  1.00  0.00    -0.316 A  
HETATM   27  C   UNL     1     -12.307  13.022  65.433  1.00  0.00    -0.486 A  
HETATM   28  N   UNL     1     -12.214  12.601  66.668  1.00  0.00    -0.492 NA 
HETATM   29  N   UNL     1     -12.991  12.367  64.484  1.00  0.00    -0.810 NA 
HETATM   30  H1  UNL     1     -13.468  11.487  64.683  1.00  0.00     0.000 HD 
HETATM   31  H2  UNL     1     -13.036  12.757  63.543  1.00  0.00     0.000 HD 
ENDBRANCH  19  24
ENDBRANCH  17  19
ENDBRANCH   5  15
TORSDOF 5
ENDMDL
MODEL       80
REMARK 921   NORMALIZED FREE ENERGY PREDICTED BY IDOCK:   -5.19 KCAL/MOL
REMARK 922        TOTAL FREE ENERGY PREDICTED BY IDOCK:   -7.56 KCAL/MOL
REMARK 923 INTER-LIGAND FREE ENERGY PREDICTED BY IDOCK:   -6.69 KCAL/MOL
REMARK 924 INTRA-LIGAND FREE ENERGY PREDICTED BY IDOCK:   -0.88 KCAL/MOL
REMARK 927      BINDING AFFINITY PREDICTED BY RF-SCORE:    0.00 PKD
ROOT
HETATM    1  C   UNL     1     -10.939   8.844  71.226  1.00  0.00    -0.293 C  
HETATM    2  S   UNL     1     -11.776   7.389  70.558  1.00  0.00    -0.134 SA 
HETATM    3  CG2 UNL     1     -11.652   6.468  72.105  1.00  0.00    -0.308 C  
HETATM    4  CB  UNL     1     -10.269   6.477  72.752  1.00  0.00    -0.206 C  
HETATM    5  CA  UNL     1     -10.255   9.758  70.161  1.00  0.00    -0.275 C  
HETATM    6  CA  UNL     1      -9.325   7.437  72.520  1.00  0.00    -0.146 C  
HETATM    7  N   UNL     1      -9.607   8.471  71.665  1.00  0.00    -0.223 N  
HETATM    8  O   UNL     1      -7.763   9.636  70.883  1.00  0.00    -0.314 OA 
HETATM    9  C   UNL     1      -7.979   7.375  73.222  1.00  0.00    -0.105 C  
HETATM   10  C   UNL     1      -8.947   9.401  70.946  1.00  0.00    -0.132 C  
HETATM   11  O   UNL     1      -6.950   8.031  72.654  1.00  0.00    -0.076 OA 
HETATM   12  OXT UNL     1      -7.797   6.782  74.277  1.00  0.00    -0.106 OA 
ENDROOT
BRANCH   4  13
HETATM   13  CG1 UNL     1     -10.037   5.279  73.572  1.00  0.00    -0.205 C  
HETATM   14  CD1 UNL     1     -10.957   4.373  73.932  1.00  0.00    -0.315 C  
ENDBRANCH   4  13
BRANCH   5  15
HETATM   15  N   UNL     1     -10.279   9.263  68.761  1.00  0.00    -0.199 N  
HETATM   16  H   UNL     1     -10.745   8.376  68.572  1.00  0.00     0.000 HD 
HETATM   17  C   UNL     1      -9.710   9.934  67.710  1.00  0.00    -0.150 C  
HETATM   18  O   UNL     1      -9.121  11.000  67.823  1.00  0.00    -0.143 OA 
BRANCH  17  19
HETATM   19  C   UNL     1      -9.810   9.231  66.347  1.00  0.00    -0.277 C  
BRANCH  19  20
HETATM   20  N   UNL     1      -9.871   7.932  66.193  1.00  0.00    -0.464 NA 
HETATM   21  H   UNL     1     -10.994   6.376  66.724  1.00  0.00     0.000 HD 
HETATM   22  O   UNL     1     -10.949   7.319  66.836  1.00  0.00    -0.343 OA 
HETATM   23  H   UNL     1      -9.185   7.410  65.648  1.00  0.00     0.000 HD 
ENDBRANCH  19  20
BRANCH  19  24
HETATM   24  C   UNL     1      -9.804  10.030  65.119  1.00  0.00    -0.318 A  
HETATM   25  S   UNL     1      -9.231  10.996  62.830  1.00  0.00    -0.349 SA 
HETATM   26  C   UNL     1      -8.889   9.887  64.090  1.00  0.00    -0.225 A  
HETATM   27  C   UNL     1     -10.569  11.588  63.726  1.00  0.00    -0.406 A  
HETATM   28  N   UNL     1     -10.769  11.010  64.882  1.00  0.00    -0.255 NA 
HETATM   29  N   UNL     1     -11.333  12.587  63.261  1.00  0.00    -0.719 NA 
HETATM   30  H1  UNL     1     -12.129  12.939  63.794  1.00  0.00     0.000 HD 
HETATM   31  H2  UNL     1     -11.114  13.004  62.357  1.00  0.00     0.000 HD 
ENDBRANCH  19  24
ENDBRANCH  17  19
ENDBRANCH   5  15
TORSDOF 5
ENDMDL
MODEL       81
REMARK 921   NORMALIZED FREE ENERGY PREDICTED BY IDOCK:   -5.19 KCAL/MOL
REMARK 922        TOTAL FREE ENERGY PREDICTED BY IDOCK:   -7.56 KCAL/MOL
REMARK 923 INTER-LIGAND FREE ENERGY PREDICTED BY IDOCK:   -6.50 KCAL/MOL
REMARK 924 INTRA-LIGAND FREE ENERGY PREDICTED BY IDOCK:   -1.06 KCAL/MOL
REMARK 927      BINDING AFFINITY PREDICTED BY RF-SCORE:    0.00 PKD
ROOT
HETATM    1  C   UNL     1      -8.776   8.215  71.216  1.00  0.00    -0.145 C  
HETATM    2  S   UNL     1     -10.149   8.499  72.355  1.00  0.00    -0.249 SA 
HETATM    3  CG2 UNL     1     -10.193   6.782  72.907  1.00  0.00    -0.201 C  
HETATM    4  CB  UNL     1     -10.170   5.744  71.789  1.00  0.00    -0.245 C  
HETATM    5  CA  UNL     1      -8.675   9.233  70.036  1.00  0.00    -0.195 C  
HETATM    6  CA  UNL     1      -9.679   5.983  70.536  1.00  0.00    -0.174 C  
HETATM    7  N   UNL     1      -9.165   7.218  70.236  1.00  0.00    -0.155 N  
HETATM    8  O   UNL     1      -8.966   7.681  67.974  1.00  0.00    -0.127 OA 
HETATM    9  C   UNL     1      -9.679   4.883  69.489  1.00  0.00    -0.195 C  
HETATM   10  C   UNL     1      -8.876   7.959  69.147  1.00  0.00    -0.142 C  
HETATM   11  O   UNL     1      -9.629   5.255  68.196  1.00  0.00    -0.118 OA 
HETATM   12  OXT UNL     1      -9.703   3.690  69.764  1.00  0.00    -0.185 OA 
ENDROOT
BRANCH   4  13
HETATM   13  CG1 UNL     1     -10.828   4.491  72.186  1.00  0.00     0.020 C  
HETATM   14  CD1 UNL     1     -10.641   3.824  73.334  1.00  0.00    -0.279 C  
ENDBRANCH   4  13
BRANCH   5  15
HETATM   15  N   UNL     1      -9.774  10.226  69.934  1.00  0.00    -0.412 N  
HETATM   16  H   UNL     1     -10.508  10.206  70.642  1.00  0.00     0.000 HD 
HETATM   17  C   UNL     1      -9.856  11.167  68.941  1.00  0.00    -0.162 C  
HETATM   18  O   UNL     1      -9.036  11.276  68.039  1.00  0.00    -0.145 OA 
BRANCH  17  19
HETATM   19  C   UNL     1     -11.094  12.075  68.992  1.00  0.00    -0.239 C  
BRANCH  19  20
HETATM   20  N   UNL     1     -11.435  12.906  68.040  1.00  0.00    -0.297 NA 
HETATM   21  H   UNL     1     -12.239  12.903  66.218  1.00  0.00     0.000 HD 
HETATM   22  O   UNL     1     -11.991  12.300  66.910  1.00  0.00    -0.578 OA 
HETATM   23  H   UNL     1     -11.305  13.915  68.116  1.00  0.00     0.000 HD 
ENDBRANCH  19  20
BRANCH  19  24
HETATM   24  C   UNL     1     -11.950  12.064  70.181  1.00  0.00    -0.321 A  
HETATM   25  S   UNL     1     -13.379  12.760  72.174  1.00  0.00    -0.384 SA 
HETATM   26  C   UNL     1     -12.391  13.196  70.846  1.00  0.00    -0.307 A  
HETATM   27  C   UNL     1     -13.164  11.105  71.780  1.00  0.00    -0.381 A  
HETATM   28  N   UNL     1     -12.418  10.871  70.733  1.00  0.00    -0.365 NA 
HETATM   29  N   UNL     1     -13.718  10.133  72.520  1.00  0.00    -0.522 NA 
HETATM   30  H1  UNL     1     -13.590   9.148  72.285  1.00  0.00     0.000 HD 
HETATM   31  H2  UNL     1     -14.280  10.384  73.333  1.00  0.00     0.000 HD 
ENDBRANCH  19  24
ENDBRANCH  17  19
ENDBRANCH   5  15
TORSDOF 5
ENDMDL
MODEL       82
REMARK 921   NORMALIZED FREE ENERGY PREDICTED BY IDOCK:   -5.18 KCAL/MOL
REMARK 922        TOTAL FREE ENERGY PREDICTED BY IDOCK:   -7.55 KCAL/MOL
REMARK 923 INTER-LIGAND FREE ENERGY PREDICTED BY IDOCK:   -7.03 KCAL/MOL
REMARK 924 INTRA-LIGAND FREE ENERGY PREDICTED BY IDOCK:   -0.52 KCAL/MOL
REMARK 927      BINDING AFFINITY PREDICTED BY RF-SCORE:    0.00 PKD
ROOT
HETATM    1  C   UNL     1     -11.060   7.801  70.706  1.00  0.00    -0.257 C  
HETATM    2  S   UNL     1     -10.891   7.504  68.932  1.00  0.00     0.044 SA 
HETATM    3  CG2 UNL     1     -10.724   5.718  69.134  1.00  0.00    -0.300 C  
HETATM    4  CB  UNL     1      -9.729   5.280  70.205  1.00  0.00    -0.261 C  
HETATM    5  CA  UNL     1     -10.666   9.238  71.174  1.00  0.00    -0.333 C  
HETATM    6  CA  UNL     1      -9.345   6.065  71.256  1.00  0.00    -0.156 C  
HETATM    7  N   UNL     1      -9.871   7.324  71.388  1.00  0.00    -0.185 N  
HETATM    8  O   UNL     1      -8.696   8.743  72.794  1.00  0.00    -0.398 OA 
HETATM    9  C   UNL     1      -8.361   5.540  72.287  1.00  0.00    -0.119 C  
HETATM   10  C   UNL     1      -9.590   8.479  72.024  1.00  0.00    -0.301 C  
HETATM   11  O   UNL     1      -7.675   6.444  73.010  1.00  0.00    -0.098 OA 
HETATM   12  OXT UNL     1      -8.182   4.348  72.501  1.00  0.00    -0.101 OA 
ENDROOT
BRANCH   4  13
HETATM   13  CG1 UNL     1      -9.157   3.957  69.918  1.00  0.00    -0.190 C  
HETATM   14  CD1 UNL     1      -8.269   3.667  68.957  1.00  0.00    -0.074 C  
ENDBRANCH   4  13
BRANCH   5  15
HETATM   15  N   UNL     1     -10.099  10.132  70.134  1.00  0.00    -0.409 N  
HETATM   16  H   UNL     1      -9.089  10.125  69.990  1.00  0.00     0.000 HD 
HETATM   17  C   UNL     1     -10.859  10.968  69.356  1.00  0.00    -0.231 C  
HETATM   18  O   UNL     1     -12.075  11.063  69.449  1.00  0.00    -0.333 OA 
BRANCH  17  19
HETATM   19  C   UNL     1     -10.075  11.842  68.366  1.00  0.00    -0.201 C  
BRANCH  19  20
HETATM   20  N   UNL     1      -9.023  12.552  68.687  1.00  0.00    -0.388 NA 
HETATM   21  H   UNL     1      -7.040  12.402  68.778  1.00  0.00     0.000 HD 
HETATM   22  O   UNL     1      -7.803  11.886  68.545  1.00  0.00    -0.134 OA 
HETATM   23  H   UNL     1      -9.089  13.516  69.014  1.00  0.00     0.000 HD 
ENDBRANCH  19  20
BRANCH  19  24
HETATM   24  C   UNL     1     -10.523  11.939  66.974  1.00  0.00    -0.224 A  
HETATM   25  S   UNL     1     -10.641  11.853  64.429  1.00  0.00    -0.347 SA 
HETATM   26  C   UNL     1      -9.749  11.616  65.872  1.00  0.00    -0.235 A  
HETATM   27  C   UNL     1     -11.991  12.360  65.356  1.00  0.00    -0.398 A  
HETATM   28  N   UNL     1     -11.815  12.355  66.652  1.00  0.00    -0.563 NA 
HETATM   29  N   UNL     1     -13.134  12.747  64.771  1.00  0.00    -0.836 NA 
HETATM   30  H1  UNL     1     -13.938  13.049  65.322  1.00  0.00     0.000 HD 
HETATM   31  H2  UNL     1     -13.201  12.740  63.754  1.00  0.00     0.000 HD 
ENDBRANCH  19  24
ENDBRANCH  17  19
ENDBRANCH   5  15
TORSDOF 5
ENDMDL
MODEL       83
REMARK 921   NORMALIZED FREE ENERGY PREDICTED BY IDOCK:   -5.17 KCAL/MOL
REMARK 922        TOTAL FREE ENERGY PREDICTED BY IDOCK:   -7.54 KCAL/MOL
REMARK 923 INTER-LIGAND FREE ENERGY PREDICTED BY IDOCK:   -6.84 KCAL/MOL
REMARK 924 INTRA-LIGAND FREE ENERGY PREDICTED BY IDOCK:   -0.71 KCAL/MOL
REMARK 927      BINDING AFFINITY PREDICTED BY RF-SCORE:    0.00 PKD
ROOT
HETATM    1  C   UNL     1     -10.222   9.661  69.052  1.00  0.00    -0.199 C  
HETATM    2  S   UNL     1      -9.709  11.181  68.222  1.00  0.00    -0.194 SA 
HETATM    3  CG2 UNL     1      -8.065  10.546  67.833  1.00  0.00    -0.107 C  
HETATM    4  CB  UNL     1      -7.336   9.883  68.998  1.00  0.00    -0.080 C  
HETATM    5  CA  UNL     1     -11.370   9.835  70.096  1.00  0.00    -0.251 C  
HETATM    6  CA  UNL     1      -7.967   9.355  70.090  1.00  0.00    -0.150 C  
HETATM    7  N   UNL     1      -9.335   9.402  70.171  1.00  0.00    -0.223 N  
HETATM    8  O   UNL     1     -10.211   9.069  72.290  1.00  0.00    -0.248 OA 
HETATM    9  C   UNL     1      -7.161   8.698  71.197  1.00  0.00    -0.085 C  
HETATM   10  C   UNL     1     -10.299   9.302  71.107  1.00  0.00    -0.322 C  
HETATM   11  O   UNL     1      -7.731   8.610  72.414  1.00  0.00    -0.305 OA 
HETATM   12  OXT UNL     1      -6.041   8.232  71.030  1.00  0.00    -0.033 OA 
ENDROOT
BRANCH   4  13
HETATM   13  CG1 UNL     1      -5.876   9.971  68.857  1.00  0.00    -0.034 C  
HETATM   14  CD1 UNL     1      -5.184  11.024  68.400  1.00  0.00    -0.039 C  
ENDBRANCH   4  13
BRANCH   5  15
HETATM   15  N   UNL     1     -11.813  11.228  70.355  1.00  0.00    -0.364 N  
HETATM   16  H   UNL     1     -11.396  11.977  69.803  1.00  0.00     0.000 HD 
HETATM   17  C   UNL     1     -12.751  11.563  71.297  1.00  0.00    -0.364 C  
HETATM   18  O   UNL     1     -13.309  10.749  72.020  1.00  0.00    -0.447 OA 
BRANCH  17  19
HETATM   19  C   UNL     1     -13.039  13.065  71.437  1.00  0.00    -0.248 C  
BRANCH  19  20
HETATM   20  N   UNL     1     -13.958  13.567  72.223  1.00  0.00    -0.590 NA 
HETATM   21  H   UNL     1     -14.160  14.890  73.697  1.00  0.00     0.000 HD 
HETATM   22  O   UNL     1     -13.493  14.526  73.126  1.00  0.00    -0.609 OA 
HETATM   23  H   UNL     1     -14.936  13.280  72.180  1.00  0.00     0.000 HD 
ENDBRANCH  19  20
BRANCH  19  24
HETATM   24  C   UNL     1     -12.281  14.025  70.630  1.00  0.00    -0.372 A  
HETATM   25  S   UNL     1     -10.717  15.891  69.875  1.00  0.00    -0.347 SA 
HETATM   26  C   UNL     1     -11.414  14.975  71.143  1.00  0.00    -0.309 A  
HETATM   27  C   UNL     1     -11.602  14.969  68.732  1.00  0.00    -0.335 A  
HETATM   28  N   UNL     1     -12.365  14.034  69.237  1.00  0.00    -0.267 NA 
HETATM   29  N   UNL     1     -11.517  15.216  67.417  1.00  0.00    -0.315 NA 
HETATM   30  H1  UNL     1     -12.044  14.667  66.737  1.00  0.00     0.000 HD 
HETATM   31  H2  UNL     1     -10.913  15.970  67.089  1.00  0.00     0.000 HD 
ENDBRANCH  19  24
ENDBRANCH  17  19
ENDBRANCH   5  15
TORSDOF 5
ENDMDL
MODEL       84
REMARK 921   NORMALIZED FREE ENERGY PREDICTED BY IDOCK:   -5.15 KCAL/MOL
REMARK 922        TOTAL FREE ENERGY PREDICTED BY IDOCK:   -7.52 KCAL/MOL
REMARK 923 INTER-LIGAND FREE ENERGY PREDICTED BY IDOCK:   -6.35 KCAL/MOL
REMARK 924 INTRA-LIGAND FREE ENERGY PREDICTED BY IDOCK:   -1.17 KCAL/MOL
REMARK 927      BINDING AFFINITY PREDICTED BY RF-SCORE:    0.00 PKD
ROOT
HETATM    1  C   UNL     1     -11.777   6.482  70.432  1.00  0.00    -0.375 C  
HETATM    2  S   UNL     1     -10.972   6.502  68.815  1.00  0.00    -0.289 SA 
HETATM    3  CG2 UNL     1     -10.225   4.876  69.042  1.00  0.00    -0.094 C  
HETATM    4  CB  UNL     1      -9.520   4.670  70.380  1.00  0.00    -0.241 C  
HETATM    5  CA  UNL     1     -12.109   7.889  71.022  1.00  0.00    -0.230 C  
HETATM    6  CA  UNL     1      -9.799   5.390  71.507  1.00  0.00    -0.168 C  
HETATM    7  N   UNL     1     -10.768   6.359  71.468  1.00  0.00    -0.231 N  
HETATM    8  O   UNL     1     -10.698   7.895  73.203  1.00  0.00    -0.368 OA 
HETATM    9  C   UNL     1      -9.059   5.105  72.802  1.00  0.00    -0.133 C  
HETATM   10  C   UNL     1     -11.147   7.443  72.175  1.00  0.00    -0.252 C  
HETATM   11  O   UNL     1      -9.016   6.086  73.724  1.00  0.00    -0.127 OA 
HETATM   12  OXT UNL     1      -8.524   4.032  73.051  1.00  0.00    -0.091 OA 
ENDROOT
BRANCH   4  13
HETATM   13  CG1 UNL     1      -8.439   3.678  70.286  1.00  0.00    -0.092 C  
HETATM   14  CD1 UNL     1      -7.209   3.888  69.798  1.00  0.00    -0.042 C  
ENDBRANCH   4  13
BRANCH   5  15
HETATM   15  N   UNL     1     -11.625   9.056  70.242  1.00  0.00    -0.455 N  
HETATM   16  H   UNL     1     -11.041   8.880  69.425  1.00  0.00     0.000 HD 
HETATM   17  C   UNL     1     -11.921  10.356  70.560  1.00  0.00    -0.334 C  
HETATM   18  O   UNL     1     -12.605  10.682  71.520  1.00  0.00    -0.388 OA 
BRANCH  17  19
HETATM   19  C   UNL     1     -11.289  11.419  69.648  1.00  0.00    -0.275 C  
BRANCH  19  20
HETATM   20  N   UNL     1     -11.563  12.697  69.711  1.00  0.00    -0.473 NA 
HETATM   21  H   UNL     1     -12.127  14.204  68.539  1.00  0.00     0.000 HD 
HETATM   22  O   UNL     1     -11.928  13.276  68.493  1.00  0.00    -0.339 OA 
HETATM   23  H   UNL     1     -11.513  13.229  70.581  1.00  0.00     0.000 HD 
ENDBRANCH  19  20
BRANCH  19  24
HETATM   24  C   UNL     1     -10.342  11.009  68.608  1.00  0.00    -0.193 A  
HETATM   25  S   UNL     1      -8.225  10.615  67.243  1.00  0.00    -0.117 SA 
HETATM   26  C   UNL     1      -8.983  11.273  68.631  1.00  0.00    -0.147 A  
HETATM   27  C   UNL     1      -9.742  10.021  66.706  1.00  0.00    -0.189 A  
HETATM   28  N   UNL     1     -10.754  10.277  67.494  1.00  0.00    -0.276 NA 
HETATM   29  N   UNL     1      -9.862   9.357  65.547  1.00  0.00    -0.431 NA 
HETATM   30  H1  UNL     1     -10.764   9.004  65.228  1.00  0.00     0.000 HD 
HETATM   31  H2  UNL     1      -9.034   9.202  64.973  1.00  0.00     0.000 HD 
ENDBRANCH  19  24
ENDBRANCH  17  19
ENDBRANCH   5  15
TORSDOF 5
ENDMDL
MODEL       85
REMARK 921   NORMALIZED FREE ENERGY PREDICTED BY IDOCK:   -5.15 KCAL/MOL
REMARK 922        TOTAL FREE ENERGY PREDICTED BY IDOCK:   -7.52 KCAL/MOL
REMARK 923 INTER-LIGAND FREE ENERGY PREDICTED BY IDOCK:   -6.84 KCAL/MOL
REMARK 924 INTRA-LIGAND FREE ENERGY PREDICTED BY IDOCK:   -0.68 KCAL/MOL
REMARK 927      BINDING AFFINITY PREDICTED BY RF-SCORE:    0.00 PKD
ROOT
HETATM    1  C   UNL     1      -8.356  16.526  68.491  1.00  0.00    -0.210 C  
HETATM    2  S   UNL     1      -6.985  16.252  67.348  1.00  0.00    -0.192 SA 
HETATM    3  CG2 UNL     1      -6.425  17.965  67.431  1.00  0.00    -0.164 C  
HETATM    4  CB  UNL     1      -7.522  19.012  67.263  1.00  0.00    -0.243 C  
HETATM    5  CA  UNL     1      -9.539  15.517  68.357  1.00  0.00    -0.199 C  
HETATM    6  CA  UNL     1      -8.846  18.775  67.511  1.00  0.00    -0.274 C  
HETATM    7  N   UNL     1      -9.242  17.536  67.943  1.00  0.00    -0.260 N  
HETATM    8  O   UNL     1     -11.505  17.088  67.714  1.00  0.00     0.055 OA 
HETATM    9  C   UNL     1      -9.869  19.883  67.334  1.00  0.00    -0.409 C  
HETATM   10  C   UNL     1     -10.370  16.800  68.015  1.00  0.00    -0.317 C  
HETATM   11  O   UNL     1     -11.151  19.521  67.139  1.00  0.00    -0.446 OA 
HETATM   12  OXT UNL     1      -9.588  21.074  67.379  1.00  0.00    -0.395 OA 
ENDROOT
BRANCH   4  13
HETATM   13  CG1 UNL     1      -7.004  20.270  66.707  1.00  0.00    -0.293 C  
HETATM   14  CD1 UNL     1      -6.440  21.270  67.398  1.00  0.00    -0.416 C  
ENDBRANCH   4  13
BRANCH   5  15
HETATM   15  N   UNL     1      -9.442  14.539  67.244  1.00  0.00    -0.211 N  
HETATM   16  H   UNL     1      -9.224  14.891  66.312  1.00  0.00     0.000 HD 
HETATM   17  C   UNL     1      -9.630  13.190  67.401  1.00  0.00    -0.219 C  
HETATM   18  O   UNL     1      -9.903  12.662  68.470  1.00  0.00    -0.216 OA 
BRANCH  17  19
HETATM   19  C   UNL     1      -9.525  12.356  66.116  1.00  0.00    -0.199 C  
BRANCH  19  20
HETATM   20  N   UNL     1      -9.772  12.820  64.916  1.00  0.00    -0.504 NA 
HETATM   21  H   UNL     1     -11.084  13.970  63.957  1.00  0.00     0.000 HD 
HETATM   22  O   UNL     1     -10.905  13.633  64.828  1.00  0.00    -0.349 OA 
HETATM   23  H   UNL     1      -9.184  12.606  64.111  1.00  0.00     0.000 HD 
ENDBRANCH  19  20
BRANCH  19  24
HETATM   24  C   UNL     1      -9.165  10.939  66.200  1.00  0.00    -0.184 A  
HETATM   25  S   UNL     1      -7.871   8.748  66.362  1.00  0.00    -0.100 SA 
HETATM   26  C   UNL     1      -7.867  10.457  66.254  1.00  0.00    -0.132 A  
HETATM   27  C   UNL     1      -9.585   8.757  66.335  1.00  0.00    -0.249 A  
HETATM   28  N   UNL     1     -10.138   9.940  66.259  1.00  0.00    -0.246 NA 
HETATM   29  N   UNL     1     -10.291   7.618  66.374  1.00  0.00    -0.467 NA 
HETATM   30  H1  UNL     1     -11.311   7.623  66.358  1.00  0.00     0.000 HD 
HETATM   31  H2  UNL     1      -9.798   6.726  66.420  1.00  0.00     0.000 HD 
ENDBRANCH  19  24
ENDBRANCH  17  19
ENDBRANCH   5  15
TORSDOF 5
ENDMDL
MODEL       86
REMARK 921   NORMALIZED FREE ENERGY PREDICTED BY IDOCK:   -5.14 KCAL/MOL
REMARK 922        TOTAL FREE ENERGY PREDICTED BY IDOCK:   -7.50 KCAL/MOL
REMARK 923 INTER-LIGAND FREE ENERGY PREDICTED BY IDOCK:   -6.50 KCAL/MOL
REMARK 924 INTRA-LIGAND FREE ENERGY PREDICTED BY IDOCK:   -1.00 KCAL/MOL
REMARK 927      BINDING AFFINITY PREDICTED BY RF-SCORE:    0.00 PKD
ROOT
HETATM    1  C   UNL     1     -11.886  12.347  67.724  1.00  0.00    -0.298 C  
HETATM    2  S   UNL     1     -11.305  11.032  68.817  1.00  0.00    -0.311 SA 
HETATM    3  CG2 UNL     1     -12.363  11.548  70.185  1.00  0.00    -0.245 C  
HETATM    4  CB  UNL     1     -12.329  13.041  70.499  1.00  0.00    -0.365 C  
HETATM    5  CA  UNL     1     -10.895  12.742  66.583  1.00  0.00    -0.264 C  
HETATM    6  CA  UNL     1     -11.960  14.001  69.599  1.00  0.00    -0.339 C  
HETATM    7  N   UNL     1     -11.599  13.635  68.329  1.00  0.00    -0.316 N  
HETATM    8  O   UNL     1     -10.415  15.234  67.139  1.00  0.00    -0.269 OA 
HETATM    9  C   UNL     1     -11.973  15.468  69.994  1.00  0.00    -0.364 C  
HETATM   10  C   UNL     1     -10.922  14.145  67.280  1.00  0.00    -0.297 C  
HETATM   11  O   UNL     1     -11.200  16.310  69.284  1.00  0.00    -0.322 OA 
HETATM   12  OXT UNL     1     -12.661  15.915  70.903  1.00  0.00    -0.427 OA 
ENDROOT
BRANCH   4  13
HETATM   13  CG1 UNL     1     -12.642  13.314  71.909  1.00  0.00    -0.145 C  
HETATM   14  CD1 UNL     1     -13.838  13.179  72.498  1.00  0.00    -0.495 C  
ENDBRANCH   4  13
BRANCH   5  15
HETATM   15  N   UNL     1      -9.569  12.075  66.608  1.00  0.00    -0.211 N  
HETATM   16  H   UNL     1      -9.022  12.123  67.468  1.00  0.00     0.000 HD 
HETATM   17  C   UNL     1      -9.040  11.399  65.540  1.00  0.00    -0.137 C  
HETATM   18  O   UNL     1      -9.604  11.286  64.460  1.00  0.00    -0.235 OA 
BRANCH  17  19
HETATM   19  C   UNL     1      -7.636  10.815  65.758  1.00  0.00    -0.079 C  
BRANCH  19  20
HETATM   20  N   UNL     1      -6.703  10.782  64.840  1.00  0.00    -0.359 NA 
HETATM   21  H   UNL     1      -4.803  11.308  64.565  1.00  0.00     0.000 HD 
HETATM   22  O   UNL     1      -5.480  11.331  65.232  1.00  0.00    -0.176 OA 
HETATM   23  H   UNL     1      -6.858  10.388  63.912  1.00  0.00     0.000 HD 
ENDBRANCH  19  20
BRANCH  19  24
HETATM   24  C   UNL     1      -7.295  10.216  67.051  1.00  0.00    -0.091 A  
HETATM   25  S   UNL     1      -6.611   8.587  68.889  1.00  0.00    -0.053 SA 
HETATM   26  C   UNL     1      -6.952   8.887  67.238  1.00  0.00    -0.078 A  
HETATM   27  C   UNL     1      -6.934  10.233  69.247  1.00  0.00    -0.073 A  
HETATM   28  N   UNL     1      -7.268  10.974  68.222  1.00  0.00    -0.082 NA 
HETATM   29  N   UNL     1      -6.861  10.704  70.501  1.00  0.00    -0.468 NA 
HETATM   30  H1  UNL     1      -7.053  11.683  70.713  1.00  0.00     0.000 HD 
HETATM   31  H2  UNL     1      -6.608  10.069  71.257  1.00  0.00     0.000 HD 
ENDBRANCH  19  24
ENDBRANCH  17  19
ENDBRANCH   5  15
TORSDOF 5
ENDMDL
MODEL       87
REMARK 921   NORMALIZED FREE ENERGY PREDICTED BY IDOCK:   -5.09 KCAL/MOL
REMARK 922        TOTAL FREE ENERGY PREDICTED BY IDOCK:   -7.44 KCAL/MOL
REMARK 923 INTER-LIGAND FREE ENERGY PREDICTED BY IDOCK:   -6.49 KCAL/MOL
REMARK 924 INTRA-LIGAND FREE ENERGY PREDICTED BY IDOCK:   -0.95 KCAL/MOL
REMARK 927      BINDING AFFINITY PREDICTED BY RF-SCORE:    0.00 PKD
ROOT
HETATM    1  C   UNL     1      -8.116  16.812  69.023  1.00  0.00    -0.179 C  
HETATM    2  S   UNL     1      -6.746  16.369  67.932  1.00  0.00    -0.145 SA 
HETATM    3  CG2 UNL     1      -6.225  18.081  67.705  1.00  0.00    -0.169 C  
HETATM    4  CB  UNL     1      -7.347  19.058  67.366  1.00  0.00    -0.245 C  
HETATM    5  CA  UNL     1      -9.277  15.770  69.081  1.00  0.00    -0.256 C  
HETATM    6  CA  UNL     1      -8.663  18.841  67.665  1.00  0.00    -0.280 C  
HETATM    7  N   UNL     1      -9.029  17.690  68.314  1.00  0.00    -0.269 N  
HETATM    8  O   UNL     1     -11.282  17.161  68.190  1.00  0.00    -0.236 OA 
HETATM    9  C   UNL     1      -9.713  19.879  67.306  1.00  0.00    -0.387 C  
HETATM   10  C   UNL     1     -10.139  16.955  68.526  1.00  0.00    -0.297 C  
HETATM   11  O   UNL     1     -10.987  19.461  67.192  1.00  0.00    -0.483 OA 
HETATM   12  OXT UNL     1      -9.458  21.064  67.137  1.00  0.00    -0.323 OA 
ENDROOT
BRANCH   4  13
HETATM   13  CG1 UNL     1      -6.861  20.209  66.592  1.00  0.00    -0.261 C  
HETATM   14  CD1 UNL     1      -5.581  20.568  66.421  1.00  0.00    -0.202 C  
ENDBRANCH   4  13
BRANCH   5  15
HETATM   15  N   UNL     1      -9.165  14.613  68.157  1.00  0.00    -0.186 N  
HETATM   16  H   UNL     1      -8.463  14.654  67.418  1.00  0.00     0.000 HD 
HETATM   17  C   UNL     1      -9.952  13.494  68.244  1.00  0.00    -0.237 C  
HETATM   18  O   UNL     1     -10.828  13.343  69.084  1.00  0.00    -0.211 OA 
BRANCH  17  19
HETATM   19  C   UNL     1      -9.704  12.428  67.166  1.00  0.00    -0.207 C  
BRANCH  19  20
HETATM   20  N   UNL     1      -8.808  11.478  67.265  1.00  0.00    -0.156 NA 
HETATM   21  H   UNL     1      -6.943  11.190  67.900  1.00  0.00     0.000 HD 
HETATM   22  O   UNL     1      -7.593  11.879  67.827  1.00  0.00    -0.113 OA 
HETATM   23  H   UNL     1      -8.982  10.522  66.956  1.00  0.00     0.000 HD 
ENDBRANCH  19  20
BRANCH  19  24
HETATM   24  C   UNL     1     -10.474  12.465  65.921  1.00  0.00    -0.256 A  
HETATM   25  S   UNL     1     -11.174  12.720  63.482  1.00  0.00    -0.262 SA 
HETATM   26  C   UNL     1      -9.957  12.813  64.684  1.00  0.00    -0.134 A  
HETATM   27  C   UNL     1     -12.301  12.220  64.674  1.00  0.00    -0.369 A  
HETATM   28  N   UNL     1     -11.825  12.117  65.887  1.00  0.00    -0.546 NA 
HETATM   29  N   UNL     1     -13.583  11.974  64.364  1.00  0.00    -0.077 NA 
HETATM   30  H1  UNL     1     -14.253  11.677  65.073  1.00  0.00     0.000 HD 
HETATM   31  H2  UNL     1     -13.893  12.086  63.399  1.00  0.00     0.000 HD 
ENDBRANCH  19  24
ENDBRANCH  17  19
ENDBRANCH   5  15
TORSDOF 5
ENDMDL
MODEL       88
REMARK 921   NORMALIZED FREE ENERGY PREDICTED BY IDOCK:   -5.08 KCAL/MOL
REMARK 922        TOTAL FREE ENERGY PREDICTED BY IDOCK:   -7.43 KCAL/MOL
REMARK 923 INTER-LIGAND FREE ENERGY PREDICTED BY IDOCK:   -6.48 KCAL/MOL
REMARK 924 INTRA-LIGAND FREE ENERGY PREDICTED BY IDOCK:   -0.95 KCAL/MOL
REMARK 927      BINDING AFFINITY PREDICTED BY RF-SCORE:    0.00 PKD
ROOT
HETATM    1  C   UNL     1      -9.305   9.586  69.198  1.00  0.00    -0.163 C  
HETATM    2  S   UNL     1     -10.366  10.090  70.571  1.00  0.00    -0.029 SA 
HETATM    3  CG2 UNL     1     -10.490   8.417  71.235  1.00  0.00    -0.216 C  
HETATM    4  CB  UNL     1     -10.822   7.338  70.208  1.00  0.00    -0.264 C  
HETATM    5  CA  UNL     1      -9.339  10.533  67.956  1.00  0.00    -0.145 C  
HETATM    6  CA  UNL     1     -10.582   7.460  68.868  1.00  0.00    -0.176 C  
HETATM    7  N   UNL     1     -10.004   8.606  68.387  1.00  0.00    -0.177 N  
HETATM    8  O   UNL     1     -10.234   8.944  66.106  1.00  0.00    -0.259 OA 
HETATM    9  C   UNL     1     -10.929   6.326  67.920  1.00  0.00    -0.327 C  
HETATM   10  C   UNL     1      -9.868   9.258  67.214  1.00  0.00    -0.182 C  
HETATM   11  O   UNL     1     -11.109   6.633  66.622  1.00  0.00    -0.266 OA 
HETATM   12  OXT UNL     1     -11.031   5.158  68.274  1.00  0.00     0.205 OA 
ENDROOT
BRANCH   4  13
HETATM   13  CG1 UNL     1     -11.522   6.196  70.815  1.00  0.00    -0.321 C  
HETATM   14  CD1 UNL     1     -12.219   6.209  71.960  1.00  0.00    -0.192 C  
ENDBRANCH   4  13
BRANCH   5  15
HETATM   15  N   UNL     1     -10.313  11.651  68.013  1.00  0.00    -0.186 N  
HETATM   16  H   UNL     1     -11.305  11.432  67.924  1.00  0.00     0.000 HD 
HETATM   17  C   UNL     1      -9.952  12.963  68.180  1.00  0.00    -0.234 C  
HETATM   18  O   UNL     1      -8.794  13.341  68.290  1.00  0.00    -0.179 OA 
BRANCH  17  19
HETATM   19  C   UNL     1     -11.111  13.973  68.171  1.00  0.00    -0.260 C  
BRANCH  19  20
HETATM   20  N   UNL     1     -11.483  14.654  67.117  1.00  0.00    -0.357 NA 
HETATM   21  H   UNL     1     -12.874  14.635  65.693  1.00  0.00     0.000 HD 
HETATM   22  O   UNL     1     -12.604  14.141  66.458  1.00  0.00    -0.394 OA 
HETATM   23  H   UNL     1     -10.994  15.491  66.802  1.00  0.00     0.000 HD 
ENDBRANCH  19  20
BRANCH  19  24
HETATM   24  C   UNL     1     -11.844  14.243  69.411  1.00  0.00    -0.326 A  
HETATM   25  S   UNL     1     -13.031  15.395  71.351  1.00  0.00    -0.489 SA 
HETATM   26  C   UNL     1     -12.157  15.507  69.881  1.00  0.00    -0.355 A  
HETATM   27  C   UNL     1     -12.941  13.684  71.265  1.00  0.00    -0.322 A  
HETATM   28  N   UNL     1     -12.315  13.208  70.220  1.00  0.00    -0.287 NA 
HETATM   29  N   UNL     1     -13.469  12.908  72.222  1.00  0.00    -0.576 NA 
HETATM   30  H1  UNL     1     -13.415  11.890  72.171  1.00  0.00     0.000 HD 
HETATM   31  H2  UNL     1     -13.933  13.344  73.019  1.00  0.00     0.000 HD 
ENDBRANCH  19  24
ENDBRANCH  17  19
ENDBRANCH   5  15
TORSDOF 5
ENDMDL
MODEL       89
REMARK 921   NORMALIZED FREE ENERGY PREDICTED BY IDOCK:   -5.04 KCAL/MOL
REMARK 922        TOTAL FREE ENERGY PREDICTED BY IDOCK:   -7.37 KCAL/MOL
REMARK 923 INTER-LIGAND FREE ENERGY PREDICTED BY IDOCK:   -6.70 KCAL/MOL
REMARK 924 INTRA-LIGAND FREE ENERGY PREDICTED BY IDOCK:   -0.67 KCAL/MOL
REMARK 927      BINDING AFFINITY PREDICTED BY RF-SCORE:    0.00 PKD
ROOT
HETATM    1  C   UNL     1     -10.423   8.791  69.071  1.00  0.00    -0.203 C  
HETATM    2  S   UNL     1     -10.591   8.527  67.292  1.00  0.00    -0.165 SA 
HETATM    3  CG2 UNL     1     -10.430   6.735  67.429  1.00  0.00    -0.262 C  
HETATM    4  CB  UNL     1      -9.265   6.256  68.291  1.00  0.00    -0.111 C  
HETATM    5  CA  UNL     1      -9.916  10.210  69.482  1.00  0.00    -0.235 C  
HETATM    6  CA  UNL     1      -8.676   7.011  69.265  1.00  0.00    -0.136 C  
HETATM    7  N   UNL     1      -9.140   8.277  69.513  1.00  0.00    -0.153 N  
HETATM    8  O   UNL     1      -7.693   9.644  70.701  1.00  0.00    -0.225 OA 
HETATM    9  C   UNL     1      -7.531   6.446  70.088  1.00  0.00    -0.094 C  
HETATM   10  C   UNL     1      -8.720   9.413  70.106  1.00  0.00    -0.221 C  
HETATM   11  O   UNL     1      -6.703   7.322  70.686  1.00  0.00    -0.047 OA 
HETATM   12  OXT UNL     1      -7.342   5.246  70.244  1.00  0.00    -0.063 OA 
ENDROOT
BRANCH   4  13
HETATM   13  CG1 UNL     1      -8.786   4.928  67.880  1.00  0.00    -0.106 C  
HETATM   14  CD1 UNL     1      -8.059   4.647  66.790  1.00  0.00    -0.103 C  
ENDBRANCH   4  13
BRANCH   5  15
HETATM   15  N   UNL     1      -9.531  11.114  68.370  1.00  0.00    -0.182 N  
HETATM   16  H   UNL     1      -8.751  10.840  67.774  1.00  0.00     0.000 HD 
HETATM   17  C   UNL     1     -10.168  12.298  68.101  1.00  0.00    -0.212 C  
HETATM   18  O   UNL     1     -11.108  12.728  68.754  1.00  0.00    -0.239 OA 
BRANCH  17  19
HETATM   19  C   UNL     1      -9.589  13.107  66.930  1.00  0.00    -0.248 C  
BRANCH  19  20
HETATM   20  N   UNL     1      -8.323  13.418  66.807  1.00  0.00    -0.420 NA 
HETATM   21  H   UNL     1      -6.995  14.738  67.485  1.00  0.00     0.000 HD 
HETATM   22  O   UNL     1      -7.914  14.512  67.574  1.00  0.00    -0.162 OA 
HETATM   23  H   UNL     1      -7.686  12.903  66.200  1.00  0.00     0.000 HD 
ENDBRANCH  19  20
BRANCH  19  24
HETATM   24  C   UNL     1     -10.484  13.610  65.885  1.00  0.00    -0.296 A  
HETATM   25  S   UNL     1     -12.297  13.811  64.104  1.00  0.00    -0.263 SA 
HETATM   26  C   UNL     1     -11.456  12.855  65.250  1.00  0.00    -0.313 A  
HETATM   27  C   UNL     1     -11.324  15.159  64.525  1.00  0.00    -0.290 A  
HETATM   28  N   UNL     1     -10.434  14.937  65.458  1.00  0.00    -0.332 NA 
HETATM   29  N   UNL     1     -11.472  16.345  63.917  1.00  0.00    -1.618 NA 
HETATM   30  H1  UNL     1     -10.893  17.146  64.168  1.00  0.00     0.000 HD 
HETATM   31  H2  UNL     1     -12.177  16.447  63.187  1.00  0.00     0.000 HD 
ENDBRANCH  19  24
ENDBRANCH  17  19
ENDBRANCH   5  15
TORSDOF 5
ENDMDL
MODEL       90
REMARK 921   NORMALIZED FREE ENERGY PREDICTED BY IDOCK:   -5.03 KCAL/MOL
REMARK 922        TOTAL FREE ENERGY PREDICTED BY IDOCK:   -7.36 KCAL/MOL
REMARK 923 INTER-LIGAND FREE ENERGY PREDICTED BY IDOCK:   -6.50 KCAL/MOL
REMARK 924 INTRA-LIGAND FREE ENERGY PREDICTED BY IDOCK:   -0.87 KCAL/MOL
REMARK 927      BINDING AFFINITY PREDICTED BY RF-SCORE:    0.00 PKD
ROOT
HETATM    1  C   UNL     1      -9.541  14.941  66.434  1.00  0.00    -0.293 C  
HETATM    2  S   UNL     1     -11.202  15.155  67.111  1.00  0.00    -0.284 SA 
HETATM    3  CG2 UNL     1     -11.005  16.935  67.331  1.00  0.00    -0.073 C  
HETATM    4  CB  UNL     1      -9.709  17.362  68.013  1.00  0.00    -0.281 C  
HETATM    5  CA  UNL     1      -8.945  13.506  66.588  1.00  0.00    -0.117 C  
HETATM    6  CA  UNL     1      -8.573  16.602  68.036  1.00  0.00    -0.193 C  
HETATM    7  N   UNL     1      -8.564  15.380  67.414  1.00  0.00    -0.169 N  
HETATM    8  O   UNL     1      -6.849  13.959  68.055  1.00  0.00    -0.109 OA 
HETATM    9  C   UNL     1      -7.320  17.115  68.725  1.00  0.00    -0.241 C  
HETATM   10  C   UNL     1      -7.845  14.239  67.430  1.00  0.00    -0.187 C  
HETATM   11  O   UNL     1      -6.411  16.205  69.121  1.00  0.00    -0.144 OA 
HETATM   12  OXT UNL     1      -7.094  18.303  68.914  1.00  0.00    -0.274 OA 
ENDROOT
BRANCH   4  13
HETATM   13  CG1 UNL     1      -9.856  18.639  68.726  1.00  0.00    -0.422 C  
HETATM   14  CD1 UNL     1     -10.256  19.804  68.196  1.00  0.00    -0.577 C  
ENDBRANCH   4  13
BRANCH   5  15
HETATM   15  N   UNL     1      -9.761  12.539  67.364  1.00  0.00    -0.192 N  
HETATM   16  H   UNL     1      -9.844  12.677  68.371  1.00  0.00     0.000 HD 
HETATM   17  C   UNL     1     -10.409  11.470  66.801  1.00  0.00    -0.226 C  
HETATM   18  O   UNL     1     -10.371  11.205  65.607  1.00  0.00    -0.242 OA 
BRANCH  17  19
HETATM   19  C   UNL     1     -11.168  10.566  67.783  1.00  0.00    -0.273 C  
BRANCH  19  20
HETATM   20  N   UNL     1     -12.283  10.903  68.381  1.00  0.00    -0.810 NA 
HETATM   21  H   UNL     1     -13.020  12.326  69.561  1.00  0.00     0.000 HD 
HETATM   22  O   UNL     1     -12.211  12.081  69.128  1.00  0.00    -0.210 OA 
HETATM   23  H   UNL     1     -13.136  10.349  68.307  1.00  0.00     0.000 HD 
ENDBRANCH  19  20
BRANCH  19  24
HETATM   24  C   UNL     1     -10.621   9.250  68.125  1.00  0.00    -0.198 A  
HETATM   25  S   UNL     1      -9.709   6.873  68.006  1.00  0.00    -0.132 SA 
HETATM   26  C   UNL     1     -10.349   8.247  67.210  1.00  0.00    -0.302 A  
HETATM   27  C   UNL     1      -9.828   7.695  69.506  1.00  0.00    -0.178 A  
HETATM   28  N   UNL     1     -10.302   8.912  69.441  1.00  0.00    -0.210 NA 
HETATM   29  N   UNL     1      -9.470   7.106  70.656  1.00  0.00    -0.162 NA 
HETATM   30  H1  UNL     1      -9.541   7.596  71.548  1.00  0.00     0.000 HD 
HETATM   31  H2  UNL     1      -9.119   6.149  70.638  1.00  0.00     0.000 HD 
ENDBRANCH  19  24
ENDBRANCH  17  19
ENDBRANCH   5  15
TORSDOF 5
ENDMDL
MODEL       91
REMARK 921   NORMALIZED FREE ENERGY PREDICTED BY IDOCK:   -5.03 KCAL/MOL
REMARK 922        TOTAL FREE ENERGY PREDICTED BY IDOCK:   -7.36 KCAL/MOL
REMARK 923 INTER-LIGAND FREE ENERGY PREDICTED BY IDOCK:   -6.43 KCAL/MOL
REMARK 924 INTRA-LIGAND FREE ENERGY PREDICTED BY IDOCK:   -0.93 KCAL/MOL
REMARK 927      BINDING AFFINITY PREDICTED BY RF-SCORE:    0.00 PKD
ROOT
HETATM    1  C   UNL     1      -9.791  15.725  69.256  1.00  0.00    -0.265 C  
HETATM    2  S   UNL     1      -8.056  15.262  69.450  1.00  0.00    -0.193 SA 
HETATM    3  CG2 UNL     1      -7.453  16.918  69.063  1.00  0.00    -0.220 C  
HETATM    4  CB  UNL     1      -8.067  17.553  67.818  1.00  0.00    -0.221 C  
HETATM    5  CA  UNL     1     -10.755  14.545  68.917  1.00  0.00    -0.254 C  
HETATM    6  CA  UNL     1      -9.277  17.191  67.295  1.00  0.00    -0.230 C  
HETATM    7  N   UNL     1     -10.010  16.206  67.905  1.00  0.00    -0.236 N  
HETATM    8  O   UNL     1     -11.680  15.269  66.600  1.00  0.00    -0.140 OA 
HETATM    9  C   UNL     1      -9.819  17.891  66.061  1.00  0.00    -0.170 C  
HETATM   10  C   UNL     1     -11.023  15.366  67.610  1.00  0.00    -0.315 C  
HETATM   11  O   UNL     1     -10.740  17.236  65.329  1.00  0.00    -0.637 OA 
HETATM   12  OXT UNL     1      -9.477  19.015  65.719  1.00  0.00    -0.399 OA 
ENDROOT
BRANCH   4  13
HETATM   13  CG1 UNL     1      -7.160  18.526  67.192  1.00  0.00    -0.214 C  
HETATM   14  CD1 UNL     1      -6.644  19.618  67.772  1.00  0.00    -0.260 C  
ENDBRANCH   4  13
BRANCH   5  15
HETATM   15  N   UNL     1     -10.117  13.225  68.686  1.00  0.00    -0.372 N  
HETATM   16  H   UNL     1      -9.098  13.174  68.693  1.00  0.00     0.000 HD 
HETATM   17  C   UNL     1     -10.821  12.070  68.464  1.00  0.00    -0.233 C  
HETATM   18  O   UNL     1     -12.043  12.016  68.427  1.00  0.00    -0.412 OA 
BRANCH  17  19
HETATM   19  C   UNL     1      -9.971  10.817  68.207  1.00  0.00    -0.168 C  
BRANCH  19  20
HETATM   20  N   UNL     1      -9.474  10.494  67.039  1.00  0.00    -0.161 NA 
HETATM   21  H   UNL     1      -8.919  11.335  65.323  1.00  0.00     0.000 HD 
HETATM   22  O   UNL     1      -9.279  11.570  66.170  1.00  0.00    -0.211 OA 
HETATM   23  H   UNL     1      -9.249   9.532  66.784  1.00  0.00     0.000 HD 
ENDBRANCH  19  20
BRANCH  19  24
HETATM   24  C   UNL     1      -9.708   9.883  69.305  1.00  0.00    -0.208 A  
HETATM   25  S   UNL     1      -9.859   8.548  71.471  1.00  0.00    -0.267 SA 
HETATM   26  C   UNL     1     -10.495   9.755  70.436  1.00  0.00    -0.297 A  
HETATM   27  C   UNL     1      -8.588   8.271  70.353  1.00  0.00    -0.134 A  
HETATM   28  N   UNL     1      -8.620   9.010  69.275  1.00  0.00    -0.133 NA 
HETATM   29  N   UNL     1      -7.628   7.366  70.596  1.00  0.00    -0.085 NA 
HETATM   30  H1  UNL     1      -6.872   7.202  69.931  1.00  0.00     0.000 HD 
HETATM   31  H2  UNL     1      -7.655   6.832  71.464  1.00  0.00     0.000 HD 
ENDBRANCH  19  24
ENDBRANCH  17  19
ENDBRANCH   5  15
TORSDOF 5
ENDMDL
MODEL       92
REMARK 921   NORMALIZED FREE ENERGY PREDICTED BY IDOCK:   -5.01 KCAL/MOL
REMARK 922        TOTAL FREE ENERGY PREDICTED BY IDOCK:   -7.34 KCAL/MOL
REMARK 923 INTER-LIGAND FREE ENERGY PREDICTED BY IDOCK:   -6.49 KCAL/MOL
REMARK 924 INTRA-LIGAND FREE ENERGY PREDICTED BY IDOCK:   -0.85 KCAL/MOL
REMARK 927      BINDING AFFINITY PREDICTED BY RF-SCORE:    0.00 PKD
ROOT
HETATM    1  C   UNL     1     -12.703  11.586  69.916  1.00  0.00     0.150 C  
HETATM    2  S   UNL     1     -12.882  11.016  71.620  1.00  0.00    -0.382 SA 
HETATM    3  CG2 UNL     1     -13.651  12.552  72.172  1.00  0.00    -0.360 C  
HETATM    4  CB  UNL     1     -12.934  13.826  71.735  1.00  0.00    -0.441 C  
HETATM    5  CA  UNL     1     -11.576  10.879  69.098  1.00  0.00    -0.319 C  
HETATM    6  CA  UNL     1     -12.100  13.899  70.654  1.00  0.00    -0.347 C  
HETATM    7  N   UNL     1     -11.879  12.780  69.893  1.00  0.00    -0.326 N  
HETATM    8  O   UNL     1     -10.010  12.871  68.526  1.00  0.00    -0.223 OA 
HETATM    9  C   UNL     1     -11.442  15.216  70.280  1.00  0.00    -0.282 C  
HETATM   10  C   UNL     1     -10.979  12.324  68.999  1.00  0.00    -0.201 C  
HETATM   11  O   UNL     1     -10.321  15.163  69.538  1.00  0.00    -0.235 OA 
HETATM   12  OXT UNL     1     -11.890  16.309  70.603  1.00  0.00    -0.283 OA 
ENDROOT
BRANCH   4  13
HETATM   13  CG1 UNL     1     -13.165  14.937  72.669  1.00  0.00    -0.535 C  
HETATM   14  CD1 UNL     1     -12.547  15.130  73.843  1.00  0.00    -0.690 C  
ENDBRANCH   4  13
BRANCH   5  15
HETATM   15  N   UNL     1     -10.728   9.920  69.848  1.00  0.00    -0.259 N  
HETATM   16  H   UNL     1     -10.417  10.181  70.784  1.00  0.00     0.000 HD 
HETATM   17  C   UNL     1     -10.340   8.702  69.352  1.00  0.00    -0.218 C  
HETATM   18  O   UNL     1     -10.648   8.291  68.242  1.00  0.00    -0.187 OA 
BRANCH  17  19
HETATM   19  C   UNL     1      -9.429   7.875  70.272  1.00  0.00    -0.163 C  
BRANCH  19  20
HETATM   20  N   UNL     1      -9.018   8.273  71.449  1.00  0.00    -0.152 NA 
HETATM   21  H   UNL     1      -9.741   8.893  73.197  1.00  0.00     0.000 HD 
HETATM   22  O   UNL     1     -10.040   8.604  72.343  1.00  0.00    -0.307 OA 
HETATM   23  H   UNL     1      -8.030   8.337  71.695  1.00  0.00     0.000 HD 
ENDBRANCH  19  20
BRANCH  19  24
HETATM   24  C   UNL     1      -8.940   6.569  69.822  1.00  0.00    -0.142 A  
HETATM   25  S   UNL     1      -7.603   4.709  68.702  1.00  0.00    -0.068 SA 
HETATM   26  C   UNL     1      -7.861   6.381  68.975  1.00  0.00    -0.110 A  
HETATM   27  C   UNL     1      -8.931   4.346  69.725  1.00  0.00    -0.098 A  
HETATM   28  N   UNL     1      -9.534   5.381  70.249  1.00  0.00    -0.156 NA 
HETATM   29  N   UNL     1      -9.318   3.081  69.945  1.00  0.00    -0.155 NA 
HETATM   30  H1  UNL     1     -10.108   2.864  70.553  1.00  0.00     0.000 HD 
HETATM   31  H2  UNL     1      -8.811   2.319  69.494  1.00  0.00     0.000 HD 
ENDBRANCH  19  24
ENDBRANCH  17  19
ENDBRANCH   5  15
TORSDOF 5
ENDMDL
MODEL       93
REMARK 921   NORMALIZED FREE ENERGY PREDICTED BY IDOCK:   -5.00 KCAL/MOL
REMARK 922        TOTAL FREE ENERGY PREDICTED BY IDOCK:   -7.33 KCAL/MOL
REMARK 923 INTER-LIGAND FREE ENERGY PREDICTED BY IDOCK:   -6.23 KCAL/MOL
REMARK 924 INTRA-LIGAND FREE ENERGY PREDICTED BY IDOCK:   -1.09 KCAL/MOL
REMARK 927      BINDING AFFINITY PREDICTED BY RF-SCORE:    0.00 PKD
ROOT
HETATM    1  C   UNL     1     -10.005  14.707  68.885  1.00  0.00    -0.228 C  
HETATM    2  S   UNL     1      -8.652  13.593  68.449  1.00  0.00    -0.115 SA 
HETATM    3  CG2 UNL     1      -7.390  14.659  69.176  1.00  0.00    -0.143 C  
HETATM    4  CB  UNL     1      -7.486  16.131  68.786  1.00  0.00    -0.189 C  
HETATM    5  CA  UNL     1     -11.284  14.569  68.001  1.00  0.00    -0.292 C  
HETATM    6  CA  UNL     1      -8.635  16.731  68.351  1.00  0.00    -0.235 C  
HETATM    7  N   UNL     1      -9.788  15.995  68.253  1.00  0.00    -0.216 N  
HETATM    8  O   UNL     1     -11.448  16.932  66.936  1.00  0.00     0.474 OA 
HETATM    9  C   UNL     1      -8.643  18.209  68.000  1.00  0.00    -0.265 C  
HETATM   10  C   UNL     1     -10.984  16.063  67.636  1.00  0.00    -0.284 C  
HETATM   11  O   UNL     1      -9.610  18.647  67.173  1.00  0.00    -0.287 OA 
HETATM   12  OXT UNL     1      -7.833  19.012  68.446  1.00  0.00    -0.309 OA 
ENDROOT
BRANCH   4  13
HETATM   13  CG1 UNL     1      -6.179  16.801  68.836  1.00  0.00    -0.162 C  
HETATM   14  CD1 UNL     1      -5.177  16.655  67.957  1.00  0.00    -0.122 C  
ENDBRANCH   4  13
BRANCH   5  15
HETATM   15  N   UNL     1     -11.189  13.631  66.854  1.00  0.00    -0.304 N  
HETATM   16  H   UNL     1     -10.285  13.201  66.658  1.00  0.00     0.000 HD 
HETATM   17  C   UNL     1     -12.248  13.312  66.046  1.00  0.00    -0.424 C  
HETATM   18  O   UNL     1     -13.373  13.773  66.185  1.00  0.00     0.071 OA 
BRANCH  17  19
HETATM   19  C   UNL     1     -11.930  12.352  64.889  1.00  0.00    -0.398 C  
BRANCH  19  20
HETATM   20  N   UNL     1     -12.589  12.321  63.758  1.00  0.00    -0.709 NA 
HETATM   21  H   UNL     1     -13.020  13.486  62.202  1.00  0.00     0.000 HD 
HETATM   22  O   UNL     1     -12.542  13.508  63.023  1.00  0.00    -0.716 OA 
HETATM   23  H   UNL     1     -13.097  11.496  63.439  1.00  0.00     0.000 HD 
ENDBRANCH  19  20
BRANCH  19  24
HETATM   24  C   UNL     1     -10.851  11.372  65.038  1.00  0.00    -0.246 A  
HETATM   25  S   UNL     1      -8.851   9.850  64.610  1.00  0.00    -0.223 SA 
HETATM   26  C   UNL     1      -9.970  11.012  64.032  1.00  0.00    -0.335 A  
HETATM   27  C   UNL     1      -9.601   9.905  66.151  1.00  0.00    -0.218 A  
HETATM   28  N   UNL     1     -10.612  10.729  66.253  1.00  0.00    -0.226 NA 
HETATM   29  N   UNL     1      -9.176   9.135  67.163  1.00  0.00    -0.132 NA 
HETATM   30  H1  UNL     1      -9.623   9.168  68.080  1.00  0.00     0.000 HD 
HETATM   31  H2  UNL     1      -8.389   8.504  67.013  1.00  0.00     0.000 HD 
ENDBRANCH  19  24
ENDBRANCH  17  19
ENDBRANCH   5  15
TORSDOF 5
ENDMDL
MODEL       94
REMARK 921   NORMALIZED FREE ENERGY PREDICTED BY IDOCK:   -5.00 KCAL/MOL
REMARK 922        TOTAL FREE ENERGY PREDICTED BY IDOCK:   -7.32 KCAL/MOL
REMARK 923 INTER-LIGAND FREE ENERGY PREDICTED BY IDOCK:   -6.50 KCAL/MOL
REMARK 924 INTRA-LIGAND FREE ENERGY PREDICTED BY IDOCK:   -0.82 KCAL/MOL
REMARK 927      BINDING AFFINITY PREDICTED BY RF-SCORE:    0.00 PKD
ROOT
HETATM    1  C   UNL     1      -9.149   9.558  68.931  1.00  0.00    -0.141 C  
HETATM    2  S   UNL     1      -9.156   8.000  68.018  1.00  0.00    -0.128 SA 
HETATM    3  CG2 UNL     1      -8.949   8.807  66.418  1.00  0.00    -0.158 C  
HETATM    4  CB  UNL     1      -9.882   9.987  66.164  1.00  0.00    -0.309 C  
HETATM    5  CA  UNL     1      -9.866   9.514  70.318  1.00  0.00    -0.261 C  
HETATM    6  CA  UNL     1     -10.481  10.713  67.155  1.00  0.00    -0.245 C  
HETATM    7  N   UNL     1     -10.244  10.391  68.467  1.00  0.00    -0.165 N  
HETATM    8  O   UNL     1     -11.769  11.251  69.985  1.00  0.00    -0.296 OA 
HETATM    9  C   UNL     1     -11.383  11.885  66.811  1.00  0.00    -0.330 C  
HETATM   10  C   UNL     1     -10.799  10.598  69.678  1.00  0.00    -0.268 C  
HETATM   11  O   UNL     1     -12.284  12.269  67.734  1.00  0.00    -0.425 OA 
HETATM   12  OXT UNL     1     -11.315  12.500  65.754  1.00  0.00    -0.306 OA 
ENDROOT
BRANCH   4  13
HETATM   13  CG1 UNL     1     -10.142  10.187  64.731  1.00  0.00    -0.250 C  
HETATM   14  CD1 UNL     1      -9.268  10.639  63.820  1.00  0.00    -0.280 C  
ENDBRANCH   4  13
BRANCH   5  15
HETATM   15  N   UNL     1     -10.555   8.243  70.657  1.00  0.00    -0.211 N  
HETATM   16  H   UNL     1     -10.960   7.696  69.897  1.00  0.00     0.000 HD 
HETATM   17  C   UNL     1     -10.676   7.764  71.936  1.00  0.00    -0.225 C  
HETATM   18  O   UNL     1     -10.236   8.340  72.922  1.00  0.00    -0.295 OA 
BRANCH  17  19
HETATM   19  C   UNL     1     -11.460   6.451  72.078  1.00  0.00    -0.305 C  
BRANCH  19  20
HETATM   20  N   UNL     1     -12.759   6.384  72.227  1.00  0.00    -0.540 NA 
HETATM   21  H   UNL     1     -14.429   7.203  71.517  1.00  0.00     0.000 HD 
HETATM   22  O   UNL     1     -13.486   7.252  71.409  1.00  0.00    -0.388 OA 
HETATM   23  H   UNL     1     -13.205   5.749  72.890  1.00  0.00     0.000 HD 
ENDBRANCH  19  20
BRANCH  19  24
HETATM   24  C   UNL     1     -10.740   5.175  72.086  1.00  0.00    -0.187 A  
HETATM   25  S   UNL     1      -9.287   3.180  71.445  1.00  0.00    -0.148 SA 
HETATM   26  C   UNL     1      -9.973   4.696  71.037  1.00  0.00    -0.200 A  
HETATM   27  C   UNL     1     -10.043   3.261  72.982  1.00  0.00    -0.146 A  
HETATM   28  N   UNL     1     -10.756   4.335  73.201  1.00  0.00    -0.192 NA 
HETATM   29  N   UNL     1      -9.914   2.271  73.878  1.00  0.00    -0.095 NA 
HETATM   30  H1  UNL     1     -10.363   2.319  74.792  1.00  0.00     0.000 HD 
HETATM   31  H2  UNL     1      -9.353   1.453  73.639  1.00  0.00     0.000 HD 
ENDBRANCH  19  24
ENDBRANCH  17  19
ENDBRANCH   5  15
TORSDOF 5
ENDMDL
MODEL       95
REMARK 921   NORMALIZED FREE ENERGY PREDICTED BY IDOCK:   -4.94 KCAL/MOL
REMARK 922        TOTAL FREE ENERGY PREDICTED BY IDOCK:   -7.24 KCAL/MOL
REMARK 923 INTER-LIGAND FREE ENERGY PREDICTED BY IDOCK:   -6.18 KCAL/MOL
REMARK 924 INTRA-LIGAND FREE ENERGY PREDICTED BY IDOCK:   -1.06 KCAL/MOL
REMARK 927      BINDING AFFINITY PREDICTED BY RF-SCORE:    0.00 PKD
ROOT
HETATM    1  C   UNL     1      -8.720  10.690  66.660  1.00  0.00    -0.140 C  
HETATM    2  S   UNL     1      -9.065   9.668  65.211  1.00  0.00    -0.234 SA 
HETATM    3  CG2 UNL     1      -9.659  11.061  64.230  1.00  0.00    -0.262 C  
HETATM    4  CB  UNL     1     -10.665  11.966  64.936  1.00  0.00    -0.350 C  
HETATM    5  CA  UNL     1      -8.716   9.925  68.021  1.00  0.00    -0.125 C  
HETATM    6  CA  UNL     1     -10.777  12.066  66.295  1.00  0.00    -0.267 C  
HETATM    7  N   UNL     1      -9.948  11.329  67.099  1.00  0.00    -0.190 N  
HETATM    8  O   UNL     1     -10.646  11.105  69.297  1.00  0.00    -0.217 OA 
HETATM    9  C   UNL     1     -11.798  13.007  66.912  1.00  0.00    -0.380 C  
HETATM   10  C   UNL     1      -9.894  10.896  68.375  1.00  0.00    -0.177 C  
HETATM   11  O   UNL     1     -12.192  12.755  68.174  1.00  0.00    -0.198 OA 
HETATM   12  OXT UNL     1     -12.255  13.982  66.329  1.00  0.00    -0.433 OA 
ENDROOT
BRANCH   4  13
HETATM   13  CG1 UNL     1     -11.565  12.637  63.987  1.00  0.00    -0.486 C  
HETATM   14  CD1 UNL     1     -12.657  12.108  63.418  1.00  0.00    -0.584 C  
ENDBRANCH   4  13
BRANCH   5  15
HETATM   15  N   UNL     1      -9.104   8.493  67.967  1.00  0.00    -0.140 N  
HETATM   16  H   UNL     1      -9.324   8.087  67.057  1.00  0.00     0.000 HD 
HETATM   17  C   UNL     1      -9.182   7.686  69.073  1.00  0.00    -0.140 C  
HETATM   18  O   UNL     1      -8.948   8.069  70.211  1.00  0.00    -0.144 OA 
BRANCH  17  19
HETATM   19  C   UNL     1      -9.641   6.245  68.807  1.00  0.00    -0.121 C  
BRANCH  19  20
HETATM   20  N   UNL     1     -10.422   5.563  69.607  1.00  0.00    -0.290 NA 
HETATM   21  H   UNL     1     -12.269   5.606  70.349  1.00  0.00     0.000 HD 
HETATM   22  O   UNL     1     -11.702   6.100  69.769  1.00  0.00    -0.340 OA 
HETATM   23  H   UNL     1     -10.121   4.709  70.075  1.00  0.00     0.000 HD 
ENDBRANCH  19  20
BRANCH  19  24
HETATM   24  C   UNL     1      -9.167   5.543  67.611  1.00  0.00    -0.110 A  
HETATM   25  S   UNL     1      -8.190   3.811  66.016  1.00  0.00    -0.101 SA 
HETATM   26  C   UNL     1      -8.597   4.281  67.612  1.00  0.00    -0.103 A  
HETATM   27  C   UNL     1      -8.799   5.303  65.430  1.00  0.00    -0.152 A  
HETATM   28  N   UNL     1      -9.283   6.107  66.340  1.00  0.00    -0.151 NA 
HETATM   29  N   UNL     1      -8.758   5.610  64.125  1.00  0.00    -0.347 NA 
HETATM   30  H1  UNL     1      -9.120   6.498  63.776  1.00  0.00     0.000 HD 
HETATM   31  H2  UNL     1      -8.355   4.943  63.468  1.00  0.00     0.000 HD 
ENDBRANCH  19  24
ENDBRANCH  17  19
ENDBRANCH   5  15
TORSDOF 5
ENDMDL
MODEL       96
REMARK 921   NORMALIZED FREE ENERGY PREDICTED BY IDOCK:   -4.93 KCAL/MOL
REMARK 922        TOTAL FREE ENERGY PREDICTED BY IDOCK:   -7.23 KCAL/MOL
REMARK 923 INTER-LIGAND FREE ENERGY PREDICTED BY IDOCK:   -6.38 KCAL/MOL
REMARK 924 INTRA-LIGAND FREE ENERGY PREDICTED BY IDOCK:   -0.85 KCAL/MOL
REMARK 927      BINDING AFFINITY PREDICTED BY RF-SCORE:    0.00 PKD
ROOT
HETATM    1  C   UNL     1      -8.731  13.344  68.789  1.00  0.00     0.128 C  
HETATM    2  S   UNL     1      -7.527  13.255  67.446  1.00  0.00    -0.073 SA 
HETATM    3  CG2 UNL     1      -7.129  15.013  67.536  1.00  0.00    -0.197 C  
HETATM    4  CB  UNL     1      -8.335  15.946  67.585  1.00  0.00    -0.165 C  
HETATM    5  CA  UNL     1      -9.818  12.223  68.776  1.00  0.00    -0.004 C  
HETATM    6  CA  UNL     1      -9.577  15.566  68.010  1.00  0.00    -0.203 C  
HETATM    7  N   UNL     1      -9.783  14.277  68.430  1.00  0.00    -0.221 N  
HETATM    8  O   UNL     1     -12.000  13.607  68.509  1.00  0.00    -0.356 OA 
HETATM    9  C   UNL     1     -10.718  16.568  68.042  1.00  0.00    -0.343 C  
HETATM   10  C   UNL     1     -10.811  13.426  68.626  1.00  0.00    -0.263 C  
HETATM   11  O   UNL     1     -11.973  16.083  68.018  1.00  0.00    -0.017 OA 
HETATM   12  OXT UNL     1     -10.549  17.779  68.109  1.00  0.00    -0.378 OA 
ENDROOT
BRANCH   4  13
HETATM   13  CG1 UNL     1      -8.029  17.272  67.028  1.00  0.00    -0.242 C  
HETATM   14  CD1 UNL     1      -6.913  17.984  67.237  1.00  0.00    -0.204 C  
ENDBRANCH   4  13
BRANCH   5  15
HETATM   15  N   UNL     1      -9.795  11.304  67.610  1.00  0.00    -0.173 N  
HETATM   16  H   UNL     1      -9.635  11.703  66.685  1.00  0.00     0.000 HD 
HETATM   17  C   UNL     1      -9.977   9.949  67.710  1.00  0.00    -0.165 C  
HETATM   18  O   UNL     1     -10.183   9.366  68.766  1.00  0.00    -0.190 OA 
BRANCH  17  19
HETATM   19  C   UNL     1      -9.957   9.181  66.379  1.00  0.00    -0.288 C  
BRANCH  19  20
HETATM   20  N   UNL     1      -9.954   7.875  66.285  1.00  0.00    -0.476 NA 
HETATM   21  H   UNL     1     -11.060   6.298  66.790  1.00  0.00     0.000 HD 
HETATM   22  O   UNL     1     -11.062   7.246  66.859  1.00  0.00    -0.287 OA 
HETATM   23  H   UNL     1      -9.202   7.358  65.830  1.00  0.00     0.000 HD 
ENDBRANCH  19  20
BRANCH  19  24
HETATM   24  C   UNL     1      -9.903   9.922  65.117  1.00  0.00    -0.278 A  
HETATM   25  S   UNL     1      -9.291  10.730  62.778  1.00  0.00    -0.337 SA 
HETATM   26  C   UNL     1      -9.028   9.649  64.079  1.00  0.00    -0.223 A  
HETATM   27  C   UNL     1     -10.548  11.484  63.669  1.00  0.00    -0.429 A  
HETATM   28  N   UNL     1     -10.776  10.978  64.853  1.00  0.00    -0.255 NA 
HETATM   29  N   UNL     1     -11.224  12.531  63.174  1.00  0.00    -0.738 NA 
HETATM   30  H1  UNL     1     -11.972  12.979  63.704  1.00  0.00     0.000 HD 
HETATM   31  H2  UNL     1     -10.987  12.886  62.248  1.00  0.00     0.000 HD 
ENDBRANCH  19  24
ENDBRANCH  17  19
ENDBRANCH   5  15
TORSDOF 5
ENDMDL
MODEL       97
REMARK 921   NORMALIZED FREE ENERGY PREDICTED BY IDOCK:   -4.93 KCAL/MOL
REMARK 922        TOTAL FREE ENERGY PREDICTED BY IDOCK:   -7.23 KCAL/MOL
REMARK 923 INTER-LIGAND FREE ENERGY PREDICTED BY IDOCK:   -6.26 KCAL/MOL
REMARK 924 INTRA-LIGAND FREE ENERGY PREDICTED BY IDOCK:   -0.97 KCAL/MOL
REMARK 927      BINDING AFFINITY PREDICTED BY RF-SCORE:    0.00 PKD
ROOT
HETATM    1  C   UNL     1     -11.041  10.480  68.352  1.00  0.00    -0.281 C  
HETATM    2  S   UNL     1      -9.934  11.661  67.552  1.00  0.00    -0.189 SA 
HETATM    3  CG2 UNL     1      -8.705  10.404  67.145  1.00  0.00    -0.129 C  
HETATM    4  CB  UNL     1      -8.327   9.474  68.294  1.00  0.00    -0.118 C  
HETATM    5  CA  UNL     1     -12.017  11.098  69.402  1.00  0.00    -0.349 C  
HETATM    6  CA  UNL     1      -9.127   9.237  69.377  1.00  0.00    -0.152 C  
HETATM    7  N   UNL     1     -10.350   9.851  69.462  1.00  0.00    -0.213 N  
HETATM    8  O   UNL     1     -11.298   9.872  71.577  1.00  0.00    -0.343 OA 
HETATM    9  C   UNL     1      -8.678   8.280  70.468  1.00  0.00    -0.140 C  
HETATM   10  C   UNL     1     -11.274  10.145  70.399  1.00  0.00    -0.330 C  
HETATM   11  O   UNL     1      -9.239   8.415  71.683  1.00  0.00    -0.165 OA 
HETATM   12  OXT UNL     1      -7.854   7.392  70.288  1.00  0.00    -0.092 OA 
ENDROOT
BRANCH   4  13
HETATM   13  CG1 UNL     1      -6.964   8.945  68.150  1.00  0.00    -0.077 C  
HETATM   14  CD1 UNL     1      -5.824   9.618  68.361  1.00  0.00    -0.040 C  
ENDBRANCH   4  13
BRANCH   5  15
HETATM   15  N   UNL     1     -11.837  12.542  69.692  1.00  0.00    -0.323 N  
HETATM   16  H   UNL     1     -11.232  13.086  69.075  1.00  0.00     0.000 HD 
HETATM   17  C   UNL     1     -12.439  13.186  70.742  1.00  0.00    -0.308 C  
HETATM   18  O   UNL     1     -13.176  12.633  71.546  1.00  0.00    -0.345 OA 
BRANCH  17  19
HETATM   19  C   UNL     1     -12.090  14.675  70.890  1.00  0.00    -0.328 C  
BRANCH  19  20
HETATM   20  N   UNL     1     -12.522  15.437  71.864  1.00  0.00    -0.344 NA 
HETATM   21  H   UNL     1     -14.213  16.228  72.556  1.00  0.00     0.000 HD 
HETATM   22  O   UNL     1     -13.899  15.675  71.850  1.00  0.00    -0.471 OA 
HETATM   23  H   UNL     1     -11.903  15.825  72.575  1.00  0.00     0.000 HD 
ENDBRANCH  19  20
BRANCH  19  24
HETATM   24  C   UNL     1     -11.253  15.326  69.880  1.00  0.00    -0.288 A  
HETATM   25  S   UNL     1     -10.438  16.669  67.872  1.00  0.00    -0.331 SA 
HETATM   26  C   UNL     1     -11.735  16.064  68.813  1.00  0.00    -0.299 A  
HETATM   27  C   UNL     1      -9.325  15.920  68.940  1.00  0.00    -0.233 A  
HETATM   28  N   UNL     1      -9.859  15.266  69.938  1.00  0.00    -0.189 NA 
HETATM   29  N   UNL     1      -8.001  15.998  68.737  1.00  0.00    -0.183 NA 
HETATM   30  H1  UNL     1      -7.339  15.553  69.373  1.00  0.00     0.000 HD 
HETATM   31  H2  UNL     1      -7.650  16.514  67.931  1.00  0.00     0.000 HD 
ENDBRANCH  19  24
ENDBRANCH  17  19
ENDBRANCH   5  15
TORSDOF 5
ENDMDL
MODEL       98
REMARK 921   NORMALIZED FREE ENERGY PREDICTED BY IDOCK:   -4.89 KCAL/MOL
REMARK 922        TOTAL FREE ENERGY PREDICTED BY IDOCK:   -7.18 KCAL/MOL
REMARK 923 INTER-LIGAND FREE ENERGY PREDICTED BY IDOCK:   -6.30 KCAL/MOL
REMARK 924 INTRA-LIGAND FREE ENERGY PREDICTED BY IDOCK:   -0.88 KCAL/MOL
REMARK 927      BINDING AFFINITY PREDICTED BY RF-SCORE:    0.00 PKD
ROOT
HETATM    1  C   UNL     1      -8.955  10.071  67.947  1.00  0.00    -0.131 C  
HETATM    2  S   UNL     1      -9.654   9.441  66.405  1.00  0.00    -0.245 SA 
HETATM    3  CG2 UNL     1     -10.267  11.058  65.890  1.00  0.00    -0.254 C  
HETATM    4  CB  UNL     1     -11.034  11.829  66.961  1.00  0.00    -0.333 C  
HETATM    5  CA  UNL     1      -8.788   9.008  69.078  1.00  0.00    -0.136 C  
HETATM    6  CA  UNL     1     -10.893  11.613  68.304  1.00  0.00    -0.219 C  
HETATM    7  N   UNL     1     -10.013  10.660  68.747  1.00  0.00    -0.185 N  
HETATM    8  O   UNL     1     -10.330   9.966  70.936  1.00  0.00    -0.253 OA 
HETATM    9  C   UNL     1     -11.686  12.440  69.301  1.00  0.00    -0.329 C  
HETATM   10  C   UNL     1      -9.779   9.936  69.861  1.00  0.00    -0.235 C  
HETATM   11  O   UNL     1     -11.874  11.922  70.529  1.00  0.00    -0.320 OA 
HETATM   12  OXT UNL     1     -12.137  13.550  69.048  1.00  0.00    -0.341 OA 
ENDROOT
BRANCH   4  13
HETATM   13  CG1 UNL     1     -12.014  12.756  66.378  1.00  0.00    -0.443 C  
HETATM   14  CD1 UNL     1     -12.433  12.771  65.104  1.00  0.00    -0.565 C  
ENDBRANCH   4  13
BRANCH   5  15
HETATM   15  N   UNL     1      -9.323   7.654  68.788  1.00  0.00    -0.149 N  
HETATM   16  H   UNL     1     -10.336   7.529  68.774  1.00  0.00     0.000 HD 
HETATM   17  C   UNL     1      -8.532   6.564  68.537  1.00  0.00    -0.124 C  
HETATM   18  O   UNL     1      -7.309   6.597  68.536  1.00  0.00    -0.083 OA 
BRANCH  17  19
HETATM   19  C   UNL     1      -9.282   5.244  68.300  1.00  0.00    -0.114 C  
BRANCH  19  20
HETATM   20  N   UNL     1      -9.889   4.565  69.240  1.00  0.00    -0.192 NA 
HETATM   21  H   UNL     1     -10.709   4.828  71.035  1.00  0.00     0.000 HD 
HETATM   22  O   UNL     1     -10.268   5.321  70.353  1.00  0.00    -0.231 OA 
HETATM   23  H   UNL     1     -10.071   3.564  69.166  1.00  0.00     0.000 HD 
ENDBRANCH  19  20
BRANCH  19  24
HETATM   24  C   UNL     1      -9.311   4.660  66.956  1.00  0.00    -0.141 A  
HETATM   25  S   UNL     1      -8.693   3.446  64.802  1.00  0.00    -0.114 SA 
HETATM   26  C   UNL     1      -8.255   3.984  66.368  1.00  0.00    -0.101 A  
HETATM   27  C   UNL     1     -10.249   4.137  65.007  1.00  0.00    -0.203 A  
HETATM   28  N   UNL     1     -10.453   4.726  66.157  1.00  0.00    -0.306 NA 
HETATM   29  N   UNL     1     -11.172   4.080  64.036  1.00  0.00    -0.553 NA 
HETATM   30  H1  UNL     1     -12.098   4.491  64.159  1.00  0.00     0.000 HD 
HETATM   31  H2  UNL     1     -10.944   3.616  63.158  1.00  0.00     0.000 HD 
ENDBRANCH  19  24
ENDBRANCH  17  19
ENDBRANCH   5  15
TORSDOF 5
ENDMDL
MODEL       99
REMARK 921   NORMALIZED FREE ENERGY PREDICTED BY IDOCK:   -4.87 KCAL/MOL
REMARK 922        TOTAL FREE ENERGY PREDICTED BY IDOCK:   -7.15 KCAL/MOL
REMARK 923 INTER-LIGAND FREE ENERGY PREDICTED BY IDOCK:   -6.45 KCAL/MOL
REMARK 924 INTRA-LIGAND FREE ENERGY PREDICTED BY IDOCK:   -0.70 KCAL/MOL
REMARK 927      BINDING AFFINITY PREDICTED BY RF-SCORE:    0.00 PKD
ROOT
HETATM    1  C   UNL     1      -9.099  10.781  67.656  1.00  0.00    -0.147 C  
HETATM    2  S   UNL     1      -8.627   9.047  67.840  1.00  0.00    -0.125 SA 
HETATM    3  CG2 UNL     1      -7.832   8.975  66.222  1.00  0.00    -0.099 C  
HETATM    4  CB  UNL     1      -8.654   9.552  65.072  1.00  0.00    -0.187 C  
HETATM    5  CA  UNL     1     -10.319  11.228  68.522  1.00  0.00    -0.203 C  
HETATM    6  CA  UNL     1      -9.654  10.469  65.236  1.00  0.00    -0.249 C  
HETATM    7  N   UNL     1      -9.957  10.923  66.494  1.00  0.00    -0.204 N  
HETATM    8  O   UNL     1     -12.025  11.948  66.701  1.00  0.00    -0.601 OA 
HETATM    9  C   UNL     1     -10.409  11.004  64.031  1.00  0.00    -0.371 C  
HETATM   10  C   UNL     1     -10.974  11.536  67.133  1.00  0.00    -0.286 C  
HETATM   11  O   UNL     1     -11.634  11.521  64.244  1.00  0.00    -0.265 OA 
HETATM   12  OXT UNL     1      -9.953  11.003  62.895  1.00  0.00    -0.299 OA 
ENDROOT
BRANCH   4  13
HETATM   13  CG1 UNL     1      -8.313   8.931  63.785  1.00  0.00    -0.164 C  
HETATM   14  CD1 UNL     1      -7.747   7.728  63.608  1.00  0.00    -0.131 C  
ENDBRANCH   4  13
BRANCH   5  15
HETATM   15  N   UNL     1     -11.001  10.159  69.293  1.00  0.00    -0.231 N  
HETATM   16  H   UNL     1     -10.728   9.191  69.119  1.00  0.00     0.000 HD 
HETATM   17  C   UNL     1     -11.976  10.400  70.225  1.00  0.00    -0.302 C  
HETATM   18  O   UNL     1     -12.385  11.518  70.507  1.00  0.00    -0.350 OA 
BRANCH  17  19
HETATM   19  C   UNL     1     -12.584   9.152  70.883  1.00  0.00    -0.062 C  
BRANCH  19  20
HETATM   20  N   UNL     1     -13.870   8.937  71.001  1.00  0.00    -0.583 NA 
HETATM   21  H   UNL     1     -15.318   9.009  72.366  1.00  0.00     0.000 HD 
HETATM   22  O   UNL     1     -14.384   9.165  72.280  1.00  0.00    -0.372 OA 
HETATM   23  H   UNL     1     -14.450   8.627  70.222  1.00  0.00     0.000 HD 
ENDBRANCH  19  20
BRANCH  19  24
HETATM   24  C   UNL     1     -11.701   8.134  71.457  1.00  0.00    -0.286 A  
HETATM   25  S   UNL     1      -9.799   6.946  72.670  1.00  0.00    -0.168 SA 
HETATM   26  C   UNL     1     -10.534   8.403  72.153  1.00  0.00    -0.326 A  
HETATM   27  C   UNL     1     -11.073   6.055  71.946  1.00  0.00    -0.277 A  
HETATM   28  N   UNL     1     -11.996   6.773  71.360  1.00  0.00    -0.338 NA 
HETATM   29  N   UNL     1     -11.093   4.714  71.975  1.00  0.00     0.171 NA 
HETATM   30  H1  UNL     1     -11.852   4.185  71.544  1.00  0.00     0.000 HD 
HETATM   31  H2  UNL     1     -10.335   4.214  72.438  1.00  0.00     0.000 HD 
ENDBRANCH  19  24
ENDBRANCH  17  19
ENDBRANCH   5  15
TORSDOF 5
ENDMDL
MODEL      100
REMARK 921   NORMALIZED FREE ENERGY PREDICTED BY IDOCK:   -4.84 KCAL/MOL
REMARK 922        TOTAL FREE ENERGY PREDICTED BY IDOCK:   -7.12 KCAL/MOL
REMARK 923 INTER-LIGAND FREE ENERGY PREDICTED BY IDOCK:   -6.08 KCAL/MOL
REMARK 924 INTRA-LIGAND FREE ENERGY PREDICTED BY IDOCK:   -1.04 KCAL/MOL
REMARK 927      BINDING AFFINITY PREDICTED BY RF-SCORE:    0.00 PKD
ROOT
HETATM    1  C   UNL     1     -11.870  11.169  69.206  1.00  0.00    -0.352 C  
HETATM    2  S   UNL     1     -12.042  10.664  70.932  1.00  0.00    -0.390 SA 
HETATM    3  CG2 UNL     1     -13.134  12.040  71.343  1.00  0.00    -0.197 C  
HETATM    4  CB  UNL     1     -12.657  13.409  70.863  1.00  0.00    -0.406 C  
HETATM    5  CA  UNL     1     -10.576  10.662  68.496  1.00  0.00    -0.200 C  
HETATM    6  CA  UNL     1     -11.787  13.592  69.825  1.00  0.00    -0.329 C  
HETATM    7  N   UNL     1     -11.299  12.502  69.151  1.00  0.00    -0.271 N  
HETATM    8  O   UNL     1      -9.401  12.896  67.881  1.00  0.00    -0.193 OA 
HETATM    9  C   UNL     1     -11.380  14.993  69.404  1.00  0.00    -0.297 C  
HETATM   10  C   UNL     1     -10.271  12.191  68.336  1.00  0.00    -0.210 C  
HETATM   11  O   UNL     1     -10.225  15.128  68.726  1.00  0.00    -0.220 OA 
HETATM   12  OXT UNL     1     -12.056  15.988  69.632  1.00  0.00    -0.276 OA 
ENDROOT
BRANCH   4  13
HETATM   13  CG1 UNL     1     -13.163  14.497  71.711  1.00  0.00    -0.429 C  
HETATM   14  CD1 UNL     1     -12.978  14.627  73.033  1.00  0.00    -0.610 C  
ENDBRANCH   4  13
BRANCH   5  15
HETATM   15  N   UNL     1      -9.604   9.934  69.349  1.00  0.00    -0.202 N  
HETATM   16  H   UNL     1      -9.770   9.909  70.356  1.00  0.00     0.000 HD 
HETATM   17  C   UNL     1      -8.495   9.294  68.860  1.00  0.00    -0.129 C  
HETATM   18  O   UNL     1      -8.194   9.266  67.674  1.00  0.00    -0.114 OA 
BRANCH  17  19
HETATM   19  C   UNL     1      -7.594   8.634  69.915  1.00  0.00    -0.071 C  
BRANCH  19  20
HETATM   20  N   UNL     1      -6.508   9.181  70.399  1.00  0.00    -0.045 NA 
HETATM   21  H   UNL     1      -5.850  10.926  71.096  1.00  0.00     0.000 HD 
HETATM   22  O   UNL     1      -6.638  10.528  70.744  1.00  0.00    -0.343 OA 
HETATM   23  H   UNL     1      -5.636   8.665  70.515  1.00  0.00     0.000 HD 
ENDBRANCH  19  20
BRANCH  19  24
HETATM   24  C   UNL     1      -7.920   7.293  70.407  1.00  0.00    -0.104 A  
HETATM   25  S   UNL     1      -7.911   5.084  71.680  1.00  0.00    -0.110 SA 
HETATM   26  C   UNL     1      -7.200   6.612  71.374  1.00  0.00    -0.082 A  
HETATM   27  C   UNL     1      -9.126   5.426  70.519  1.00  0.00    -0.142 A  
HETATM   28  N   UNL     1      -9.032   6.593  69.937  1.00  0.00    -0.144 NA 
HETATM   29  N   UNL     1     -10.087   4.536  70.231  1.00  0.00    -0.212 NA 
HETATM   30  H1  UNL     1     -10.810   4.739  69.540  1.00  0.00     0.000 HD 
HETATM   31  H2  UNL     1     -10.095   3.637  70.713  1.00  0.00     0.000 HD 
ENDBRANCH  19  24
ENDBRANCH  17  19
ENDBRANCH   5  15
TORSDOF 5
ENDMDL
MODEL      101
REMARK 921   NORMALIZED FREE ENERGY PREDICTED BY IDOCK:   -4.80 KCAL/MOL
REMARK 922        TOTAL FREE ENERGY PREDICTED BY IDOCK:   -7.06 KCAL/MOL
REMARK 923 INTER-LIGAND FREE ENERGY PREDICTED BY IDOCK:   -5.93 KCAL/MOL
REMARK 924 INTRA-LIGAND FREE ENERGY PREDICTED BY IDOCK:   -1.14 KCAL/MOL
REMARK 927      BINDING AFFINITY PREDICTED BY RF-SCORE:    0.00 PKD
ROOT
HETATM    1  C   UNL     1      -8.622  14.783  69.557  1.00  0.00     0.106 C  
HETATM    2  S   UNL     1     -10.171  15.441  68.899  1.00  0.00    -0.229 SA 
HETATM    3  CG2 UNL     1     -10.871  13.805  68.603  1.00  0.00    -0.263 C  
HETATM    4  CB  UNL     1      -9.946  12.828  67.882  1.00  0.00    -0.229 C  
HETATM    5  CA  UNL     1      -7.399  15.747  69.453  1.00  0.00    -0.217 C  
HETATM    6  CA  UNL     1      -8.583  12.934  67.871  1.00  0.00    -0.185 C  
HETATM    7  N   UNL     1      -7.980  13.966  68.544  1.00  0.00    -0.141 N  
HETATM    8  O   UNL     1      -5.786  14.392  67.933  1.00  0.00    -0.147 OA 
HETATM    9  C   UNL     1      -7.739  11.905  67.141  1.00  0.00    -0.163 C  
HETATM   10  C   UNL     1      -6.795  14.608  68.563  1.00  0.00    -0.098 C  
HETATM   11  O   UNL     1      -6.498  12.269  66.768  1.00  0.00    -0.092 OA 
HETATM   12  OXT UNL     1      -8.123  10.768  66.899  1.00  0.00    -0.123 OA 
ENDROOT
BRANCH   4  13
HETATM   13  CG1 UNL     1     -10.696  11.820  67.118  1.00  0.00    -0.283 C  
HETATM   14  CD1 UNL     1     -11.621  12.062  66.179  1.00  0.00    -0.371 C  
ENDBRANCH   4  13
BRANCH   5  15
HETATM   15  N   UNL     1      -7.632  17.024  68.732  1.00  0.00    -0.235 N  
HETATM   16  H   UNL     1      -8.592  17.276  68.496  1.00  0.00     0.000 HD 
HETATM   17  C   UNL     1      -6.628  17.883  68.366  1.00  0.00    -0.205 C  
HETATM   18  O   UNL     1      -5.443  17.677  68.591  1.00  0.00    -0.148 OA 
BRANCH  17  19
HETATM   19  C   UNL     1      -7.076  19.131  67.591  1.00  0.00    -0.225 C  
BRANCH  19  20
HETATM   20  N   UNL     1      -6.334  20.197  67.423  1.00  0.00    -0.200 NA 
HETATM   21  H   UNL     1      -5.508  21.672  68.473  1.00  0.00     0.000 HD 
HETATM   22  O   UNL     1      -6.046  20.898  68.596  1.00  0.00    -0.340 OA 
HETATM   23  H   UNL     1      -5.994  20.491  66.507  1.00  0.00     0.000 HD 
ENDBRANCH  19  20
BRANCH  19  24
HETATM   24  C   UNL     1      -8.425  19.183  67.022  1.00  0.00    -0.285 A  
HETATM   25  S   UNL     1     -10.765  19.927  66.336  1.00  0.00    -0.194 SA 
HETATM   26  C   UNL     1      -9.298  20.249  67.159  1.00  0.00    -0.405 A  
HETATM   27  C   UNL     1     -10.148  18.402  65.850  1.00  0.00    -0.162 A  
HETATM   28  N   UNL     1      -8.934  18.134  66.254  1.00  0.00    -0.458 NA 
HETATM   29  N   UNL     1     -10.884  17.552  65.119  1.00  0.00    -0.636 NA 
HETATM   30  H1  UNL     1     -10.517  16.645  64.830  1.00  0.00     0.000 HD 
HETATM   31  H2  UNL     1     -11.830  17.817  64.847  1.00  0.00     0.000 HD 
ENDBRANCH  19  24
ENDBRANCH  17  19
ENDBRANCH   5  15
TORSDOF 5
ENDMDL
MODEL      102
REMARK 921   NORMALIZED FREE ENERGY PREDICTED BY IDOCK:   -4.80 KCAL/MOL
REMARK 922        TOTAL FREE ENERGY PREDICTED BY IDOCK:   -7.06 KCAL/MOL
REMARK 923 INTER-LIGAND FREE ENERGY PREDICTED BY IDOCK:   -6.01 KCAL/MOL
REMARK 924 INTRA-LIGAND FREE ENERGY PREDICTED BY IDOCK:   -1.05 KCAL/MOL
REMARK 927      BINDING AFFINITY PREDICTED BY RF-SCORE:    0.00 PKD
ROOT
HETATM    1  C   UNL     1      -9.782  14.941  68.374  1.00  0.00    -0.209 C  
HETATM    2  S   UNL     1      -8.041  14.459  68.399  1.00  0.00    -0.148 SA 
HETATM    3  CG2 UNL     1      -7.458  16.156  68.589  1.00  0.00    -0.179 C  
HETATM    4  CB  UNL     1      -8.084  17.165  67.630  1.00  0.00    -0.187 C  
HETATM    5  CA  UNL     1     -10.735  13.933  67.659  1.00  0.00    -0.249 C  
HETATM    6  CA  UNL     1      -9.293  16.986  67.018  1.00  0.00    -0.241 C  
HETATM    7  N   UNL     1     -10.013  15.845  67.262  1.00  0.00    -0.236 N  
HETATM    8  O   UNL     1     -11.680  15.381  65.721  1.00  0.00    -0.038 OA 
HETATM    9  C   UNL     1      -9.849  18.053  66.090  1.00  0.00    -0.249 C  
HETATM   10  C   UNL     1     -11.018  15.142  66.704  1.00  0.00    -0.318 C  
HETATM   11  O   UNL     1     -10.766  17.672  65.182  1.00  0.00    -0.658 OA 
HETATM   12  OXT UNL     1      -9.519  19.231  66.145  1.00  0.00    -0.346 OA 
ENDROOT
BRANCH   4  13
HETATM   13  CG1 UNL     1      -7.191  18.302  67.365  1.00  0.00    -0.208 C  
HETATM   14  CD1 UNL     1      -6.098  18.290  66.589  1.00  0.00    -0.189 C  
ENDBRANCH   4  13
BRANCH   5  15
HETATM   15  N   UNL     1     -10.085  12.774  66.998  1.00  0.00    -0.237 N  
HETATM   16  H   UNL     1      -9.076  12.662  67.105  1.00  0.00     0.000 HD 
HETATM   17  C   UNL     1     -10.765  11.847  66.251  1.00  0.00    -0.271 C  
HETATM   18  O   UNL     1     -11.971  11.888  66.051  1.00  0.00    -0.511 OA 
BRANCH  17  19
HETATM   19  C   UNL     1      -9.899  10.747  65.618  1.00  0.00    -0.245 C  
BRANCH  19  20
HETATM   20  N   UNL     1     -10.244  10.061  64.557  1.00  0.00    -0.364 NA 
HETATM   21  H   UNL     1     -10.249  10.208  62.571  1.00  0.00     0.000 HD 
HETATM   22  O   UNL     1      -9.999  10.705  63.342  1.00  0.00    -0.320 OA 
HETATM   23  H   UNL     1     -10.658   9.131  64.613  1.00  0.00     0.000 HD 
ENDBRANCH  19  20
BRANCH  19  24
HETATM   24  C   UNL     1      -8.618  10.390  66.232  1.00  0.00    -0.142 A  
HETATM   25  S   UNL     1      -6.154   9.870  66.628  1.00  0.00    -0.061 SA 
HETATM   26  C   UNL     1      -7.416  10.297  65.552  1.00  0.00    -0.149 A  
HETATM   27  C   UNL     1      -7.278   9.842  67.923  1.00  0.00    -0.084 A  
HETATM   28  N   UNL     1      -8.511  10.133  67.600  1.00  0.00    -0.118 NA 
HETATM   29  N   UNL     1      -6.900   9.523  69.169  1.00  0.00    -0.049 NA 
HETATM   30  H1  UNL     1      -7.569   9.506  69.940  1.00  0.00     0.000 HD 
HETATM   31  H2  UNL     1      -5.924   9.293  69.351  1.00  0.00     0.000 HD 
ENDBRANCH  19  24
ENDBRANCH  17  19
ENDBRANCH   5  15
TORSDOF 5
ENDMDL
MODEL      103
REMARK 921   NORMALIZED FREE ENERGY PREDICTED BY IDOCK:   -4.75 KCAL/MOL
REMARK 922        TOTAL FREE ENERGY PREDICTED BY IDOCK:   -7.00 KCAL/MOL
REMARK 923 INTER-LIGAND FREE ENERGY PREDICTED BY IDOCK:   -6.08 KCAL/MOL
REMARK 924 INTRA-LIGAND FREE ENERGY PREDICTED BY IDOCK:   -0.92 KCAL/MOL
REMARK 927      BINDING AFFINITY PREDICTED BY RF-SCORE:    0.00 PKD
ROOT
HETATM    1  C   UNL     1      -7.468   7.445  68.577  1.00  0.00    -0.105 C  
HETATM    2  S   UNL     1      -7.118   9.115  69.170  1.00  0.00    -0.063 SA 
HETATM    3  CG2 UNL     1      -7.548   8.719  70.877  1.00  0.00    -0.102 C  
HETATM    4  CB  UNL     1      -8.868   7.974  71.055  1.00  0.00    -0.153 C  
HETATM    5  CA  UNL     1      -7.816   7.344  67.058  1.00  0.00    -0.116 C  
HETATM    6  CA  UNL     1      -9.461   7.229  70.074  1.00  0.00    -0.161 C  
HETATM    7  N   UNL     1      -8.856   7.121  68.848  1.00  0.00    -0.131 N  
HETATM    8  O   UNL     1     -10.231   6.393  67.130  1.00  0.00    -0.157 OA 
HETATM    9  C   UNL     1     -10.769   6.506  70.344  1.00  0.00    -0.255 C  
HETATM   10  C   UNL     1      -9.182   6.785  67.583  1.00  0.00    -0.118 C  
HETATM   11  O   UNL     1     -11.532   6.183  69.284  1.00  0.00    -0.404 OA 
HETATM   12  OXT UNL     1     -11.144   6.189  71.466  1.00  0.00    -0.266 OA 
ENDROOT
BRANCH   4  13
HETATM   13  CG1 UNL     1      -9.475   8.233  72.368  1.00  0.00    -0.357 C  
HETATM   14  CD1 UNL     1      -8.883   8.081  73.561  1.00  0.00    -0.333 C  
ENDBRANCH   4  13
BRANCH   5  15
HETATM   15  N   UNL     1      -7.926   8.631  66.325  1.00  0.00    -0.101 N  
HETATM   16  H   UNL     1      -7.831   9.497  66.856  1.00  0.00     0.000 HD 
HETATM   17  C   UNL     1      -8.147   8.719  64.975  1.00  0.00    -0.144 C  
HETATM   18  O   UNL     1      -8.284   7.747  64.245  1.00  0.00    -0.121 OA 
BRANCH  17  19
HETATM   19  C   UNL     1      -8.270  10.145  64.418  1.00  0.00    -0.165 C  
BRANCH  19  20
HETATM   20  N   UNL     1      -7.294  10.789  63.828  1.00  0.00    -0.329 NA 
HETATM   21  H   UNL     1      -5.310  10.749  63.662  1.00  0.00     0.000 HD 
HETATM   22  O   UNL     1      -6.019  10.282  64.090  1.00  0.00    -0.132 OA 
HETATM   23  H   UNL     1      -7.452  11.597  63.226  1.00  0.00     0.000 HD 
ENDBRANCH  19  20
BRANCH  19  24
HETATM   24  C   UNL     1      -9.531  10.875  64.569  1.00  0.00    -0.244 A  
HETATM   25  S   UNL     1     -11.440  12.301  65.475  1.00  0.00    -0.357 SA 
HETATM   26  C   UNL     1      -9.904  11.578  65.702  1.00  0.00    -0.236 A  
HETATM   27  C   UNL     1     -11.508  11.642  63.893  1.00  0.00    -0.343 A  
HETATM   28  N   UNL     1     -10.467  10.935  63.536  1.00  0.00    -0.285 NA 
HETATM   29  N   UNL     1     -12.572  11.835  63.101  1.00  0.00    -0.905 NA 
HETATM   30  H1  UNL     1     -12.612  11.443  62.160  1.00  0.00     0.000 HD 
HETATM   31  H2  UNL     1     -13.357  12.387  63.446  1.00  0.00     0.000 HD 
ENDBRANCH  19  24
ENDBRANCH  17  19
ENDBRANCH   5  15
TORSDOF 5
ENDMDL
MODEL      104
REMARK 921   NORMALIZED FREE ENERGY PREDICTED BY IDOCK:   -4.72 KCAL/MOL
REMARK 922        TOTAL FREE ENERGY PREDICTED BY IDOCK:   -6.96 KCAL/MOL
REMARK 923 INTER-LIGAND FREE ENERGY PREDICTED BY IDOCK:   -6.30 KCAL/MOL
REMARK 924 INTRA-LIGAND FREE ENERGY PREDICTED BY IDOCK:   -0.67 KCAL/MOL
REMARK 927      BINDING AFFINITY PREDICTED BY RF-SCORE:    0.00 PKD
ROOT
HETATM    1  C   UNL     1      -8.850   9.740  68.493  1.00  0.00    -0.121 C  
HETATM    2  S   UNL     1     -10.135  10.664  69.363  1.00  0.00    -0.124 SA 
HETATM    3  CG2 UNL     1     -10.509   9.303  70.488  1.00  0.00    -0.255 C  
HETATM    4  CB  UNL     1     -10.693   7.944  69.818  1.00  0.00    -0.233 C  
HETATM    5  CA  UNL     1      -8.561  10.224  67.037  1.00  0.00    -0.129 C  
HETATM    6  CA  UNL     1     -10.172   7.619  68.596  1.00  0.00    -0.199 C  
HETATM    7  N   UNL     1      -9.430   8.545  67.909  1.00  0.00    -0.138 N  
HETATM    8  O   UNL     1      -9.159   8.111  65.649  1.00  0.00    -0.142 OA 
HETATM    9  C   UNL     1     -10.392   6.234  68.012  1.00  0.00    -0.192 C  
HETATM   10  C   UNL     1      -9.010   8.774  66.649  1.00  0.00    -0.139 C  
HETATM   11  O   UNL     1     -10.278   6.096  66.679  1.00  0.00    -0.189 OA 
HETATM   12  OXT UNL     1     -10.644   5.248  68.693  1.00  0.00    -0.142 OA 
ENDROOT
BRANCH   4  13
HETATM   13  CG1 UNL     1     -11.580   7.064  70.592  1.00  0.00    -0.379 C  
HETATM   14  CD1 UNL     1     -11.390   6.656  71.855  1.00  0.00    -0.318 C  
ENDBRANCH   4  13
BRANCH   5  15
HETATM   15  N   UNL     1      -9.447  11.295  66.516  1.00  0.00    -0.188 N  
HETATM   16  H   UNL     1     -10.380  11.036  66.197  1.00  0.00     0.000 HD 
HETATM   17  C   UNL     1      -9.079  12.614  66.441  1.00  0.00    -0.110 C  
HETATM   18  O   UNL     1      -7.984  13.035  66.788  1.00  0.00     0.030 OA 
BRANCH  17  19
HETATM   19  C   UNL     1     -10.128  13.558  65.833  1.00  0.00    -0.303 C  
BRANCH  19  20
HETATM   20  N   UNL     1     -10.909  13.241  64.831  1.00  0.00    -0.326 NA 
HETATM   21  H   UNL     1     -12.794  12.718  64.463  1.00  0.00     0.000 HD 
HETATM   22  O   UNL     1     -12.227  12.949  65.190  1.00  0.00    -0.415 OA 
HETATM   23  H   UNL     1     -10.580  13.208  63.866  1.00  0.00     0.000 HD 
ENDBRANCH  19  20
BRANCH  19  24
HETATM   24  C   UNL     1     -10.267  14.919  66.358  1.00  0.00    -0.284 A  
HETATM   25  S   UNL     1     -10.522  16.933  67.900  1.00  0.00    -0.353 SA 
HETATM   26  C   UNL     1     -10.401  15.236  67.699  1.00  0.00    -0.250 A  
HETATM   27  C   UNL     1     -10.384  17.136  66.202  1.00  0.00    -0.322 A  
HETATM   28  N   UNL     1     -10.249  16.031  65.515  1.00  0.00    -0.458 NA 
HETATM   29  N   UNL     1     -10.430  18.351  65.638  1.00  0.00    -0.619 NA 
HETATM   30  H1  UNL     1     -10.348  18.472  64.628  1.00  0.00     0.000 HD 
HETATM   31  H2  UNL     1     -10.550  19.172  66.230  1.00  0.00     0.000 HD 
ENDBRANCH  19  24
ENDBRANCH  17  19
ENDBRANCH   5  15
TORSDOF 5
ENDMDL
MODEL      105
REMARK 921   NORMALIZED FREE ENERGY PREDICTED BY IDOCK:   -4.71 KCAL/MOL
REMARK 922        TOTAL FREE ENERGY PREDICTED BY IDOCK:   -6.95 KCAL/MOL
REMARK 923 INTER-LIGAND FREE ENERGY PREDICTED BY IDOCK:   -6.24 KCAL/MOL
REMARK 924 INTRA-LIGAND FREE ENERGY PREDICTED BY IDOCK:   -0.71 KCAL/MOL
REMARK 927      BINDING AFFINITY PREDICTED BY RF-SCORE:    0.00 PKD
ROOT
HETATM    1  C   UNL     1      -8.137   8.628  68.439  1.00  0.00    -0.118 C  
HETATM    2  S   UNL     1      -7.926   9.677  69.894  1.00  0.00    -0.183 SA 
HETATM    3  CG2 UNL     1      -7.568   8.285  70.985  1.00  0.00    -0.081 C  
HETATM    4  CB  UNL     1      -8.535   7.110  70.872  1.00  0.00    -0.133 C  
HETATM    5  CA  UNL     1      -9.021   9.240  67.307  1.00  0.00    -0.123 C  
HETATM    6  CA  UNL     1      -9.301   6.857  69.768  1.00  0.00    -0.146 C  
HETATM    7  N   UNL     1      -9.214   7.685  68.680  1.00  0.00    -0.142 N  
HETATM    8  O   UNL     1     -10.973   7.531  67.179  1.00  0.00    -0.293 OA 
HETATM    9  C   UNL     1     -10.226   5.652  69.737  1.00  0.00    -0.251 C  
HETATM   10  C   UNL     1      -9.932   7.994  67.581  1.00  0.00    -0.180 C  
HETATM   11  O   UNL     1     -11.261   5.685  68.876  1.00  0.00    -0.092 OA 
HETATM   12  OXT UNL     1     -10.063   4.659  70.434  1.00  0.00    -0.237 OA 
ENDROOT
BRANCH   4  13
HETATM   13  CG1 UNL     1      -8.622   6.344  72.124  1.00  0.00    -0.125 C  
HETATM   14  CD1 UNL     1      -9.047   6.805  73.309  1.00  0.00    -0.148 C  
ENDBRANCH   4  13
BRANCH   5  15
HETATM   15  N   UNL     1      -9.664  10.543  67.611  1.00  0.00    -0.163 N  
HETATM   16  H   UNL     1     -10.548  10.537  68.120  1.00  0.00     0.000 HD 
HETATM   17  C   UNL     1      -9.134  11.753  67.246  1.00  0.00    -0.171 C  
HETATM   18  O   UNL     1      -8.085  11.877  66.628  1.00  0.00    -0.151 OA 
BRANCH  17  19
HETATM   19  C   UNL     1      -9.976  12.982  67.621  1.00  0.00    -0.215 C  
BRANCH  19  20
HETATM   20  N   UNL     1     -10.290  13.310  68.849  1.00  0.00    -0.420 NA 
HETATM   21  H   UNL     1     -11.885  13.501  70.025  1.00  0.00     0.000 HD 
HETATM   22  O   UNL     1     -11.657  13.263  69.134  1.00  0.00    -0.279 OA 
HETATM   23  H   UNL     1      -9.592  13.578  69.543  1.00  0.00     0.000 HD 
ENDBRANCH  19  20
BRANCH  19  24
HETATM   24  C   UNL     1     -10.507  13.845  66.564  1.00  0.00    -0.282 A  
HETATM   25  S   UNL     1     -11.053  15.845  65.080  1.00  0.00    -0.298 SA 
HETATM   26  C   UNL     1     -10.266  15.205  66.459  1.00  0.00    -0.276 A  
HETATM   27  C   UNL     1     -11.657  14.283  64.709  1.00  0.00    -0.401 A  
HETATM   28  N   UNL     1     -11.303  13.335  65.537  1.00  0.00    -0.291 NA 
HETATM   29  N   UNL     1     -12.449  14.074  63.647  1.00  0.00    -1.042 NA 
HETATM   30  H1  UNL     1     -12.808  13.145  63.426  1.00  0.00     0.000 HD 
HETATM   31  H2  UNL     1     -12.698  14.861  63.048  1.00  0.00     0.000 HD 
ENDBRANCH  19  24
ENDBRANCH  17  19
ENDBRANCH   5  15
TORSDOF 5
ENDMDL
MODEL      106
REMARK 921   NORMALIZED FREE ENERGY PREDICTED BY IDOCK:   -4.69 KCAL/MOL
REMARK 922        TOTAL FREE ENERGY PREDICTED BY IDOCK:   -6.92 KCAL/MOL
REMARK 923 INTER-LIGAND FREE ENERGY PREDICTED BY IDOCK:   -6.08 KCAL/MOL
REMARK 924 INTRA-LIGAND FREE ENERGY PREDICTED BY IDOCK:   -0.84 KCAL/MOL
REMARK 927      BINDING AFFINITY PREDICTED BY RF-SCORE:    0.00 PKD
ROOT
HETATM    1  C   UNL     1     -11.616  11.615  66.636  1.00  0.00    -0.115 C  
HETATM    2  S   UNL     1     -10.095  11.871  65.696  1.00  0.00    -0.249 SA 
HETATM    3  CG2 UNL     1      -9.895  10.116  65.328  1.00  0.00    -0.319 C  
HETATM    4  CB  UNL     1     -10.050   9.183  66.526  1.00  0.00    -0.357 C  
HETATM    5  CA  UNL     1     -11.940  12.729  67.681  1.00  0.00    -0.273 C  
HETATM    6  CA  UNL     1     -10.740   9.508  67.661  1.00  0.00    -0.250 C  
HETATM    7  N   UNL     1     -11.345  10.735  67.757  1.00  0.00    -0.314 N  
HETATM    8  O   UNL     1     -11.912  11.389  69.906  1.00  0.00    -0.307 OA 
HETATM    9  C   UNL     1     -10.858   8.509  68.799  1.00  0.00     0.043 C  
HETATM   10  C   UNL     1     -11.829  11.554  68.712  1.00  0.00    -0.330 C  
HETATM   11  O   UNL     1     -11.125   8.994  70.026  1.00  0.00    -0.239 OA 
HETATM   12  OXT UNL     1     -10.744   7.300  68.648  1.00  0.00    -0.203 OA 
ENDROOT
BRANCH   4  13
HETATM   13  CG1 UNL     1      -9.288   7.938  66.358  1.00  0.00    -0.247 C  
HETATM   14  CD1 UNL     1      -8.142   7.794  65.677  1.00  0.00    -0.129 C  
ENDBRANCH   4  13
BRANCH   5  15
HETATM   15  N   UNL     1     -10.912  13.786  67.850  1.00  0.00    -0.248 N  
HETATM   16  H   UNL     1     -10.239  13.687  68.611  1.00  0.00     0.000 HD 
HETATM   17  C   UNL     1     -10.817  14.888  67.040  1.00  0.00    -0.315 C  
HETATM   18  O   UNL     1     -11.573  15.112  66.106  1.00  0.00    -0.235 OA 
BRANCH  17  19
HETATM   19  C   UNL     1      -9.707  15.885  67.409  1.00  0.00    -0.227 C  
BRANCH  19  20
HETATM   20  N   UNL     1      -9.818  17.184  67.291  1.00  0.00    -0.258 NA 
HETATM   21  H   UNL     1     -10.926  18.696  67.963  1.00  0.00     0.000 HD 
HETATM   22  O   UNL     1     -10.846  17.753  68.048  1.00  0.00    -0.354 OA 
HETATM   23  H   UNL     1      -9.204  17.737  66.694  1.00  0.00     0.000 HD 
ENDBRANCH  19  20
BRANCH  19  24
HETATM   24  C   UNL     1      -8.418  15.385  67.893  1.00  0.00    -0.147 A  
HETATM   25  S   UNL     1      -5.982  14.650  68.054  1.00  0.00    -0.146 SA 
HETATM   26  C   UNL     1      -7.281  15.254  67.114  1.00  0.00    -0.104 A  
HETATM   27  C   UNL     1      -7.006  14.608  69.428  1.00  0.00    -0.163 A  
HETATM   28  N   UNL     1      -8.232  15.017  69.226  1.00  0.00    -0.183 NA 
HETATM   29  N   UNL     1      -6.565  14.166  70.615  1.00  0.00    -0.413 NA 
HETATM   30  H1  UNL     1      -7.175  14.141  71.433  1.00  0.00     0.000 HD 
HETATM   31  H2  UNL     1      -5.600  13.849  70.702  1.00  0.00     0.000 HD 
ENDBRANCH  19  24
ENDBRANCH  17  19
ENDBRANCH   5  15
TORSDOF 5
ENDMDL
MODEL      107
REMARK 921   NORMALIZED FREE ENERGY PREDICTED BY IDOCK:   -4.67 KCAL/MOL
REMARK 922        TOTAL FREE ENERGY PREDICTED BY IDOCK:   -6.90 KCAL/MOL
REMARK 923 INTER-LIGAND FREE ENERGY PREDICTED BY IDOCK:   -5.85 KCAL/MOL
REMARK 924 INTRA-LIGAND FREE ENERGY PREDICTED BY IDOCK:   -1.04 KCAL/MOL
REMARK 927      BINDING AFFINITY PREDICTED BY RF-SCORE:    0.00 PKD
ROOT
HETATM    1  C   UNL     1      -8.394  10.229  67.458  1.00  0.00    -0.114 C  
HETATM    2  S   UNL     1      -8.070   8.770  66.444  1.00  0.00    -0.104 SA 
HETATM    3  CG2 UNL     1      -8.198   9.682  64.892  1.00  0.00    -0.143 C  
HETATM    4  CB  UNL     1      -9.419  10.589  64.775  1.00  0.00    -0.312 C  
HETATM    5  CA  UNL     1      -8.968   9.931  68.879  1.00  0.00    -0.153 C  
HETATM    6  CA  UNL     1     -10.107  11.084  65.848  1.00  0.00    -0.249 C  
HETATM    7  N   UNL     1      -9.697  10.770  67.118  1.00  0.00    -0.168 N  
HETATM    8  O   UNL     1     -11.272  11.127  68.780  1.00  0.00    -0.208 OA 
HETATM    9  C   UNL     1     -11.303  11.996  65.637  1.00  0.00    -0.329 C  
HETATM   10  C   UNL     1     -10.193  10.766  68.371  1.00  0.00    -0.175 C  
HETATM   11  O   UNL     1     -12.200  12.086  66.637  1.00  0.00    -0.550 OA 
HETATM   12  OXT UNL     1     -11.475  12.659  64.622  1.00  0.00    -0.307 OA 
ENDROOT
BRANCH   4  13
HETATM   13  CG1 UNL     1      -9.829  10.785  63.377  1.00  0.00    -0.400 C  
HETATM   14  CD1 UNL     1      -9.016  11.012  62.335  1.00  0.00    -0.345 C  
ENDBRANCH   4  13
BRANCH   5  15
HETATM   15  N   UNL     1      -9.280   8.510  69.173  1.00  0.00    -0.149 N  
HETATM   16  H   UNL     1     -10.097   8.093  68.726  1.00  0.00     0.000 HD 
HETATM   17  C   UNL     1      -8.530   7.727  70.012  1.00  0.00    -0.135 C  
HETATM   18  O   UNL     1      -7.537   8.124  70.605  1.00  0.00    -0.069 OA 
BRANCH  17  19
HETATM   19  C   UNL     1      -9.046   6.294  70.214  1.00  0.00    -0.154 C  
BRANCH  19  20
HETATM   20  N   UNL     1      -8.575   5.248  69.582  1.00  0.00    -0.097 NA 
HETATM   21  H   UNL     1      -7.836   4.734  67.806  1.00  0.00     0.000 HD 
HETATM   22  O   UNL     1      -8.178   5.493  68.265  1.00  0.00    -0.096 OA 
HETATM   23  H   UNL     1      -8.505   4.328  70.016  1.00  0.00     0.000 HD 
ENDBRANCH  19  20
BRANCH  19  24
HETATM   24  C   UNL     1     -10.156   6.048  71.137  1.00  0.00    -0.194 A  
HETATM   25  S   UNL     1     -11.623   5.142  73.015  1.00  0.00    -0.105 SA 
HETATM   26  C   UNL     1     -10.143   5.109  72.155  1.00  0.00    -0.193 A  
HETATM   27  C   UNL     1     -12.183   6.397  71.989  1.00  0.00    -0.269 A  
HETATM   28  N   UNL     1     -11.340   6.785  71.068  1.00  0.00    -0.290 NA 
HETATM   29  N   UNL     1     -13.411   6.918  72.128  1.00  0.00    -0.544 NA 
HETATM   30  H1  UNL     1     -13.743   7.665  71.517  1.00  0.00     0.000 HD 
HETATM   31  H2  UNL     1     -14.024   6.561  72.859  1.00  0.00     0.000 HD 
ENDBRANCH  19  24
ENDBRANCH  17  19
ENDBRANCH   5  15
TORSDOF 5
ENDMDL
MODEL      108
REMARK 921   NORMALIZED FREE ENERGY PREDICTED BY IDOCK:   -4.62 KCAL/MOL
REMARK 922        TOTAL FREE ENERGY PREDICTED BY IDOCK:   -6.83 KCAL/MOL
REMARK 923 INTER-LIGAND FREE ENERGY PREDICTED BY IDOCK:   -5.96 KCAL/MOL
REMARK 924 INTRA-LIGAND FREE ENERGY PREDICTED BY IDOCK:   -0.87 KCAL/MOL
REMARK 927      BINDING AFFINITY PREDICTED BY RF-SCORE:    0.00 PKD
ROOT
HETATM    1  C   UNL     1      -8.111   8.741  70.936  1.00  0.00    -0.150 C  
HETATM    2  S   UNL     1      -9.668   8.266  71.720  1.00  0.00    -0.237 SA 
HETATM    3  CG2 UNL     1      -9.113   6.583  72.060  1.00  0.00    -0.140 C  
HETATM    4  CB  UNL     1      -8.461   5.868  70.880  1.00  0.00    -0.127 C  
HETATM    5  CA  UNL     1      -8.214   9.932  69.932  1.00  0.00    -0.184 C  
HETATM    6  CA  UNL     1      -7.884   6.513  69.821  1.00  0.00    -0.115 C  
HETATM    7  N   UNL     1      -7.870   7.883  69.790  1.00  0.00    -0.102 N  
HETATM    8  O   UNL     1      -7.458   8.818  67.710  1.00  0.00    -0.091 OA 
HETATM    9  C   UNL     1      -7.241   5.719  68.697  1.00  0.00    -0.082 C  
HETATM   10  C   UNL     1      -7.710   8.875  68.891  1.00  0.00    -0.095 C  
HETATM   11  O   UNL     1      -7.106   6.327  67.505  1.00  0.00    -0.069 OA 
HETATM   12  OXT UNL     1      -6.829   4.574  68.832  1.00  0.00    -0.048 OA 
ENDROOT
BRANCH   4  13
HETATM   13  CG1 UNL     1      -8.614   4.409  70.967  1.00  0.00    -0.113 C  
HETATM   14  CD1 UNL     1      -9.768   3.728  70.925  1.00  0.00    -0.248 C  
ENDBRANCH   4  13
BRANCH   5  15
HETATM   15  N   UNL     1      -9.581  10.445  69.664  1.00  0.00    -0.401 N  
HETATM   16  H   UNL     1     -10.372   9.949  70.076  1.00  0.00     0.000 HD 
HETATM   17  C   UNL     1      -9.840  11.549  68.893  1.00  0.00    -0.075 C  
HETATM   18  O   UNL     1      -8.971  12.214  68.346  1.00  0.00    -0.186 OA 
BRANCH  17  19
HETATM   19  C   UNL     1     -11.326  11.890  68.706  1.00  0.00    -0.274 C  
BRANCH  19  20
HETATM   20  N   UNL     1     -12.027  11.563  67.650  1.00  0.00    -0.634 NA 
HETATM   21  H   UNL     1     -12.011  10.265  66.140  1.00  0.00     0.000 HD 
HETATM   22  O   UNL     1     -11.502  10.503  66.907  1.00  0.00    -0.175 OA 
HETATM   23  H   UNL     1     -12.888  12.044  67.390  1.00  0.00     0.000 HD 
ENDBRANCH  19  20
BRANCH  19  24
HETATM   24  C   UNL     1     -12.027  12.659  69.737  1.00  0.00    -0.295 A  
HETATM   25  S   UNL     1     -13.253  13.357  71.861  1.00  0.00    -0.417 SA 
HETATM   26  C   UNL     1     -12.511  12.131  70.922  1.00  0.00    -0.279 A  
HETATM   27  C   UNL     1     -12.881  14.505  70.642  1.00  0.00    -0.340 A  
HETATM   28  N   UNL     1     -12.243  14.032  69.603  1.00  0.00    -0.346 NA 
HETATM   29  N   UNL     1     -13.244  15.790  70.759  1.00  0.00    -0.739 NA 
HETATM   30  H1  UNL     1     -13.022  16.473  70.034  1.00  0.00     0.000 HD 
HETATM   31  H2  UNL     1     -13.752  16.092  71.590  1.00  0.00     0.000 HD 
ENDBRANCH  19  24
ENDBRANCH  17  19
ENDBRANCH   5  15
TORSDOF 5
ENDMDL
MODEL      109
REMARK 921   NORMALIZED FREE ENERGY PREDICTED BY IDOCK:   -4.62 KCAL/MOL
REMARK 922        TOTAL FREE ENERGY PREDICTED BY IDOCK:   -6.83 KCAL/MOL
REMARK 923 INTER-LIGAND FREE ENERGY PREDICTED BY IDOCK:   -5.95 KCAL/MOL
REMARK 924 INTRA-LIGAND FREE ENERGY PREDICTED BY IDOCK:   -0.88 KCAL/MOL
REMARK 927      BINDING AFFINITY PREDICTED BY RF-SCORE:    0.00 PKD
ROOT
HETATM    1  C   UNL     1     -10.809  11.054  66.762  1.00  0.00    -0.251 C  
HETATM    2  S   UNL     1      -9.411  12.047  66.194  1.00  0.00    -0.211 SA 
HETATM    3  CG2 UNL     1      -8.408  10.605  65.783  1.00  0.00    -0.162 C  
HETATM    4  CB  UNL     1      -8.350   9.529  66.864  1.00  0.00    -0.116 C  
HETATM    5  CA  UNL     1     -11.761  11.770  67.771  1.00  0.00    -0.267 C  
HETATM    6  CA  UNL     1      -9.298   9.373  67.836  1.00  0.00    -0.129 C  
HETATM    7  N   UNL     1     -10.382  10.212  67.865  1.00  0.00    -0.181 N  
HETATM    8  O   UNL     1     -11.542  10.257  69.871  1.00  0.00    -0.254 OA 
HETATM    9  C   UNL     1      -9.168   8.262  68.864  1.00  0.00    -0.147 C  
HETATM   10  C   UNL     1     -11.332  10.611  68.734  1.00  0.00    -0.277 C  
HETATM   11  O   UNL     1      -9.828   8.411  70.027  1.00  0.00    -0.179 OA 
HETATM   12  OXT UNL     1      -8.516   7.243  68.675  1.00  0.00    -0.128 OA 
ENDROOT
BRANCH   4  13
HETATM   13  CG1 UNL     1      -7.106   8.749  66.799  1.00  0.00    -0.081 C  
HETATM   14  CD1 UNL     1      -6.015   9.052  66.082  1.00  0.00    -0.055 C  
ENDBRANCH   4  13
BRANCH   5  15
HETATM   15  N   UNL     1     -11.341  13.122  68.220  1.00  0.00    -0.277 N  
HETATM   16  H   UNL     1     -10.716  13.190  69.023  1.00  0.00     0.000 HD 
HETATM   17  C   UNL     1     -11.746  14.282  67.614  1.00  0.00    -0.389 C  
HETATM   18  O   UNL     1     -12.499  14.318  66.650  1.00  0.00    -0.407 OA 
BRANCH  17  19
HETATM   19  C   UNL     1     -11.231  15.578  68.257  1.00  0.00    -0.343 C  
BRANCH  19  20
HETATM   20  N   UNL     1     -11.887  16.261  69.161  1.00  0.00    -0.189 NA 
HETATM   21  H   UNL     1     -13.070  15.977  70.738  1.00  0.00     0.000 HD 
HETATM   22  O   UNL     1     -12.593  15.482  70.081  1.00  0.00    -0.380 OA 
HETATM   23  H   UNL     1     -11.884  17.281  69.191  1.00  0.00     0.000 HD 
ENDBRANCH  19  20
BRANCH  19  24
HETATM   24  C   UNL     1      -9.944  16.135  67.832  1.00  0.00    -0.239 A  
HETATM   25  S   UNL     1      -7.963  16.935  66.441  1.00  0.00    -0.326 SA 
HETATM   26  C   UNL     1      -9.511  16.207  66.519  1.00  0.00    -0.264 A  
HETATM   27  C   UNL     1      -7.969  17.112  68.147  1.00  0.00    -0.216 A  
HETATM   28  N   UNL     1      -9.042  16.672  68.752  1.00  0.00    -0.250 NA 
HETATM   29  N   UNL     1      -6.927  17.650  68.798  1.00  0.00    -0.237 NA 
HETATM   30  H1  UNL     1      -6.931  17.756  69.813  1.00  0.00     0.000 HD 
HETATM   31  H2  UNL     1      -6.114  17.961  68.267  1.00  0.00     0.000 HD 
ENDBRANCH  19  24
ENDBRANCH  17  19
ENDBRANCH   5  15
TORSDOF 5
ENDMDL
MODEL      110
REMARK 921   NORMALIZED FREE ENERGY PREDICTED BY IDOCK:   -4.61 KCAL/MOL
REMARK 922        TOTAL FREE ENERGY PREDICTED BY IDOCK:   -6.82 KCAL/MOL
REMARK 923 INTER-LIGAND FREE ENERGY PREDICTED BY IDOCK:   -5.90 KCAL/MOL
REMARK 924 INTRA-LIGAND FREE ENERGY PREDICTED BY IDOCK:   -0.92 KCAL/MOL
REMARK 927      BINDING AFFINITY PREDICTED BY RF-SCORE:    0.00 PKD
ROOT
HETATM    1  C   UNL     1      -9.799   9.733  68.990  1.00  0.00    -0.181 C  
HETATM    2  S   UNL     1      -8.400   9.207  70.005  1.00  0.00    -0.169 SA 
HETATM    3  CG2 UNL     1      -9.321   7.862  70.776  1.00  0.00    -0.157 C  
HETATM    4  CB  UNL     1     -10.703   8.243  71.301  1.00  0.00    -0.276 C  
HETATM    5  CA  UNL     1      -9.755  11.224  68.528  1.00  0.00    -0.198 C  
HETATM    6  CA  UNL     1     -11.423   9.311  70.845  1.00  0.00    -0.303 C  
HETATM    7  N   UNL     1     -10.905  10.103  69.854  1.00  0.00    -0.278 N  
HETATM    8  O   UNL     1     -11.902  12.183  69.630  1.00  0.00    -0.305 OA 
HETATM    9  C   UNL     1     -12.801   9.606  71.414  1.00  0.00    -0.379 C  
HETATM   10  C   UNL     1     -11.089  11.337  69.342  1.00  0.00    -0.257 C  
HETATM   11  O   UNL     1     -13.267  10.863  71.294  1.00  0.00    -0.333 OA 
HETATM   12  OXT UNL     1     -13.504   8.759  71.951  1.00  0.00    -0.356 OA 
ENDROOT
BRANCH   4  13
HETATM   13  CG1 UNL     1     -11.122   7.389  72.422  1.00  0.00    -0.331 C  
HETATM   14  CD1 UNL     1     -11.436   6.088  72.355  1.00  0.00    -0.357 C  
ENDBRANCH   4  13
BRANCH   5  15
HETATM   15  N   UNL     1      -8.641  12.044  69.068  1.00  0.00    -0.344 N  
HETATM   16  H   UNL     1      -8.543  12.116  70.080  1.00  0.00     0.000 HD 
HETATM   17  C   UNL     1      -7.737  12.708  68.280  1.00  0.00    -0.135 C  
HETATM   18  O   UNL     1      -7.765  12.697  67.057  1.00  0.00    -0.123 OA 
BRANCH  17  19
HETATM   19  C   UNL     1      -6.685  13.534  69.035  1.00  0.00    -0.112 C  
BRANCH  19  20
HETATM   20  N   UNL     1      -5.718  13.014  69.749  1.00  0.00    -0.105 NA 
HETATM   21  H   UNL     1      -4.939  11.243  70.218  1.00  0.00     0.000 HD 
HETATM   22  O   UNL     1      -5.641  11.620  69.699  1.00  0.00    -0.063 OA 
HETATM   23  H   UNL     1      -5.073  13.582  70.298  1.00  0.00     0.000 HD 
ENDBRANCH  19  20
BRANCH  19  24
HETATM   24  C   UNL     1      -6.756  14.997  69.007  1.00  0.00    -0.116 A  
HETATM   25  S   UNL     1      -6.167  17.477  69.036  1.00  0.00    -0.222 SA 
HETATM   26  C   UNL     1      -5.667  15.842  69.136  1.00  0.00    -0.107 A  
HETATM   27  C   UNL     1      -7.788  16.960  68.823  1.00  0.00    -0.250 A  
HETATM   28  N   UNL     1      -7.967  15.665  68.817  1.00  0.00    -0.159 NA 
HETATM   29  N   UNL     1      -8.791  17.841  68.691  1.00  0.00    -0.287 NA 
HETATM   30  H1  UNL     1      -9.755  17.533  68.565  1.00  0.00     0.000 HD 
HETATM   31  H2  UNL     1      -8.585  18.839  68.718  1.00  0.00     0.000 HD 
ENDBRANCH  19  24
ENDBRANCH  17  19
ENDBRANCH   5  15
TORSDOF 5
ENDMDL
MODEL      111
REMARK 921   NORMALIZED FREE ENERGY PREDICTED BY IDOCK:   -4.59 KCAL/MOL
REMARK 922        TOTAL FREE ENERGY PREDICTED BY IDOCK:   -6.80 KCAL/MOL
REMARK 923 INTER-LIGAND FREE ENERGY PREDICTED BY IDOCK:   -7.41 KCAL/MOL
REMARK 924 INTRA-LIGAND FREE ENERGY PREDICTED BY IDOCK:    0.61 KCAL/MOL
REMARK 927      BINDING AFFINITY PREDICTED BY RF-SCORE:    0.00 PKD
ROOT
HETATM    1  C   UNL     1      -8.623  12.086  67.065  1.00  0.00    -0.185 C  
HETATM    2  S   UNL     1      -7.885  10.465  66.761  1.00  0.00    -0.121 SA 
HETATM    3  CG2 UNL     1      -7.967  10.639  64.967  1.00  0.00    -0.013 C  
HETATM    4  CB  UNL     1      -9.312  11.115  64.426  1.00  0.00    -0.183 C  
HETATM    5  CA  UNL     1      -9.322  12.243  68.452  1.00  0.00    -0.162 C  
HETATM    6  CA  UNL     1     -10.226  11.816  65.164  1.00  0.00    -0.268 C  
HETATM    7  N   UNL     1      -9.945  12.130  66.468  1.00  0.00    -0.209 N  
HETATM    8  O   UNL     1     -11.776  12.731  67.755  1.00  0.00    -0.330 OA 
HETATM    9  C   UNL     1     -11.534  12.266  64.537  1.00  0.00    -0.341 C  
HETATM   10  C   UNL     1     -10.601  12.501  67.586  1.00  0.00    -0.217 C  
HETATM   11  O   UNL     1     -12.563  12.528  65.365  1.00  0.00    -0.656 OA 
HETATM   12  OXT UNL     1     -11.687  12.418  63.332  1.00  0.00    -0.468 OA 
ENDROOT
BRANCH   4  13
HETATM   13  CG1 UNL     1      -9.552  10.646  63.054  1.00  0.00    -0.379 C  
HETATM   14  CD1 UNL     1      -9.111   9.499  62.518  1.00  0.00    -0.236 C  
ENDBRANCH   4  13
BRANCH   5  15
HETATM   15  N   UNL     1      -9.391  11.020  69.292  1.00  0.00    -0.409 N  
HETATM   16  H   UNL     1      -8.704  10.908  70.037  1.00  0.00     0.000 HD 
HETATM   17  C   UNL     1     -10.329  10.035  69.120  1.00  0.00    -0.216 C  
HETATM   18  O   UNL     1     -11.194  10.063  68.255  1.00  0.00    -0.229 OA 
BRANCH  17  19
HETATM   19  C   UNL     1     -10.203   8.832  70.067  1.00  0.00    -0.198 C  
BRANCH  19  20
HETATM   20  N   UNL     1      -9.078   8.216  70.326  1.00  0.00    -0.149 NA 
HETATM   21  H   UNL     1      -7.426   7.590  69.407  1.00  0.00     0.000 HD 
HETATM   22  O   UNL     1      -8.243   8.038  69.220  1.00  0.00    -0.123 OA 
HETATM   23  H   UNL     1      -8.830   7.891  71.261  1.00  0.00     0.000 HD 
ENDBRANCH  19  20
BRANCH  19  24
HETATM   24  C   UNL     1     -11.402   8.291  70.713  1.00  0.00    -0.266 A  
HETATM   25  S   UNL     1     -13.280   6.752  71.490  1.00  0.00    -0.003 SA 
HETATM   26  C   UNL     1     -11.860   6.993  70.563  1.00  0.00    -0.290 A  
HETATM   27  C   UNL     1     -13.192   8.377  72.033  1.00  0.00    -0.346 A  
HETATM   28  N   UNL     1     -12.181   9.067  71.573  1.00  0.00    -0.317 NA 
HETATM   29  N   UNL     1     -14.117   8.890  72.857  1.00  0.00    -1.094 NA 
HETATM   30  H1  UNL     1     -14.065   9.856  73.179  1.00  0.00     0.000 HD 
HETATM   31  H2  UNL     1     -14.889   8.300  73.168  1.00  0.00     0.000 HD 
ENDBRANCH  19  24
ENDBRANCH  17  19
ENDBRANCH   5  15
TORSDOF 5
ENDMDL
MODEL      112
REMARK 921   NORMALIZED FREE ENERGY PREDICTED BY IDOCK:   -4.58 KCAL/MOL
REMARK 922        TOTAL FREE ENERGY PREDICTED BY IDOCK:   -6.78 KCAL/MOL
REMARK 923 INTER-LIGAND FREE ENERGY PREDICTED BY IDOCK:   -5.93 KCAL/MOL
REMARK 924 INTRA-LIGAND FREE ENERGY PREDICTED BY IDOCK:   -0.84 KCAL/MOL
REMARK 927      BINDING AFFINITY PREDICTED BY RF-SCORE:    0.00 PKD
ROOT
HETATM    1  C   UNL     1      -9.412   8.524  69.887  1.00  0.00    -0.163 C  
HETATM    2  S   UNL     1      -9.928   9.635  68.559  1.00  0.00    -0.172 SA 
HETATM    3  CG2 UNL     1     -10.913  10.673  69.657  1.00  0.00    -0.278 C  
HETATM    4  CB  UNL     1     -11.851   9.915  70.593  1.00  0.00    -0.386 C  
HETATM    5  CA  UNL     1      -8.996   7.092  69.425  1.00  0.00    -0.139 C  
HETATM    6  CA  UNL     1     -11.668   8.612  70.963  1.00  0.00    -0.278 C  
HETATM    7  N   UNL     1     -10.585   7.918  70.488  1.00  0.00    -0.219 N  
HETATM    8  O   UNL     1     -10.735   5.612  70.664  1.00  0.00    -0.270 OA 
HETATM    9  C   UNL     1     -12.644   7.941  71.915  1.00  0.00    -0.319 C  
HETATM   10  C   UNL     1     -10.187   6.639  70.337  1.00  0.00    -0.188 C  
HETATM   11  O   UNL     1     -12.707   6.596  71.896  1.00  0.00    -0.345 OA 
HETATM   12  OXT UNL     1     -13.351   8.558  72.701  1.00  0.00    -0.266 OA 
ENDROOT
BRANCH   4  13
HETATM   13  CG1 UNL     1     -13.024  10.717  70.966  1.00  0.00    -0.425 C  
HETATM   14  CD1 UNL     1     -13.008  11.932  71.533  1.00  0.00    -0.427 C  
ENDBRANCH   4  13
BRANCH   5  15
HETATM   15  N   UNL     1      -9.184   6.789  67.984  1.00  0.00    -0.118 N  
HETATM   16  H   UNL     1     -10.070   7.045  67.549  1.00  0.00     0.000 HD 
HETATM   17  C   UNL     1      -8.231   6.185  67.206  1.00  0.00    -0.106 C  
HETATM   18  O   UNL     1      -7.138   5.829  67.624  1.00  0.00    -0.070 OA 
BRANCH  17  19
HETATM   19  C   UNL     1      -8.638   5.923  65.747  1.00  0.00    -0.154 C  
BRANCH  19  20
HETATM   20  N   UNL     1      -8.747   6.858  64.837  1.00  0.00    -0.345 NA 
HETATM   21  H   UNL     1      -8.978   8.829  64.682  1.00  0.00     0.000 HD 
HETATM   22  O   UNL     1      -8.899   8.151  65.343  1.00  0.00    -0.142 OA 
HETATM   23  H   UNL     1      -8.722   6.657  63.837  1.00  0.00     0.000 HD 
ENDBRANCH  19  20
BRANCH  19  24
HETATM   24  C   UNL     1      -8.968   4.561  65.321  1.00  0.00    -0.144 A  
HETATM   25  S   UNL     1      -8.926   2.043  64.925  1.00  0.00    -0.123 SA 
HETATM   26  C   UNL     1      -8.188   3.445  65.575  1.00  0.00    -0.097 A  
HETATM   27  C   UNL     1     -10.229   3.002  64.356  1.00  0.00    -0.001 A  
HETATM   28  N   UNL     1     -10.145   4.279  64.626  1.00  0.00    -0.155 NA 
HETATM   29  N   UNL     1     -11.246   2.462  63.668  1.00  0.00    -0.601 NA 
HETATM   30  H1  UNL     1     -12.021   3.033  63.330  1.00  0.00     0.000 HD 
HETATM   31  H2  UNL     1     -11.244   1.460  63.480  1.00  0.00     0.000 HD 
ENDBRANCH  19  24
ENDBRANCH  17  19
ENDBRANCH   5  15
TORSDOF 5
ENDMDL
MODEL      113
REMARK 921   NORMALIZED FREE ENERGY PREDICTED BY IDOCK:   -4.57 KCAL/MOL
REMARK 922        TOTAL FREE ENERGY PREDICTED BY IDOCK:   -6.76 KCAL/MOL
REMARK 923 INTER-LIGAND FREE ENERGY PREDICTED BY IDOCK:   -6.04 KCAL/MOL
REMARK 924 INTRA-LIGAND FREE ENERGY PREDICTED BY IDOCK:   -0.72 KCAL/MOL
REMARK 927      BINDING AFFINITY PREDICTED BY RF-SCORE:    0.00 PKD
ROOT
HETATM    1  C   UNL     1      -7.581   9.102  67.165  1.00  0.00    -0.091 C  
HETATM    2  S   UNL     1      -9.033   8.653  68.141  1.00  0.00    -0.141 SA 
HETATM    3  CG2 UNL     1      -8.943   6.911  67.682  1.00  0.00    -0.116 C  
HETATM    4  CB  UNL     1      -8.762   6.645  66.190  1.00  0.00    -0.154 C  
HETATM    5  CA  UNL     1      -7.516  10.600  66.729  1.00  0.00    -0.120 C  
HETATM    6  CA  UNL     1      -8.231   7.550  65.314  1.00  0.00    -0.129 C  
HETATM    7  N   UNL     1      -7.821   8.775  65.771  1.00  0.00    -0.097 N  
HETATM    8  O   UNL     1      -7.549  10.398  64.139  1.00  0.00    -0.118 OA 
HETATM    9  C   UNL     1      -8.071   7.193  63.846  1.00  0.00    -0.009 C  
HETATM   10  C   UNL     1      -7.548  10.001  65.281  1.00  0.00    -0.137 C  
HETATM   11  O   UNL     1      -7.988   8.207  62.965  1.00  0.00    -0.148 OA 
HETATM   12  OXT UNL     1      -7.995   6.042  63.437  1.00  0.00    -0.113 OA 
ENDROOT
BRANCH   4  13
HETATM   13  CG1 UNL     1      -9.318   5.345  65.790  1.00  0.00    -0.132 C  
HETATM   14  CD1 UNL     1      -9.691   4.353  66.612  1.00  0.00    -0.233 C  
ENDBRANCH   4  13
BRANCH   5  15
HETATM   15  N   UNL     1      -8.698  11.432  67.069  1.00  0.00    -0.155 N  
HETATM   16  H   UNL     1      -9.625  11.019  66.964  1.00  0.00     0.000 HD 
HETATM   17  C   UNL     1      -8.611  12.724  67.518  1.00  0.00    -0.187 C  
HETATM   18  O   UNL     1      -7.554  13.320  67.674  1.00  0.00    -0.141 OA 
BRANCH  17  19
HETATM   19  C   UNL     1      -9.954  13.425  67.775  1.00  0.00    -0.233 C  
BRANCH  19  20
HETATM   20  N   UNL     1     -10.453  13.641  68.966  1.00  0.00    -0.412 NA 
HETATM   21  H   UNL     1     -10.925  15.146  70.181  1.00  0.00     0.000 HD 
HETATM   22  O   UNL     1     -10.563  14.989  69.316  1.00  0.00    -0.232 OA 
HETATM   23  H   UNL     1     -10.739  12.885  69.589  1.00  0.00     0.000 HD 
ENDBRANCH  19  20
BRANCH  19  24
HETATM   24  C   UNL     1     -10.772  13.860  66.640  1.00  0.00    -0.281 A  
HETATM   25  S   UNL     1     -12.584  14.040  64.856  1.00  0.00    -0.286 SA 
HETATM   26  C   UNL     1     -11.910  13.209  66.193  1.00  0.00    -0.401 A  
HETATM   27  C   UNL     1     -11.332  15.207  64.960  1.00  0.00    -0.380 A  
HETATM   28  N   UNL     1     -10.465  15.015  65.920  1.00  0.00    -0.309 NA 
HETATM   29  N   UNL     1     -11.256  16.229  64.095  1.00  0.00    -1.283 NA 
HETATM   30  H1  UNL     1     -10.510  16.924  64.157  1.00  0.00     0.000 HD 
HETATM   31  H2  UNL     1     -11.957  16.314  63.360  1.00  0.00     0.000 HD 
ENDBRANCH  19  24
ENDBRANCH  17  19
ENDBRANCH   5  15
TORSDOF 5
ENDMDL
MODEL      114
REMARK 921   NORMALIZED FREE ENERGY PREDICTED BY IDOCK:   -4.53 KCAL/MOL
REMARK 922        TOTAL FREE ENERGY PREDICTED BY IDOCK:   -6.72 KCAL/MOL
REMARK 923 INTER-LIGAND FREE ENERGY PREDICTED BY IDOCK:   -6.11 KCAL/MOL
REMARK 924 INTRA-LIGAND FREE ENERGY PREDICTED BY IDOCK:   -0.61 KCAL/MOL
REMARK 927      BINDING AFFINITY PREDICTED BY RF-SCORE:    0.00 PKD
ROOT
HETATM    1  C   UNL     1      -7.747  14.535  67.131  1.00  0.00    -0.062 C  
HETATM    2  S   UNL     1      -9.394  15.128  66.682  1.00  0.00    -0.285 SA 
HETATM    3  CG2 UNL     1      -8.811  16.788  66.286  1.00  0.00    -0.299 C  
HETATM    4  CB  UNL     1      -7.897  17.419  67.333  1.00  0.00    -0.212 C  
HETATM    5  CA  UNL     1      -7.728  13.313  68.103  1.00  0.00    -0.143 C  
HETATM    6  CA  UNL     1      -7.168  16.702  68.240  1.00  0.00    -0.169 C  
HETATM    7  N   UNL     1      -7.234  15.332  68.230  1.00  0.00    -0.112 N  
HETATM    8  O   UNL     1      -6.485  14.294  70.161  1.00  0.00    -0.152 OA 
HETATM    9  C   UNL     1      -6.270  17.413  69.237  1.00  0.00    -0.238 C  
HETATM   10  C   UNL     1      -6.965  14.298  69.052  1.00  0.00    -0.112 C  
HETATM   11  O   UNL     1      -5.943  16.751  70.362  1.00  0.00    -0.135 OA 
HETATM   12  OXT UNL     1      -5.820  18.537  69.056  1.00  0.00    -0.209 OA 
ENDROOT
BRANCH   4  13
HETATM   13  CG1 UNL     1      -7.973  18.887  67.319  1.00  0.00    -0.261 C  
HETATM   14  CD1 UNL     1      -8.929  19.639  67.882  1.00  0.00    -0.385 C  
ENDBRANCH   4  13
BRANCH   5  15
HETATM   15  N   UNL     1      -9.047  12.868  68.620  1.00  0.00    -0.396 N  
HETATM   16  H   UNL     1      -9.651  13.562  69.059  1.00  0.00     0.000 HD 
HETATM   17  C   UNL     1      -9.496  11.576  68.539  1.00  0.00    -0.174 C  
HETATM   18  O   UNL     1      -8.853  10.662  68.040  1.00  0.00    -0.126 OA 
BRANCH  17  19
HETATM   19  C   UNL     1     -10.872  11.315  69.171  1.00  0.00    -0.222 C  
BRANCH  19  20
HETATM   20  N   UNL     1     -11.912  12.095  69.015  1.00  0.00    -0.282 NA 
HETATM   21  H   UNL     1     -12.933  13.020  67.579  1.00  0.00     0.000 HD 
HETATM   22  O   UNL     1     -12.179  12.454  67.692  1.00  0.00    -0.425 OA 
HETATM   23  H   UNL     1     -12.481  12.417  69.798  1.00  0.00     0.000 HD 
ENDBRANCH  19  20
BRANCH  19  24
HETATM   24  C   UNL     1     -11.061  10.148  70.036  1.00  0.00    -0.308 A  
HETATM   25  S   UNL     1     -11.665   8.617  71.984  1.00  0.00    -0.379 SA 
HETATM   26  C   UNL     1     -11.602  10.191  71.310  1.00  0.00    -0.306 A  
HETATM   27  C   UNL     1     -10.978   7.983  70.546  1.00  0.00    -0.247 A  
HETATM   28  N   UNL     1     -10.719   8.863  69.614  1.00  0.00    -0.233 NA 
HETATM   29  N   UNL     1     -10.718   6.674  70.414  1.00  0.00    -0.236 NA 
HETATM   30  H1  UNL     1     -10.309   6.297  69.559  1.00  0.00     0.000 HD 
HETATM   31  H2  UNL     1     -10.932   6.043  71.185  1.00  0.00     0.000 HD 
ENDBRANCH  19  24
ENDBRANCH  17  19
ENDBRANCH   5  15
TORSDOF 5
ENDMDL
MODEL      115
REMARK 921   NORMALIZED FREE ENERGY PREDICTED BY IDOCK:   -4.53 KCAL/MOL
REMARK 922        TOTAL FREE ENERGY PREDICTED BY IDOCK:   -6.71 KCAL/MOL
REMARK 923 INTER-LIGAND FREE ENERGY PREDICTED BY IDOCK:   -5.91 KCAL/MOL
REMARK 924 INTRA-LIGAND FREE ENERGY PREDICTED BY IDOCK:   -0.80 KCAL/MOL
REMARK 927      BINDING AFFINITY PREDICTED BY RF-SCORE:    0.00 PKD
ROOT
HETATM    1  C   UNL     1      -8.259  10.607  66.007  1.00  0.00    -0.158 C  
HETATM    2  S   UNL     1      -9.393   9.474  65.176  1.00  0.00    -0.216 SA 
HETATM    3  CG2 UNL     1     -10.190  10.788  64.230  1.00  0.00    -0.354 C  
HETATM    4  CB  UNL     1     -10.599  12.012  65.044  1.00  0.00    -0.332 C  
HETATM    5  CA  UNL     1      -7.704  10.099  67.376  1.00  0.00    -0.095 C  
HETATM    6  CA  UNL     1     -10.029  12.360  66.237  1.00  0.00    -0.246 C  
HETATM    7  N   UNL     1      -9.023  11.587  66.757  1.00  0.00    -0.175 N  
HETATM    8  O   UNL     1      -8.600  11.905  69.013  1.00  0.00     0.084 OA 
HETATM    9  C   UNL     1     -10.487  13.608  66.971  1.00  0.00    -0.270 C  
HETATM   10  C   UNL     1      -8.421  11.371  67.944  1.00  0.00    -0.139 C  
HETATM   11  O   UNL     1     -10.255  13.671  68.295  1.00  0.00    -0.231 OA 
HETATM   12  OXT UNL     1     -11.032  14.554  66.416  1.00  0.00    -0.312 OA 
ENDROOT
BRANCH   4  13
HETATM   13  CG1 UNL     1     -11.744  12.714  64.447  1.00  0.00    -0.431 C  
HETATM   14  CD1 UNL     1     -12.529  12.258  63.460  1.00  0.00    -0.642 C  
ENDBRANCH   4  13
BRANCH   5  15
HETATM   15  N   UNL     1      -8.259   8.815  67.871  1.00  0.00    -0.110 N  
HETATM   16  H   UNL     1      -8.925   8.317  67.278  1.00  0.00     0.000 HD 
HETATM   17  C   UNL     1      -7.928   8.261  69.080  1.00  0.00    -0.112 C  
HETATM   18  O   UNL     1      -7.148   8.773  69.871  1.00  0.00    -0.048 OA 
BRANCH  17  19
HETATM   19  C   UNL     1      -8.645   6.946  69.422  1.00  0.00    -0.133 C  
BRANCH  19  20
HETATM   20  N   UNL     1      -8.256   5.767  69.007  1.00  0.00    -0.101 NA 
HETATM   21  H   UNL     1      -7.320   4.140  69.670  1.00  0.00     0.000 HD 
HETATM   22  O   UNL     1      -7.602   4.996  69.971  1.00  0.00    -0.058 OA 
HETATM   23  H   UNL     1      -8.417   5.438  68.055  1.00  0.00     0.000 HD 
ENDBRANCH  19  20
BRANCH  19  24
HETATM   24  C   UNL     1      -9.865   6.978  70.233  1.00  0.00    -0.175 A  
HETATM   25  S   UNL     1     -12.266   6.725  71.054  1.00  0.00    -0.279 SA 
HETATM   26  C   UNL     1     -11.104   6.528  69.810  1.00  0.00    -0.370 A  
HETATM   27  C   UNL     1     -11.053   7.387  72.070  1.00  0.00    -0.242 A  
HETATM   28  N   UNL     1      -9.858   7.459  71.543  1.00  0.00    -0.173 NA 
HETATM   29  N   UNL     1     -11.336   7.811  73.311  1.00  0.00    -0.587 NA 
HETATM   30  H1  UNL     1     -10.614   8.205  73.915  1.00  0.00     0.000 HD 
HETATM   31  H2  UNL     1     -12.292   7.738  73.657  1.00  0.00     0.000 HD 
ENDBRANCH  19  24
ENDBRANCH  17  19
ENDBRANCH   5  15
TORSDOF 5
ENDMDL
MODEL      116
REMARK 921   NORMALIZED FREE ENERGY PREDICTED BY IDOCK:   -4.52 KCAL/MOL
REMARK 922        TOTAL FREE ENERGY PREDICTED BY IDOCK:   -6.71 KCAL/MOL
REMARK 923 INTER-LIGAND FREE ENERGY PREDICTED BY IDOCK:   -5.82 KCAL/MOL
REMARK 924 INTRA-LIGAND FREE ENERGY PREDICTED BY IDOCK:   -0.89 KCAL/MOL
REMARK 927      BINDING AFFINITY PREDICTED BY RF-SCORE:    0.00 PKD
ROOT
HETATM    1  C   UNL     1      -9.090  10.561  68.355  1.00  0.00    -0.148 C  
HETATM    2  S   UNL     1      -9.544  10.162  66.653  1.00  0.00    -0.192 SA 
HETATM    3  CG2 UNL     1     -10.033  11.855  66.268  1.00  0.00    -0.220 C  
HETATM    4  CB  UNL     1     -10.947  12.514  67.298  1.00  0.00    -0.300 C  
HETATM    5  CA  UNL     1      -9.129   9.356  69.349  1.00  0.00    -0.161 C  
HETATM    6  CA  UNL     1     -11.028  12.123  68.605  1.00  0.00    -0.245 C  
HETATM    7  N   UNL     1     -10.251  11.085  69.051  1.00  0.00    -0.213 N  
HETATM    8  O   UNL     1     -10.930  10.133  71.051  1.00  0.00    -0.291 OA 
HETATM    9  C   UNL     1     -11.954  12.849  69.566  1.00  0.00    -0.285 C  
HETATM   10  C   UNL     1     -10.213  10.217  70.082  1.00  0.00    -0.093 C  
HETATM   11  O   UNL     1     -12.347  12.186  70.670  1.00  0.00    -0.357 OA 
HETATM   12  OXT UNL     1     -12.336  13.999  69.394  1.00  0.00    -0.333 OA 
ENDROOT
BRANCH   4  13
HETATM   13  CG1 UNL     1     -11.801  13.547  66.695  1.00  0.00    -0.450 C  
HETATM   14  CD1 UNL     1     -12.352  13.510  65.474  1.00  0.00    -0.524 C  
ENDBRANCH   4  13
BRANCH   5  15
HETATM   15  N   UNL     1      -9.638   8.074  68.801  1.00  0.00    -0.148 N  
HETATM   16  H   UNL     1     -10.636   7.994  68.610  1.00  0.00     0.000 HD 
HETATM   17  C   UNL     1      -8.839   6.991  68.538  1.00  0.00    -0.124 C  
HETATM   18  O   UNL     1      -7.632   6.973  68.736  1.00  0.00    -0.100 OA 
BRANCH  17  19
HETATM   19  C   UNL     1      -9.568   5.745  68.013  1.00  0.00    -0.119 C  
BRANCH  19  20
HETATM   20  N   UNL     1     -10.288   5.722  66.920  1.00  0.00    -0.223 NA 
HETATM   21  H   UNL     1     -11.655   6.806  65.961  1.00  0.00     0.000 HD 
HETATM   22  O   UNL     1     -11.132   6.823  66.754  1.00  0.00    -0.338 OA 
HETATM   23  H   UNL     1     -10.237   4.960  66.243  1.00  0.00     0.000 HD 
ENDBRANCH  19  20
BRANCH  19  24
HETATM   24  C   UNL     1      -9.505   4.495  68.775  1.00  0.00    -0.157 A  
HETATM   25  S   UNL     1      -9.213   2.056  69.456  1.00  0.00    -0.095 SA 
HETATM   26  C   UNL     1      -9.193   3.258  68.236  1.00  0.00    -0.184 A  
HETATM   27  C   UNL     1      -9.626   3.250  70.615  1.00  0.00    -0.153 A  
HETATM   28  N   UNL     1      -9.741   4.467  70.150  1.00  0.00    -0.204 NA 
HETATM   29  N   UNL     1      -9.831   2.933  71.902  1.00  0.00    -0.164 NA 
HETATM   30  H1  UNL     1     -10.077   3.643  72.592  1.00  0.00     0.000 HD 
HETATM   31  H2  UNL     1      -9.739   1.961  72.197  1.00  0.00     0.000 HD 
ENDBRANCH  19  24
ENDBRANCH  17  19
ENDBRANCH   5  15
TORSDOF 5
ENDMDL
MODEL      117
REMARK 921   NORMALIZED FREE ENERGY PREDICTED BY IDOCK:   -4.49 KCAL/MOL
REMARK 922        TOTAL FREE ENERGY PREDICTED BY IDOCK:   -6.66 KCAL/MOL
REMARK 923 INTER-LIGAND FREE ENERGY PREDICTED BY IDOCK:   -5.83 KCAL/MOL
REMARK 924 INTRA-LIGAND FREE ENERGY PREDICTED BY IDOCK:   -0.83 KCAL/MOL
REMARK 927      BINDING AFFINITY PREDICTED BY RF-SCORE:    0.00 PKD
ROOT
HETATM    1  C   UNL     1      -8.391  10.500  68.623  1.00  0.00    -0.132 C  
HETATM    2  S   UNL     1     -10.145  10.928  68.681  1.00  0.00    -0.197 SA 
HETATM    3  CG2 UNL     1     -10.650   9.265  69.166  1.00  0.00    -0.212 C  
HETATM    4  CB  UNL     1     -10.041   8.138  68.337  1.00  0.00    -0.226 C  
HETATM    5  CA  UNL     1      -7.519  11.412  67.704  1.00  0.00    -0.103 C  
HETATM    6  CA  UNL     1      -8.876   8.255  67.631  1.00  0.00    -0.136 C  
HETATM    7  N   UNL     1      -8.188   9.441  67.651  1.00  0.00    -0.114 N  
HETATM    8  O   UNL     1      -6.631   9.708  65.957  1.00  0.00    -0.075 OA 
HETATM    9  C   UNL     1      -8.333   7.073  66.846  1.00  0.00    -0.118 C  
HETATM   10  C   UNL     1      -7.244  10.078  66.930  1.00  0.00    -0.091 C  
HETATM   11  O   UNL     1      -7.484   7.335  65.835  1.00  0.00    -0.076 OA 
HETATM   12  OXT UNL     1      -8.613   5.909  67.102  1.00  0.00    -0.108 OA 
ENDROOT
BRANCH   4  13
HETATM   13  CG1 UNL     1     -10.903   6.948  68.307  1.00  0.00    -0.244 C  
HETATM   14  CD1 UNL     1     -11.285   6.216  69.363  1.00  0.00    -0.466 C  
ENDBRANCH   4  13
BRANCH   5  15
HETATM   15  N   UNL     1      -8.251  12.434  66.913  1.00  0.00    -0.337 N  
HETATM   16  H   UNL     1      -8.687  12.145  66.038  1.00  0.00     0.000 HD 
HETATM   17  C   UNL     1      -8.372  13.745  67.296  1.00  0.00    -0.174 C  
HETATM   18  O   UNL     1      -7.883  14.202  68.320  1.00  0.00    -0.120 OA 
BRANCH  17  19
HETATM   19  C   UNL     1      -9.134  14.650  66.317  1.00  0.00    -0.160 C  
BRANCH  19  20
HETATM   20  N   UNL     1      -9.831  14.210  65.300  1.00  0.00    -0.579 NA 
HETATM   21  H   UNL     1     -11.380  13.025  64.900  1.00  0.00     0.000 HD 
HETATM   22  O   UNL     1     -10.874  13.345  65.639  1.00  0.00    -0.279 OA 
HETATM   23  H   UNL     1      -9.627  14.476  64.336  1.00  0.00     0.000 HD 
ENDBRANCH  19  20
BRANCH  19  24
HETATM   24  C   UNL     1      -9.072  16.105  66.478  1.00  0.00    -0.277 A  
HETATM   25  S   UNL     1      -8.304  18.536  66.488  1.00  0.00    -0.268 SA 
HETATM   26  C   UNL     1      -7.971  16.886  66.170  1.00  0.00    -0.255 A  
HETATM   27  C   UNL     1      -9.882  18.110  67.006  1.00  0.00    -0.322 A  
HETATM   28  N   UNL     1     -10.165  16.834  66.948  1.00  0.00    -0.285 NA 
HETATM   29  N   UNL     1     -10.745  19.035  67.452  1.00  0.00    -0.479 NA 
HETATM   30  H1  UNL     1     -11.683  18.781  67.760  1.00  0.00     0.000 HD 
HETATM   31  H2  UNL     1     -10.456  20.012  67.483  1.00  0.00     0.000 HD 
ENDBRANCH  19  24
ENDBRANCH  17  19
ENDBRANCH   5  15
TORSDOF 5
ENDMDL
MODEL      118
REMARK 921   NORMALIZED FREE ENERGY PREDICTED BY IDOCK:   -4.46 KCAL/MOL
REMARK 922        TOTAL FREE ENERGY PREDICTED BY IDOCK:   -6.63 KCAL/MOL
REMARK 923 INTER-LIGAND FREE ENERGY PREDICTED BY IDOCK:   -5.84 KCAL/MOL
REMARK 924 INTRA-LIGAND FREE ENERGY PREDICTED BY IDOCK:   -0.79 KCAL/MOL
REMARK 927      BINDING AFFINITY PREDICTED BY RF-SCORE:    0.00 PKD
ROOT
HETATM    1  C   UNL     1     -10.605   9.776  67.266  1.00  0.00    -0.255 C  
HETATM    2  S   UNL     1     -10.277  11.046  68.507  1.00  0.00    -0.199 SA 
HETATM    3  CG2 UNL     1     -11.546  12.158  67.867  1.00  0.00    -0.347 C  
HETATM    4  CB  UNL     1     -11.518  12.367  66.356  1.00  0.00    -0.427 C  
HETATM    5  CA  UNL     1      -9.411   8.810  66.979  1.00  0.00    -0.169 C  
HETATM    6  CA  UNL     1     -10.959  11.485  65.474  1.00  0.00    -0.229 C  
HETATM    7  N   UNL     1     -10.387  10.331  65.943  1.00  0.00    -0.211 N  
HETATM    8  O   UNL     1      -8.953   9.269  64.464  1.00  0.00    -0.203 OA 
HETATM    9  C   UNL     1     -10.992  11.766  63.982  1.00  0.00    -0.384 C  
HETATM   10  C   UNL     1      -9.515   9.390  65.527  1.00  0.00    -0.260 C  
HETATM   11  O   UNL     1     -10.075  11.152  63.212  1.00  0.00    -0.342 OA 
HETATM   12  OXT UNL     1     -11.817  12.501  63.453  1.00  0.00    -0.491 OA 
ENDROOT
BRANCH   4  13
HETATM   13  CG1 UNL     1     -12.071  13.673  65.970  1.00  0.00    -0.480 C  
HETATM   14  CD1 UNL     1     -11.507  14.870  66.186  1.00  0.00    -0.272 C  
ENDBRANCH   4  13
BRANCH   5  15
HETATM   15  N   UNL     1      -8.135   9.125  67.670  1.00  0.00    -0.104 N  
HETATM   16  H   UNL     1      -7.532   9.841  67.266  1.00  0.00     0.000 HD 
HETATM   17  C   UNL     1      -7.724   8.505  68.822  1.00  0.00    -0.102 C  
HETATM   18  O   UNL     1      -8.364   7.629  69.388  1.00  0.00    -0.128 OA 
BRANCH  17  19
HETATM   19  C   UNL     1      -6.353   8.947  69.356  1.00  0.00    -0.044 C  
BRANCH  19  20
HETATM   20  N   UNL     1      -5.451   8.125  69.830  1.00  0.00    -0.023 NA 
HETATM   21  H   UNL     1      -4.900   7.276  71.545  1.00  0.00     0.000 HD 
HETATM   22  O   UNL     1      -5.555   7.872  71.200  1.00  0.00    -0.033 OA 
HETATM   23  H   UNL     1      -4.728   7.704  69.246  1.00  0.00     0.000 HD 
ENDBRANCH  19  20
BRANCH  19  24
HETATM   24  C   UNL     1      -6.012  10.371  69.384  1.00  0.00    -0.038 A  
HETATM   25  S   UNL     1      -5.164  12.697  68.777  1.00  0.00    -0.056 SA 
HETATM   26  C   UNL     1      -5.364  11.047  68.365  1.00  0.00    -0.043 A  
HETATM   27  C   UNL     1      -5.952  12.411  70.273  1.00  0.00    -0.132 A  
HETATM   28  N   UNL     1      -6.351  11.181  70.470  1.00  0.00    -0.318 NA 
HETATM   29  N   UNL     1      -6.122  13.391  71.172  1.00  0.00    -0.551 NA 
HETATM   30  H1  UNL     1      -6.591  13.220  72.062  1.00  0.00     0.000 HD 
HETATM   31  H2  UNL     1      -5.776  14.326  70.962  1.00  0.00     0.000 HD 
ENDBRANCH  19  24
ENDBRANCH  17  19
ENDBRANCH   5  15
TORSDOF 5
ENDMDL
MODEL      119
REMARK 921   NORMALIZED FREE ENERGY PREDICTED BY IDOCK:   -4.42 KCAL/MOL
REMARK 922        TOTAL FREE ENERGY PREDICTED BY IDOCK:   -6.57 KCAL/MOL
REMARK 923 INTER-LIGAND FREE ENERGY PREDICTED BY IDOCK:   -5.94 KCAL/MOL
REMARK 924 INTRA-LIGAND FREE ENERGY PREDICTED BY IDOCK:   -0.63 KCAL/MOL
REMARK 927      BINDING AFFINITY PREDICTED BY RF-SCORE:    0.00 PKD
ROOT
HETATM    1  C   UNL     1      -8.691   7.239  70.146  1.00  0.00    -0.140 C  
HETATM    2  S   UNL     1     -10.434   6.774  70.248  1.00  0.00    -0.216 SA 
HETATM    3  CG2 UNL     1     -10.075   5.006  70.299  1.00  0.00    -0.269 C  
HETATM    4  CB  UNL     1      -9.088   4.517  69.243  1.00  0.00    -0.167 C  
HETATM    5  CA  UNL     1      -8.418   8.636  69.503  1.00  0.00    -0.129 C  
HETATM    6  CA  UNL     1      -8.172   5.322  68.624  1.00  0.00    -0.093 C  
HETATM    7  N   UNL     1      -8.108   6.651  68.954  1.00  0.00    -0.115 N  
HETATM    8  O   UNL     1      -6.997   7.994  67.426  1.00  0.00    -0.072 OA 
HETATM    9  C   UNL     1      -7.215   4.745  67.596  1.00  0.00    -0.070 C  
HETATM   10  C   UNL     1      -7.627   7.801  68.440  1.00  0.00    -0.109 C  
HETATM   11  O   UNL     1      -6.671   5.596  66.706  1.00  0.00    -0.054 OA 
HETATM   12  OXT UNL     1      -6.906   3.561  67.553  1.00  0.00    -0.048 OA 
ENDROOT
BRANCH   4  13
HETATM   13  CG1 UNL     1      -9.305   3.105  68.897  1.00  0.00    -0.231 C  
HETATM   14  CD1 UNL     1      -9.484   2.095  69.760  1.00  0.00    -0.118 C  
ENDBRANCH   4  13
BRANCH   5  15
HETATM   15  N   UNL     1      -9.602   9.349  68.960  1.00  0.00    -0.160 N  
HETATM   16  H   UNL     1     -10.482   8.838  68.891  1.00  0.00     0.000 HD 
HETATM   17  C   UNL     1      -9.576  10.656  68.547  1.00  0.00    -0.175 C  
HETATM   18  O   UNL     1      -8.576  11.359  68.578  1.00  0.00    -0.151 OA 
BRANCH  17  19
HETATM   19  C   UNL     1     -10.898  11.194  67.979  1.00  0.00    -0.225 C  
BRANCH  19  20
HETATM   20  N   UNL     1     -12.041  11.154  68.615  1.00  0.00    -0.679 NA 
HETATM   21  H   UNL     1     -12.767  11.204  70.468  1.00  0.00     0.000 HD 
HETATM   22  O   UNL     1     -11.937  11.233  70.006  1.00  0.00    -0.307 OA 
HETATM   23  H   UNL     1     -12.937  11.071  68.134  1.00  0.00     0.000 HD 
ENDBRANCH  19  20
BRANCH  19  24
HETATM   24  C   UNL     1     -10.927  11.762  66.629  1.00  0.00    -0.294 A  
HETATM   25  S   UNL     1     -10.262  12.684  64.346  1.00  0.00    -0.283 SA 
HETATM   26  C   UNL     1      -9.805  12.044  65.868  1.00  0.00    -0.238 A  
HETATM   27  C   UNL     1     -11.912  12.540  64.791  1.00  0.00    -0.409 A  
HETATM   28  N   UNL     1     -12.131  12.046  65.982  1.00  0.00    -0.502 NA 
HETATM   29  N   UNL     1     -12.895  12.929  63.965  1.00  0.00    -0.682 NA 
HETATM   30  H1  UNL     1     -13.877  12.843  64.230  1.00  0.00     0.000 HD 
HETATM   31  H2  UNL     1     -12.656  13.318  63.054  1.00  0.00     0.000 HD 
ENDBRANCH  19  24
ENDBRANCH  17  19
ENDBRANCH   5  15
TORSDOF 5
ENDMDL
MODEL      120
REMARK 921   NORMALIZED FREE ENERGY PREDICTED BY IDOCK:   -4.40 KCAL/MOL
REMARK 922        TOTAL FREE ENERGY PREDICTED BY IDOCK:   -6.54 KCAL/MOL
REMARK 923 INTER-LIGAND FREE ENERGY PREDICTED BY IDOCK:   -5.49 KCAL/MOL
REMARK 924 INTRA-LIGAND FREE ENERGY PREDICTED BY IDOCK:   -1.05 KCAL/MOL
REMARK 927      BINDING AFFINITY PREDICTED BY RF-SCORE:    0.00 PKD
ROOT
HETATM    1  C   UNL     1     -10.899   8.416  69.892  1.00  0.00    -0.207 C  
HETATM    2  S   UNL     1     -11.186   6.692  69.438  1.00  0.00    -0.269 SA 
HETATM    3  CG2 UNL     1     -11.570   6.192  71.128  1.00  0.00    -0.202 C  
HETATM    4  CB  UNL     1     -10.581   6.677  72.185  1.00  0.00    -0.238 C  
HETATM    5  CA  UNL     1      -9.977   9.212  68.915  1.00  0.00    -0.180 C  
HETATM    6  CA  UNL     1      -9.766   7.763  72.025  1.00  0.00    -0.173 C  
HETATM    7  N   UNL     1      -9.820   8.483  70.860  1.00  0.00    -0.180 N  
HETATM    8  O   UNL     1      -7.997   9.859  70.466  1.00  0.00    -0.246 OA 
HETATM    9  C   UNL     1      -8.823   8.185  73.139  1.00  0.00    -0.257 C  
HETATM   10  C   UNL     1      -9.061   9.364  70.177  1.00  0.00    -0.231 C  
HETATM   11  O   UNL     1      -7.754   8.929  72.800  1.00  0.00    -0.366 OA 
HETATM   12  OXT UNL     1      -9.001   7.900  74.316  1.00  0.00    -0.195 OA 
ENDROOT
BRANCH   4  13
HETATM   13  CG1 UNL     1     -10.537   5.782  73.350  1.00  0.00    -0.283 C  
HETATM   14  CD1 UNL     1     -11.268   4.673  73.529  1.00  0.00    -0.400 C  
ENDBRANCH   4  13
BRANCH   5  15
HETATM   15  N   UNL     1      -9.367   8.430  67.810  1.00  0.00    -0.134 N  
HETATM   16  H   UNL     1      -8.738   7.664  68.052  1.00  0.00     0.000 HD 
HETATM   17  C   UNL     1      -9.602   8.682  66.483  1.00  0.00    -0.237 C  
HETATM   18  O   UNL     1     -10.331   9.578  66.081  1.00  0.00    -0.233 OA 
BRANCH  17  19
HETATM   19  C   UNL     1      -8.841   7.784  65.496  1.00  0.00    -0.010 C  
BRANCH  19  20
HETATM   20  N   UNL     1      -8.483   8.155  64.293  1.00  0.00    -0.387 NA 
HETATM   21  H   UNL     1      -7.064   9.202  63.369  1.00  0.00     0.000 HD 
HETATM   22  O   UNL     1      -7.324   8.933  64.243  1.00  0.00    -0.096 OA 
HETATM   23  H   UNL     1      -9.009   7.896  63.458  1.00  0.00     0.000 HD 
ENDBRANCH  19  20
BRANCH  19  24
HETATM   24  C   UNL     1      -8.509   6.409  65.877  1.00  0.00    -0.147 A  
HETATM   25  S   UNL     1      -7.260   4.258  66.438  1.00  0.00    -0.076 SA 
HETATM   26  C   UNL     1      -7.224   5.897  65.939  1.00  0.00    -0.075 A  
HETATM   27  C   UNL     1      -8.970   4.336  66.543  1.00  0.00    -0.120 A  
HETATM   28  N   UNL     1      -9.498   5.493  66.240  1.00  0.00    -0.155 NA 
HETATM   29  N   UNL     1      -9.697   3.267  66.898  1.00  0.00    -0.395 NA 
HETATM   30  H1  UNL     1     -10.715   3.313  66.961  1.00  0.00     0.000 HD 
HETATM   31  H2  UNL     1      -9.223   2.389  67.109  1.00  0.00     0.000 HD 
ENDBRANCH  19  24
ENDBRANCH  17  19
ENDBRANCH   5  15
TORSDOF 5
ENDMDL
MODEL      121
REMARK 921   NORMALIZED FREE ENERGY PREDICTED BY IDOCK:   -4.40 KCAL/MOL
REMARK 922        TOTAL FREE ENERGY PREDICTED BY IDOCK:   -6.54 KCAL/MOL
REMARK 923 INTER-LIGAND FREE ENERGY PREDICTED BY IDOCK:   -5.82 KCAL/MOL
REMARK 924 INTRA-LIGAND FREE ENERGY PREDICTED BY IDOCK:   -0.72 KCAL/MOL
REMARK 927      BINDING AFFINITY PREDICTED BY RF-SCORE:    0.00 PKD
ROOT
HETATM    1  C   UNL     1      -9.321  12.665  67.281  1.00  0.00    -0.195 C  
HETATM    2  S   UNL     1     -10.385  13.353  65.993  1.00  0.00    -0.302 SA 
HETATM    3  CG2 UNL     1     -10.676  11.749  65.220  1.00  0.00    -0.287 C  
HETATM    4  CB  UNL     1      -9.423  10.911  64.980  1.00  0.00    -0.274 C  
HETATM    5  CA  UNL     1      -8.313  13.676  67.914  1.00  0.00    -0.174 C  
HETATM    6  CA  UNL     1      -8.258  11.065  65.678  1.00  0.00    -0.026 C  
HETATM    7  N   UNL     1      -8.180  12.016  66.663  1.00  0.00    -0.111 N  
HETATM    8  O   UNL     1      -6.030  12.596  67.307  1.00  0.00    -0.222 OA 
HETATM    9  C   UNL     1      -7.063  10.174  65.384  1.00  0.00    -0.143 C  
HETATM   10  C   UNL     1      -7.235  12.690  67.349  1.00  0.00    -0.138 C  
HETATM   11  O   UNL     1      -5.846  10.629  65.736  1.00  0.00    -0.111 OA 
HETATM   12  OXT UNL     1      -7.159   9.068  64.868  1.00  0.00    -0.089 OA 
ENDROOT
BRANCH   4  13
HETATM   13  CG1 UNL     1      -9.583   9.992  63.845  1.00  0.00    -0.217 C  
HETATM   14  CD1 UNL     1      -9.584  10.325  62.546  1.00  0.00    -0.217 C  
ENDBRANCH   4  13
BRANCH   5  15
HETATM   15  N   UNL     1      -8.277  15.030  67.306  1.00  0.00    -0.196 N  
HETATM   16  H   UNL     1      -8.787  15.182  66.436  1.00  0.00     0.000 HD 
HETATM   17  C   UNL     1      -7.596  16.088  67.851  1.00  0.00    -0.132 C  
HETATM   18  O   UNL     1      -6.946  16.017  68.885  1.00  0.00    -0.129 OA 
BRANCH  17  19
HETATM   19  C   UNL     1      -7.652  17.394  67.044  1.00  0.00    -0.205 C  
BRANCH  19  20
HETATM   20  N   UNL     1      -6.805  17.708  66.096  1.00  0.00    -0.280 NA 
HETATM   21  H   UNL     1      -4.967  17.265  65.472  1.00  0.00     0.000 HD 
HETATM   22  O   UNL     1      -5.582  17.037  66.161  1.00  0.00    -0.321 OA 
HETATM   23  H   UNL     1      -7.022  18.389  65.368  1.00  0.00     0.000 HD 
ENDBRANCH  19  20
BRANCH  19  24
HETATM   24  C   UNL     1      -8.680  18.391  67.352  1.00  0.00    -0.260 A  
HETATM   25  S   UNL     1     -10.519  20.148  67.167  1.00  0.00    -0.189 SA 
HETATM   26  C   UNL     1      -9.409  19.090  66.404  1.00  0.00    -0.336 A  
HETATM   27  C   UNL     1      -9.968  19.608  68.699  1.00  0.00    -0.458 A  
HETATM   28  N   UNL     1      -9.028  18.699  68.668  1.00  0.00    -0.324 NA 
HETATM   29  N   UNL     1     -10.467  20.109  69.838  1.00  0.00    -0.479 NA 
HETATM   30  H1  UNL     1     -10.139  19.788  70.749  1.00  0.00     0.000 HD 
HETATM   31  H2  UNL     1     -11.191  20.827  69.792  1.00  0.00     0.000 HD 
ENDBRANCH  19  24
ENDBRANCH  17  19
ENDBRANCH   5  15
TORSDOF 5
ENDMDL
MODEL      122
REMARK 921   NORMALIZED FREE ENERGY PREDICTED BY IDOCK:   -4.38 KCAL/MOL
REMARK 922        TOTAL FREE ENERGY PREDICTED BY IDOCK:   -6.51 KCAL/MOL
REMARK 923 INTER-LIGAND FREE ENERGY PREDICTED BY IDOCK:   -5.68 KCAL/MOL
REMARK 924 INTRA-LIGAND FREE ENERGY PREDICTED BY IDOCK:   -0.83 KCAL/MOL
REMARK 927      BINDING AFFINITY PREDICTED BY RF-SCORE:    0.00 PKD
ROOT
HETATM    1  C   UNL     1     -11.128   9.717  66.890  1.00  0.00     0.233 C  
HETATM    2  S   UNL     1     -11.079  11.207  67.910  1.00  0.00    -0.296 SA 
HETATM    3  CG2 UNL     1     -11.501  12.297  66.536  1.00  0.00    -0.381 C  
HETATM    4  CB  UNL     1     -10.695  12.070  65.260  1.00  0.00    -0.331 C  
HETATM    5  CA  UNL     1     -10.283   8.520  67.429  1.00  0.00    -0.261 C  
HETATM    6  CA  UNL     1     -10.068  10.895  64.954  1.00  0.00    -0.312 C  
HETATM    7  N   UNL     1     -10.154   9.836  65.821  1.00  0.00    -0.278 N  
HETATM    8  O   UNL     1      -8.569   8.175  65.508  1.00  0.00    -0.158 OA 
HETATM    9  C   UNL     1      -9.301  10.752  63.651  1.00  0.00    -0.273 C  
HETATM   10  C   UNL     1      -9.506   8.682  66.078  1.00  0.00    -0.208 C  
HETATM   11  O   UNL     1      -8.352   9.800  63.589  1.00  0.00    -0.143 OA 
HETATM   12  OXT UNL     1      -9.518  11.440  62.662  1.00  0.00    -0.344 OA 
ENDROOT
BRANCH   4  13
HETATM   13  CG1 UNL     1     -10.589  13.292  64.451  1.00  0.00    -0.438 C  
HETATM   14  CD1 UNL     1     -10.752  14.550  64.885  1.00  0.00    -0.448 C  
ENDBRANCH   4  13
BRANCH   5  15
HETATM   15  N   UNL     1      -9.464   8.790  68.638  1.00  0.00    -0.141 N  
HETATM   16  H   UNL     1      -8.582   9.290  68.521  1.00  0.00     0.000 HD 
HETATM   17  C   UNL     1      -9.827   8.404  69.902  1.00  0.00    -0.186 C  
HETATM   18  O   UNL     1     -10.856   7.793  70.157  1.00  0.00    -0.242 OA 
BRANCH  17  19
HETATM   19  C   UNL     1      -8.820   8.744  71.011  1.00  0.00    -0.211 C  
BRANCH  19  20
HETATM   20  N   UNL     1      -8.084   9.827  71.028  1.00  0.00    -0.319 NA 
HETATM   21  H   UNL     1      -6.612  10.697  70.009  1.00  0.00     0.000 HD 
HETATM   22  O   UNL     1      -7.146   9.911  69.996  1.00  0.00    -0.092 OA 
HETATM   23  H   UNL     1      -8.188  10.552  71.738  1.00  0.00     0.000 HD 
ENDBRANCH  19  20
BRANCH  19  24
HETATM   24  C   UNL     1      -8.617   7.805  72.117  1.00  0.00    -0.129 A  
HETATM   25  S   UNL     1      -8.733   6.610  74.366  1.00  0.00    -0.170 SA 
HETATM   26  C   UNL     1      -9.217   7.909  73.360  1.00  0.00    -0.286 A  
HETATM   27  C   UNL     1      -7.768   5.992  73.091  1.00  0.00    -0.098 A  
HETATM   28  N   UNL     1      -7.794   6.685  71.982  1.00  0.00    -0.097 NA 
HETATM   29  N   UNL     1      -7.031   4.883  73.246  1.00  0.00    -0.069 NA 
HETATM   30  H1  UNL     1      -6.456   4.515  72.487  1.00  0.00     0.000 HD 
HETATM   31  H2  UNL     1      -7.045   4.396  74.142  1.00  0.00     0.000 HD 
ENDBRANCH  19  24
ENDBRANCH  17  19
ENDBRANCH   5  15
TORSDOF 5
ENDMDL
MODEL      123
REMARK 921   NORMALIZED FREE ENERGY PREDICTED BY IDOCK:   -4.36 KCAL/MOL
REMARK 922        TOTAL FREE ENERGY PREDICTED BY IDOCK:   -6.49 KCAL/MOL
REMARK 923 INTER-LIGAND FREE ENERGY PREDICTED BY IDOCK:   -5.43 KCAL/MOL
REMARK 924 INTRA-LIGAND FREE ENERGY PREDICTED BY IDOCK:   -1.06 KCAL/MOL
REMARK 927      BINDING AFFINITY PREDICTED BY RF-SCORE:    0.00 PKD
ROOT
HETATM    1  C   UNL     1      -9.865  12.217  66.729  1.00  0.00    -0.209 C  
HETATM    2  S   UNL     1     -11.186  11.388  67.639  1.00  0.00    -0.287 SA 
HETATM    3  CG2 UNL     1     -12.010  12.933  68.074  1.00  0.00    -0.275 C  
HETATM    4  CB  UNL     1     -11.095  14.018  68.634  1.00  0.00    -0.286 C  
HETATM    5  CA  UNL     1      -8.537  11.404  66.606  1.00  0.00    -0.170 C  
HETATM    6  CA  UNL     1      -9.748  14.072  68.405  1.00  0.00    -0.223 C  
HETATM    7  N   UNL     1      -9.155  13.113  67.625  1.00  0.00    -0.190 N  
HETATM    8  O   UNL     1      -6.853  12.952  67.837  1.00  0.00    -0.090 OA 
HETATM    9  C   UNL     1      -8.915  15.199  68.989  1.00  0.00    -0.219 C  
HETATM   10  C   UNL     1      -7.925  12.614  67.391  1.00  0.00    -0.177 C  
HETATM   11  O   UNL     1      -7.594  14.986  69.136  1.00  0.00    -0.150 OA 
HETATM   12  OXT UNL     1      -9.382  16.285  69.309  1.00  0.00    -0.251 OA 
ENDROOT
BRANCH   4  13
HETATM   13  CG1 UNL     1     -11.812  14.936  69.529  1.00  0.00    -0.360 C  
HETATM   14  CD1 UNL     1     -12.653  14.591  70.515  1.00  0.00    -0.413 C  
ENDBRANCH   4  13
BRANCH   5  15
HETATM   15  N   UNL     1      -8.490  10.115  67.341  1.00  0.00    -0.122 N  
HETATM   16  H   UNL     1      -8.422  10.142  68.358  1.00  0.00     0.000 HD 
HETATM   17  C   UNL     1      -8.531   8.890  66.726  1.00  0.00    -0.115 C  
HETATM   18  O   UNL     1      -8.603   8.740  65.514  1.00  0.00    -0.154 OA 
BRANCH  17  19
HETATM   19  C   UNL     1      -8.428   7.678  67.664  1.00  0.00    -0.117 C  
BRANCH  19  20
HETATM   20  N   UNL     1      -7.720   6.608  67.406  1.00  0.00    -0.107 NA 
HETATM   21  H   UNL     1      -7.914   4.798  66.600  1.00  0.00     0.000 HD 
HETATM   22  O   UNL     1      -8.428   5.575  66.787  1.00  0.00    -0.111 OA 
HETATM   23  H   UNL     1      -6.729   6.534  67.638  1.00  0.00     0.000 HD 
ENDBRANCH  19  20
BRANCH  19  24
HETATM   24  C   UNL     1      -9.185   7.667  68.919  1.00  0.00    -0.139 A  
HETATM   25  S   UNL     1      -9.898   7.337  71.344  1.00  0.00    -0.185 SA 
HETATM   26  C   UNL     1      -8.722   7.143  70.114  1.00  0.00    -0.141 A  
HETATM   27  C   UNL     1     -10.938   8.107  70.218  1.00  0.00    -0.240 A  
HETATM   28  N   UNL     1     -10.460   8.227  69.006  1.00  0.00    -0.217 NA 
HETATM   29  N   UNL     1     -12.159   8.533  70.572  1.00  0.00    -0.482 NA 
HETATM   30  H1  UNL     1     -12.777   8.990  69.902  1.00  0.00     0.000 HD 
HETATM   31  H2  UNL     1     -12.476   8.396  71.532  1.00  0.00     0.000 HD 
ENDBRANCH  19  24
ENDBRANCH  17  19
ENDBRANCH   5  15
TORSDOF 5
ENDMDL
MODEL      124
REMARK 921   NORMALIZED FREE ENERGY PREDICTED BY IDOCK:   -4.33 KCAL/MOL
REMARK 922        TOTAL FREE ENERGY PREDICTED BY IDOCK:   -6.46 KCAL/MOL
REMARK 923 INTER-LIGAND FREE ENERGY PREDICTED BY IDOCK:   -5.60 KCAL/MOL
REMARK 924 INTRA-LIGAND FREE ENERGY PREDICTED BY IDOCK:   -0.85 KCAL/MOL
REMARK 927      BINDING AFFINITY PREDICTED BY RF-SCORE:    0.00 PKD
ROOT
HETATM    1  C   UNL     1     -11.204  12.660  67.950  1.00  0.00    -0.266 C  
HETATM    2  S   UNL     1     -11.867  12.177  69.560  1.00  0.00    -0.300 SA 
HETATM    3  CG2 UNL     1     -12.364  13.858  69.985  1.00  0.00    -0.316 C  
HETATM    4  CB  UNL     1     -11.299  14.926  69.750  1.00  0.00    -0.314 C  
HETATM    5  CA  UNL     1     -10.120  11.699  67.367  1.00  0.00    -0.198 C  
HETATM    6  CA  UNL     1     -10.260  14.786  68.873  1.00  0.00    -0.237 C  
HETATM    7  N   UNL     1     -10.143  13.632  68.141  1.00  0.00    -0.239 N  
HETATM    8  O   UNL     1      -8.056  13.267  67.203  1.00  0.00    -0.164 OA 
HETATM    9  C   UNL     1      -9.255  15.909  68.689  1.00  0.00    -0.209 C  
HETATM   10  C   UNL     1      -9.202  12.966  67.443  1.00  0.00    -0.197 C  
HETATM   11  O   UNL     1      -8.043  15.586  68.199  1.00  0.00    -0.129 OA 
HETATM   12  OXT UNL     1      -9.500  17.082  68.944  1.00  0.00    -0.266 OA 
ENDROOT
BRANCH   4  13
HETATM   13  CG1 UNL     1     -11.464  16.077  70.649  1.00  0.00    -0.427 C  
HETATM   14  CD1 UNL     1     -11.898  16.039  71.917  1.00  0.00    -0.619 C  
ENDBRANCH   4  13
BRANCH   5  15
HETATM   15  N   UNL     1      -9.693  10.584  68.249  1.00  0.00    -0.150 N  
HETATM   16  H   UNL     1      -9.087  10.800  69.041  1.00  0.00     0.000 HD 
HETATM   17  C   UNL     1     -10.069   9.279  68.058  1.00  0.00    -0.193 C  
HETATM   18  O   UNL     1     -10.785   8.906  67.139  1.00  0.00    -0.265 OA 
BRANCH  17  19
HETATM   19  C   UNL     1      -9.485   8.271  69.059  1.00  0.00    -0.155 C  
BRANCH  19  20
HETATM   20  N   UNL     1      -9.869   8.169  70.307  1.00  0.00    -0.183 NA 
HETATM   21  H   UNL     1     -10.536   9.300  71.803  1.00  0.00     0.000 HD 
HETATM   22  O   UNL     1     -10.257   9.374  70.898  1.00  0.00    -0.273 OA 
HETATM   23  H   UNL     1      -9.883   7.281  70.808  1.00  0.00     0.000 HD 
ENDBRANCH  19  20
BRANCH  19  24
HETATM   24  C   UNL     1      -8.405   7.375  68.638  1.00  0.00    -0.129 A  
HETATM   25  S   UNL     1      -6.645   5.533  68.556  1.00  0.00    -0.053 SA 
HETATM   26  C   UNL     1      -7.879   6.356  69.413  1.00  0.00    -0.105 A  
HETATM   27  C   UNL     1      -6.893   6.573  67.216  1.00  0.00    -0.069 A  
HETATM   28  N   UNL     1      -7.828   7.474  67.371  1.00  0.00    -0.116 NA 
HETATM   29  N   UNL     1      -6.155   6.465  66.101  1.00  0.00    -0.032 NA 
HETATM   30  H1  UNL     1      -6.302   7.084  65.304  1.00  0.00     0.000 HD 
HETATM   31  H2  UNL     1      -5.431   5.748  66.050  1.00  0.00     0.000 HD 
ENDBRANCH  19  24
ENDBRANCH  17  19
ENDBRANCH   5  15
TORSDOF 5
ENDMDL
MODEL      125
REMARK 921   NORMALIZED FREE ENERGY PREDICTED BY IDOCK:   -4.32 KCAL/MOL
REMARK 922        TOTAL FREE ENERGY PREDICTED BY IDOCK:   -6.45 KCAL/MOL
REMARK 923 INTER-LIGAND FREE ENERGY PREDICTED BY IDOCK:   -5.34 KCAL/MOL
REMARK 924 INTRA-LIGAND FREE ENERGY PREDICTED BY IDOCK:   -1.10 KCAL/MOL
REMARK 927      BINDING AFFINITY PREDICTED BY RF-SCORE:    0.00 PKD
ROOT
HETATM    1  C   UNL     1      -7.546  10.458  67.569  1.00  0.00    -0.094 C  
HETATM    2  S   UNL     1      -7.622  11.041  69.277  1.00  0.00    -0.040 SA 
HETATM    3  CG2 UNL     1      -6.950   9.508  69.949  1.00  0.00    -0.078 C  
HETATM    4  CB  UNL     1      -7.598   8.232  69.419  1.00  0.00    -0.096 C  
HETATM    5  CA  UNL     1      -8.536  11.161  66.587  1.00  0.00    -0.164 C  
HETATM    6  CA  UNL     1      -8.261   8.152  68.226  1.00  0.00    -0.129 C  
HETATM    7  N   UNL     1      -8.363   9.266  67.433  1.00  0.00    -0.121 N  
HETATM    8  O   UNL     1     -10.006   9.169  65.802  1.00  0.00    -0.277 OA 
HETATM    9  C   UNL     1      -8.861   6.834  67.768  1.00  0.00    -0.118 C  
HETATM   10  C   UNL     1      -9.117   9.717  66.410  1.00  0.00    -0.156 C  
HETATM   11  O   UNL     1      -9.859   6.885  66.866  1.00  0.00    -0.163 OA 
HETATM   12  OXT UNL     1      -8.470   5.743  68.162  1.00  0.00    -0.109 OA 
ENDROOT
BRANCH   4  13
HETATM   13  CG1 UNL     1      -7.513   7.127  70.385  1.00  0.00    -0.084 C  
HETATM   14  CD1 UNL     1      -8.327   6.923  71.431  1.00  0.00    -0.115 C  
ENDBRANCH   4  13
BRANCH   5  15
HETATM   15  N   UNL     1      -9.483  12.129  67.194  1.00  0.00    -0.186 N  
HETATM   16  H   UNL     1      -9.361  12.370  68.178  1.00  0.00     0.000 HD 
HETATM   17  C   UNL     1     -10.513  12.715  66.506  1.00  0.00    -0.247 C  
HETATM   18  O   UNL     1     -10.757  12.493  65.328  1.00  0.00    -0.272 OA 
BRANCH  17  19
HETATM   19  C   UNL     1     -11.405  13.658  67.330  1.00  0.00    -0.323 C  
BRANCH  19  20
HETATM   20  N   UNL     1     -11.848  14.812  66.899  1.00  0.00    -0.319 NA 
HETATM   21  H   UNL     1     -11.193  16.642  66.468  1.00  0.00     0.000 HD 
HETATM   22  O   UNL     1     -10.872  15.804  66.781  1.00  0.00    -0.316 OA 
HETATM   23  H   UNL     1     -12.828  14.974  66.668  1.00  0.00     0.000 HD 
ENDBRANCH  19  20
BRANCH  19  24
HETATM   24  C   UNL     1     -11.773  13.292  68.699  1.00  0.00    -0.341 A  
HETATM   25  S   UNL     1     -12.506  13.368  71.140  1.00  0.00    -0.249 SA 
HETATM   26  C   UNL     1     -12.137  14.193  69.685  1.00  0.00    -0.349 A  
HETATM   27  C   UNL     1     -12.166  11.874  70.370  1.00  0.00    -0.314 A  
HETATM   28  N   UNL     1     -11.808  11.960  69.115  1.00  0.00    -0.311 NA 
HETATM   29  N   UNL     1     -12.251  10.711  71.032  1.00  0.00    -0.370 NA 
HETATM   30  H1  UNL     1     -12.049   9.822  70.573  1.00  0.00     0.000 HD 
HETATM   31  H2  UNL     1     -12.525  10.715  72.014  1.00  0.00     0.000 HD 
ENDBRANCH  19  24
ENDBRANCH  17  19
ENDBRANCH   5  15
TORSDOF 5
ENDMDL
MODEL      126
REMARK 921   NORMALIZED FREE ENERGY PREDICTED BY IDOCK:   -4.30 KCAL/MOL
REMARK 922        TOTAL FREE ENERGY PREDICTED BY IDOCK:   -6.42 KCAL/MOL
REMARK 923 INTER-LIGAND FREE ENERGY PREDICTED BY IDOCK:   -5.64 KCAL/MOL
REMARK 924 INTRA-LIGAND FREE ENERGY PREDICTED BY IDOCK:   -0.78 KCAL/MOL
REMARK 927      BINDING AFFINITY PREDICTED BY RF-SCORE:    0.00 PKD
ROOT
HETATM    1  C   UNL     1     -10.675   8.113  69.354  1.00  0.00    -0.156 C  
HETATM    2  S   UNL     1     -10.501   7.522  67.656  1.00  0.00    -0.245 SA 
HETATM    3  CG2 UNL     1     -10.315   5.798  68.157  1.00  0.00    -0.212 C  
HETATM    4  CB  UNL     1      -9.317   5.558  69.286  1.00  0.00    -0.153 C  
HETATM    5  CA  UNL     1     -10.296   9.612  69.572  1.00  0.00    -0.221 C  
HETATM    6  CA  UNL     1      -8.942   6.514  70.188  1.00  0.00    -0.155 C  
HETATM    7  N   UNL     1      -9.481   7.771  70.106  1.00  0.00    -0.161 N  
HETATM    8  O   UNL     1      -8.322   9.420  71.250  1.00  0.00    -0.308 OA 
HETATM    9  C   UNL     1      -7.953   6.181  71.292  1.00  0.00    -0.113 C  
HETATM   10  C   UNL     1      -9.213   9.020  70.537  1.00  0.00    -0.220 C  
HETATM   11  O   UNL     1      -7.277   7.202  71.851  1.00  0.00    -0.077 OA 
HETATM   12  OXT UNL     1      -7.761   5.044  71.704  1.00  0.00    -0.099 OA 
ENDROOT
BRANCH   4  13
HETATM   13  CG1 UNL     1      -8.731   4.211  69.226  1.00  0.00    -0.124 C  
HETATM   14  CD1 UNL     1      -9.347   3.094  68.815  1.00  0.00    -0.231 C  
ENDBRANCH   4  13
BRANCH   5  15
HETATM   15  N   UNL     1      -9.738  10.324  68.395  1.00  0.00    -0.152 N  
HETATM   16  H   UNL     1      -8.730  10.285  68.241  1.00  0.00     0.000 HD 
HETATM   17  C   UNL     1     -10.503  11.030  67.503  1.00  0.00    -0.209 C  
HETATM   18  O   UNL     1     -11.717  11.150  67.595  1.00  0.00    -0.573 OA 
BRANCH  17  19
HETATM   19  C   UNL     1      -9.727  11.728  66.375  1.00  0.00    -0.214 C  
BRANCH  19  20
HETATM   20  N   UNL     1      -9.029  11.097  65.465  1.00  0.00    -0.272 NA 
HETATM   21  H   UNL     1      -7.277  10.177  65.241  1.00  0.00     0.000 HD 
HETATM   22  O   UNL     1      -7.784  10.635  65.902  1.00  0.00    -0.151 OA 
HETATM   23  H   UNL     1      -9.366  10.954  64.513  1.00  0.00     0.000 HD 
ENDBRANCH  19  20
BRANCH  19  24
HETATM   24  C   UNL     1      -9.716  13.191  66.303  1.00  0.00    -0.265 A  
HETATM   25  S   UNL     1     -10.211  15.615  65.686  1.00  0.00    -0.390 SA 
HETATM   26  C   UNL     1     -10.513  13.944  65.458  1.00  0.00    -0.323 A  
HETATM   27  C   UNL     1      -9.050  15.232  66.889  1.00  0.00    -0.240 A  
HETATM   28  N   UNL     1      -8.888  13.956  67.126  1.00  0.00    -0.219 NA 
HETATM   29  N   UNL     1      -8.355  16.190  67.520  1.00  0.00    -0.156 NA 
HETATM   30  H1  UNL     1      -7.665  15.963  68.236  1.00  0.00     0.000 HD 
HETATM   31  H2  UNL     1      -8.521  17.167  67.279  1.00  0.00     0.000 HD 
ENDBRANCH  19  24
ENDBRANCH  17  19
ENDBRANCH   5  15
TORSDOF 5
ENDMDL
MODEL      127
REMARK 921   NORMALIZED FREE ENERGY PREDICTED BY IDOCK:   -4.30 KCAL/MOL
REMARK 922        TOTAL FREE ENERGY PREDICTED BY IDOCK:   -6.42 KCAL/MOL
REMARK 923 INTER-LIGAND FREE ENERGY PREDICTED BY IDOCK:   -5.75 KCAL/MOL
REMARK 924 INTRA-LIGAND FREE ENERGY PREDICTED BY IDOCK:   -0.67 KCAL/MOL
REMARK 927      BINDING AFFINITY PREDICTED BY RF-SCORE:    0.00 PKD
ROOT
HETATM    1  C   UNL     1      -8.871  14.193  67.592  1.00  0.00    -0.194 C  
HETATM    2  S   UNL     1      -7.087  14.299  67.334  1.00  0.00     0.047 SA 
HETATM    3  CG2 UNL     1      -7.049  16.090  67.548  1.00  0.00    -0.171 C  
HETATM    4  CB  UNL     1      -8.105  16.858  66.758  1.00  0.00    -0.276 C  
HETATM    5  CA  UNL     1      -9.556  12.942  66.957  1.00  0.00    -0.231 C  
HETATM    6  CA  UNL     1      -9.275  16.307  66.315  1.00  0.00    -0.328 C  
HETATM    7  N   UNL     1      -9.549  14.991  66.586  1.00  0.00    -0.249 N  
HETATM    8  O   UNL     1     -11.203  14.037  65.273  1.00  0.00    -0.302 OA 
HETATM    9  C   UNL     1     -10.279  17.151  65.549  1.00  0.00    -0.051 C  
HETATM   10  C   UNL     1     -10.354  14.009  66.133  1.00  0.00    -0.297 C  
HETATM   11  O   UNL     1     -11.158  16.508  64.759  1.00  0.00    -0.624 OA 
HETATM   12  OXT UNL     1     -10.335  18.371  65.632  1.00  0.00    -0.605 OA 
ENDROOT
BRANCH   4  13
HETATM   13  CG1 UNL     1      -7.671  18.226  66.442  1.00  0.00    -0.289 C  
HETATM   14  CD1 UNL     1      -6.723  18.926  67.080  1.00  0.00    -0.205 C  
ENDBRANCH   4  13
BRANCH   5  15
HETATM   15  N   UNL     1      -8.685  12.066  66.135  1.00  0.00    -0.398 N  
HETATM   16  H   UNL     1      -7.686  12.271  66.106  1.00  0.00     0.000 HD 
HETATM   17  C   UNL     1      -9.148  10.996  65.414  1.00  0.00    -0.195 C  
HETATM   18  O   UNL     1     -10.325  10.664  65.371  1.00  0.00    -0.272 OA 
BRANCH  17  19
HETATM   19  C   UNL     1      -8.088  10.241  64.597  1.00  0.00    -0.154 C  
BRANCH  19  20
HETATM   20  N   UNL     1      -7.509  10.721  63.525  1.00  0.00    -0.343 NA 
HETATM   21  H   UNL     1      -7.880  11.049  61.597  1.00  0.00     0.000 HD 
HETATM   22  O   UNL     1      -8.301  10.701  62.375  1.00  0.00    -0.181 OA 
HETATM   23  H   UNL     1      -6.554  11.081  63.530  1.00  0.00     0.000 HD 
ENDBRANCH  19  20
BRANCH  19  24
HETATM   24  C   UNL     1      -7.703   8.884  64.990  1.00  0.00    -0.103 A  
HETATM   25  S   UNL     1      -7.470   6.668  66.229  1.00  0.00    -0.082 SA 
HETATM   26  C   UNL     1      -8.134   8.244  66.140  1.00  0.00    -0.111 A  
HETATM   27  C   UNL     1      -6.662   6.933  64.739  1.00  0.00    -0.043 A  
HETATM   28  N   UNL     1      -6.864   8.104  64.193  1.00  0.00    -0.066 NA 
HETATM   29  N   UNL     1      -5.869   5.997  64.198  1.00  0.00    -0.021 NA 
HETATM   30  H1  UNL     1      -5.388   6.155  63.312  1.00  0.00     0.000 HD 
HETATM   31  H2  UNL     1      -5.744   5.108  64.682  1.00  0.00     0.000 HD 
ENDBRANCH  19  24
ENDBRANCH  17  19
ENDBRANCH   5  15
TORSDOF 5
ENDMDL
MODEL      128
REMARK 921   NORMALIZED FREE ENERGY PREDICTED BY IDOCK:   -4.24 KCAL/MOL
REMARK 922        TOTAL FREE ENERGY PREDICTED BY IDOCK:   -6.33 KCAL/MOL
REMARK 923 INTER-LIGAND FREE ENERGY PREDICTED BY IDOCK:   -5.51 KCAL/MOL
REMARK 924 INTRA-LIGAND FREE ENERGY PREDICTED BY IDOCK:   -0.83 KCAL/MOL
REMARK 927      BINDING AFFINITY PREDICTED BY RF-SCORE:    0.00 PKD
ROOT
HETATM    1  C   UNL     1      -8.321  10.537  69.148  1.00  0.00    -0.151 C  
HETATM    2  S   UNL     1     -10.068  10.893  69.440  1.00  0.00    -0.009 SA 
HETATM    3  CG2 UNL     1     -10.475   9.170  69.791  1.00  0.00    -0.223 C  
HETATM    4  CB  UNL     1      -9.933   8.160  68.784  1.00  0.00    -0.198 C  
HETATM    5  CA  UNL     1      -7.579  11.572  68.245  1.00  0.00    -0.115 C  
HETATM    6  CA  UNL     1      -8.858   8.393  67.974  1.00  0.00    -0.142 C  
HETATM    7  N   UNL     1      -8.201   9.594  68.050  1.00  0.00    -0.109 N  
HETATM    8  O   UNL     1      -6.847  10.096  66.238  1.00  0.00    -0.092 OA 
HETATM    9  C   UNL     1      -8.375   7.322  67.012  1.00  0.00    -0.118 C  
HETATM   10  C   UNL     1      -7.358  10.338  67.306  1.00  0.00    -0.090 C  
HETATM   11  O   UNL     1      -7.650   7.720  65.950  1.00  0.00    -0.085 OA 
HETATM   12  OXT UNL     1      -8.596   6.127  67.168  1.00  0.00    -0.105 OA 
ENDROOT
BRANCH   4  13
HETATM   13  CG1 UNL     1     -10.764   6.949  68.717  1.00  0.00    -0.255 C  
HETATM   14  CD1 UNL     1     -11.322   6.310  69.754  1.00  0.00    -0.506 C  
ENDBRANCH   4  13
BRANCH   5  15
HETATM   15  N   UNL     1      -8.418  12.645  67.654  1.00  0.00    -0.161 N  
HETATM   16  H   UNL     1      -9.063  12.394  66.905  1.00  0.00     0.000 HD 
HETATM   17  C   UNL     1      -8.373  13.953  68.060  1.00  0.00    -0.166 C  
HETATM   18  O   UNL     1      -7.633  14.366  68.942  1.00  0.00    -0.127 OA 
BRANCH  17  19
HETATM   19  C   UNL     1      -9.293  14.914  67.292  1.00  0.00    -0.204 C  
BRANCH  19  20
HETATM   20  N   UNL     1      -9.147  16.215  67.276  1.00  0.00    -0.201 NA 
HETATM   21  H   UNL     1      -7.930  17.613  66.547  1.00  0.00     0.000 HD 
HETATM   22  O   UNL     1      -8.036  16.668  66.559  1.00  0.00    -0.241 OA 
HETATM   23  H   UNL     1      -9.793  16.848  67.749  1.00  0.00     0.000 HD 
ENDBRANCH  19  20
BRANCH  19  24
HETATM   24  C   UNL     1     -10.438  14.381  66.549  1.00  0.00    -0.289 A  
HETATM   25  S   UNL     1     -12.704  13.396  65.919  1.00  0.00    -0.098 SA 
HETATM   26  C   UNL     1     -11.609  13.923  67.127  1.00  0.00    -0.364 A  
HETATM   27  C   UNL     1     -11.559  13.813  64.712  1.00  0.00    -0.362 A  
HETATM   28  N   UNL     1     -10.437  14.317  65.154  1.00  0.00    -0.386 NA 
HETATM   29  N   UNL     1     -11.812  13.611  63.410  1.00  0.00    -0.708 NA 
HETATM   30  H1  UNL     1     -11.131  13.859  62.692  1.00  0.00     0.000 HD 
HETATM   31  H2  UNL     1     -12.703  13.201  63.133  1.00  0.00     0.000 HD 
ENDBRANCH  19  24
ENDBRANCH  17  19
ENDBRANCH   5  15
TORSDOF 5
ENDMDL
MODEL      129
REMARK 921   NORMALIZED FREE ENERGY PREDICTED BY IDOCK:   -4.22 KCAL/MOL
REMARK 922        TOTAL FREE ENERGY PREDICTED BY IDOCK:   -6.31 KCAL/MOL
REMARK 923 INTER-LIGAND FREE ENERGY PREDICTED BY IDOCK:   -5.59 KCAL/MOL
REMARK 924 INTRA-LIGAND FREE ENERGY PREDICTED BY IDOCK:   -0.72 KCAL/MOL
REMARK 927      BINDING AFFINITY PREDICTED BY RF-SCORE:    0.00 PKD
ROOT
HETATM    1  C   UNL     1      -8.940   7.690  68.908  1.00  0.00    -0.137 C  
HETATM    2  S   UNL     1     -10.736   7.533  68.811  1.00  0.00    -0.028 SA 
HETATM    3  CG2 UNL     1     -10.665   5.894  68.062  1.00  0.00    -0.252 C  
HETATM    4  CB  UNL     1      -9.699   5.762  66.887  1.00  0.00    -0.163 C  
HETATM    5  CA  UNL     1      -8.407   9.157  68.956  1.00  0.00    -0.127 C  
HETATM    6  CA  UNL     1      -8.629   6.588  66.684  1.00  0.00    -0.118 C  
HETATM    7  N   UNL     1      -8.378   7.601  67.573  1.00  0.00    -0.120 N  
HETATM    8  O   UNL     1      -6.970   9.269  66.795  1.00  0.00    -0.079 OA 
HETATM    9  C   UNL     1      -7.709   6.372  65.495  1.00  0.00    -0.096 C  
HETATM   10  C   UNL     1      -7.688   8.758  67.622  1.00  0.00    -0.101 C  
HETATM   11  O   UNL     1      -6.979   7.422  65.075  1.00  0.00    -0.049 OA 
HETATM   12  OXT UNL     1      -7.587   5.296  64.924  1.00  0.00    -0.077 OA 
ENDROOT
BRANCH   4  13
HETATM   13  CG1 UNL     1     -10.113   4.709  65.948  1.00  0.00    -0.280 C  
HETATM   14  CD1 UNL     1     -11.011   4.834  64.960  1.00  0.00     0.189 C  
ENDBRANCH   4  13
BRANCH   5  15
HETATM   15  N   UNL     1      -9.424  10.228  68.803  1.00  0.00    -0.168 N  
HETATM   16  H   UNL     1     -10.408   9.959  68.795  1.00  0.00     0.000 HD 
HETATM   17  C   UNL     1      -9.113  11.556  68.671  1.00  0.00    -0.120 C  
HETATM   18  O   UNL     1      -7.969  11.988  68.659  1.00  0.00    -0.138 OA 
BRANCH  17  19
HETATM   19  C   UNL     1     -10.312  12.499  68.483  1.00  0.00    -0.222 C  
BRANCH  19  20
HETATM   20  N   UNL     1     -10.999  13.019  69.469  1.00  0.00    -0.459 NA 
HETATM   21  H   UNL     1     -12.693  12.734  70.475  1.00  0.00     0.000 HD 
HETATM   22  O   UNL     1     -12.194  12.357  69.759  1.00  0.00    -0.232 OA 
HETATM   23  H   UNL     1     -10.686  13.842  69.984  1.00  0.00     0.000 HD 
ENDBRANCH  19  20
BRANCH  19  24
HETATM   24  C   UNL     1     -10.765  12.831  67.130  1.00  0.00    -0.245 A  
HETATM   25  S   UNL     1     -10.915  13.741  64.753  1.00  0.00    -0.407 SA 
HETATM   26  C   UNL     1     -10.049  13.594  66.224  1.00  0.00    -0.299 A  
HETATM   27  C   UNL     1     -12.176  12.783  65.410  1.00  0.00    -0.478 A  
HETATM   28  N   UNL     1     -11.984  12.366  66.634  1.00  0.00    -0.596 NA 
HETATM   29  N   UNL     1     -13.283  12.506  64.704  1.00  0.00    -0.785 NA 
HETATM   30  H1  UNL     1     -14.033  11.935  65.095  1.00  0.00     0.000 HD 
HETATM   31  H2  UNL     1     -13.376  12.873  63.758  1.00  0.00     0.000 HD 
ENDBRANCH  19  24
ENDBRANCH  17  19
ENDBRANCH   5  15
TORSDOF 5
ENDMDL
MODEL      130
REMARK 921   NORMALIZED FREE ENERGY PREDICTED BY IDOCK:   -4.20 KCAL/MOL
REMARK 922        TOTAL FREE ENERGY PREDICTED BY IDOCK:   -6.28 KCAL/MOL
REMARK 923 INTER-LIGAND FREE ENERGY PREDICTED BY IDOCK:   -5.55 KCAL/MOL
REMARK 924 INTRA-LIGAND FREE ENERGY PREDICTED BY IDOCK:   -0.73 KCAL/MOL
REMARK 927      BINDING AFFINITY PREDICTED BY RF-SCORE:    0.00 PKD
ROOT
HETATM    1  C   UNL     1      -7.735   9.045  66.572  1.00  0.00    -0.096 C  
HETATM    2  S   UNL     1      -9.025   8.351  67.629  1.00  0.00    -0.135 SA 
HETATM    3  CG2 UNL     1      -8.584   6.646  67.238  1.00  0.00    -0.119 C  
HETATM    4  CB  UNL     1      -8.402   6.350  65.752  1.00  0.00    -0.146 C  
HETATM    5  CA  UNL     1      -8.004  10.500  66.071  1.00  0.00    -0.149 C  
HETATM    6  CA  UNL     1      -8.104   7.301  64.816  1.00  0.00    -0.097 C  
HETATM    7  N   UNL     1      -7.948   8.606  65.205  1.00  0.00    -0.120 N  
HETATM    8  O   UNL     1      -8.081  10.167  63.496  1.00  0.00    -0.154 OA 
HETATM    9  C   UNL     1      -7.923   6.913  63.359  1.00  0.00    -0.069 C  
HETATM   10  C   UNL     1      -7.957   9.836  64.652  1.00  0.00    -0.139 C  
HETATM   11  O   UNL     1      -8.087   7.877  62.434  1.00  0.00    -0.155 OA 
HETATM   12  OXT UNL     1      -7.619   5.784  62.995  1.00  0.00    -0.069 OA 
ENDROOT
BRANCH   4  13
HETATM   13  CG1 UNL     1      -8.683   4.943  65.431  1.00  0.00    -0.143 C  
HETATM   14  CD1 UNL     1      -9.893   4.368  65.375  1.00  0.00    -0.220 C  
ENDBRANCH   4  13
BRANCH   5  15
HETATM   15  N   UNL     1      -9.322  11.081  66.428  1.00  0.00    -0.178 N  
HETATM   16  H   UNL     1     -10.144  10.478  66.380  1.00  0.00     0.000 HD 
HETATM   17  C   UNL     1      -9.496  12.383  66.820  1.00  0.00    -0.228 C  
HETATM   18  O   UNL     1      -8.584  13.194  66.906  1.00  0.00    -0.191 OA 
BRANCH  17  19
HETATM   19  C   UNL     1     -10.947  12.798  67.107  1.00  0.00    -0.263 C  
BRANCH  19  20
HETATM   20  N   UNL     1     -11.755  13.308  66.212  1.00  0.00    -0.351 NA 
HETATM   21  H   UNL     1     -13.128  12.742  64.886  1.00  0.00     0.000 HD 
HETATM   22  O   UNL     1     -12.541  12.372  65.535  1.00  0.00    -0.616 OA 
HETATM   23  H   UNL     1     -11.807  14.309  66.023  1.00  0.00     0.000 HD 
ENDBRANCH  19  20
BRANCH  19  24
HETATM   24  C   UNL     1     -11.483  12.663  68.463  1.00  0.00    -0.311 A  
HETATM   25  S   UNL     1     -12.388  11.727  70.655  1.00  0.00    -0.263 SA 
HETATM   26  C   UNL     1     -11.807  11.459  69.067  1.00  0.00    -0.348 A  
HETATM   27  C   UNL     1     -12.169  13.415  70.442  1.00  0.00    -0.345 A  
HETATM   28  N   UNL     1     -11.691  13.775  69.280  1.00  0.00    -0.304 NA 
HETATM   29  N   UNL     1     -12.489  14.288  71.408  1.00  0.00    -0.344 NA 
HETATM   30  H1  UNL     1     -12.359  15.292  71.282  1.00  0.00     0.000 HD 
HETATM   31  H2  UNL     1     -12.870  13.941  72.288  1.00  0.00     0.000 HD 
ENDBRANCH  19  24
ENDBRANCH  17  19
ENDBRANCH   5  15
TORSDOF 5
ENDMDL
MODEL      131
REMARK 921   NORMALIZED FREE ENERGY PREDICTED BY IDOCK:   -4.19 KCAL/MOL
REMARK 922        TOTAL FREE ENERGY PREDICTED BY IDOCK:   -6.28 KCAL/MOL
REMARK 923 INTER-LIGAND FREE ENERGY PREDICTED BY IDOCK:   -5.37 KCAL/MOL
REMARK 924 INTRA-LIGAND FREE ENERGY PREDICTED BY IDOCK:   -0.91 KCAL/MOL
REMARK 927      BINDING AFFINITY PREDICTED BY RF-SCORE:    0.00 PKD
ROOT
HETATM    1  C   UNL     1      -9.724  12.909  68.261  1.00  0.00    -0.217 C  
HETATM    2  S   UNL     1      -8.190  13.574  67.577  1.00  0.00    -0.190 SA 
HETATM    3  CG2 UNL     1      -8.999  15.027  66.878  1.00  0.00    -0.251 C  
HETATM    4  CB  UNL     1     -10.271  14.740  66.086  1.00  0.00    -0.310 C  
HETATM    5  CA  UNL     1      -9.729  11.365  68.493  1.00  0.00    -0.197 C  
HETATM    6  CA  UNL     1     -11.037  13.620  66.253  1.00  0.00    -0.301 C  
HETATM    7  N   UNL     1     -10.671  12.683  67.184  1.00  0.00    -0.239 N  
HETATM    8  O   UNL     1     -11.654  10.600  66.926  1.00  0.00    -0.174 OA 
HETATM    9  C   UNL     1     -12.299  13.424  65.431  1.00  0.00    -0.477 C  
HETATM   10  C   UNL     1     -10.912  11.387  67.467  1.00  0.00    -0.260 C  
HETATM   11  O   UNL     1     -12.756  12.167  65.283  1.00  0.00    -0.430 OA 
HETATM   12  OXT UNL     1     -12.922  14.348  64.922  1.00  0.00    -0.641 OA 
ENDROOT
BRANCH   4  13
HETATM   13  CG1 UNL     1     -10.519  15.757  65.054  1.00  0.00    -0.331 C  
HETATM   14  CD1 UNL     1     -10.490  17.086  65.225  1.00  0.00    -0.056 C  
ENDBRANCH   4  13
BRANCH   5  15
HETATM   15  N   UNL     1      -8.528  10.630  68.023  1.00  0.00    -0.117 N  
HETATM   16  H   UNL     1      -7.808  11.152  67.525  1.00  0.00     0.000 HD 
HETATM   17  C   UNL     1      -8.335   9.287  68.222  1.00  0.00    -0.120 C  
HETATM   18  O   UNL     1      -9.136   8.564  68.798  1.00  0.00    -0.142 OA 
BRANCH  17  19
HETATM   19  C   UNL     1      -7.045   8.710  67.621  1.00  0.00    -0.080 C  
BRANCH  19  20
HETATM   20  N   UNL     1      -5.848   8.929  68.103  1.00  0.00    -0.042 NA 
HETATM   21  H   UNL     1      -4.923  10.063  69.454  1.00  0.00     0.000 HD 
HETATM   22  O   UNL     1      -5.792   9.903  69.104  1.00  0.00    -0.035 OA 
HETATM   23  H   UNL     1      -5.021   8.430  67.775  1.00  0.00     0.000 HD 
ENDBRANCH  19  20
BRANCH  19  24
HETATM   24  C   UNL     1      -7.115   7.886  66.412  1.00  0.00    -0.071 A  
HETATM   25  S   UNL     1      -6.580   6.729  64.204  1.00  0.00    -0.046 SA 
HETATM   26  C   UNL     1      -6.121   7.809  65.451  1.00  0.00    -0.038 A  
HETATM   27  C   UNL     1      -8.060   6.430  65.018  1.00  0.00    -0.135 A  
HETATM   28  N   UNL     1      -8.219   7.074  66.145  1.00  0.00    -0.118 NA 
HETATM   29  N   UNL     1      -8.984   5.603  64.508  1.00  0.00    -0.356 NA 
HETATM   30  H1  UNL     1      -9.864   5.425  64.992  1.00  0.00     0.000 HD 
HETATM   31  H2  UNL     1      -8.802   5.141  63.617  1.00  0.00     0.000 HD 
ENDBRANCH  19  24
ENDBRANCH  17  19
ENDBRANCH   5  15
TORSDOF 5
ENDMDL
MODEL      132
REMARK 921   NORMALIZED FREE ENERGY PREDICTED BY IDOCK:   -4.16 KCAL/MOL
REMARK 922        TOTAL FREE ENERGY PREDICTED BY IDOCK:   -6.23 KCAL/MOL
REMARK 923 INTER-LIGAND FREE ENERGY PREDICTED BY IDOCK:   -5.34 KCAL/MOL
REMARK 924 INTRA-LIGAND FREE ENERGY PREDICTED BY IDOCK:   -0.89 KCAL/MOL
REMARK 927      BINDING AFFINITY PREDICTED BY RF-SCORE:    0.00 PKD
ROOT
HETATM    1  C   UNL     1      -8.723   9.824  67.908  1.00  0.00    -0.125 C  
HETATM    2  S   UNL     1      -8.770   8.458  66.727  1.00  0.00    -0.132 SA 
HETATM    3  CG2 UNL     1      -8.972   9.548  65.303  1.00  0.00    -0.200 C  
HETATM    4  CB  UNL     1     -10.045  10.622  65.460  1.00  0.00    -0.343 C  
HETATM    5  CA  UNL     1      -9.132   9.448  69.367  1.00  0.00    -0.161 C  
HETATM    6  CA  UNL     1     -10.493  11.082  66.666  1.00  0.00    -0.256 C  
HETATM    7  N   UNL     1      -9.963  10.573  67.824  1.00  0.00    -0.168 N  
HETATM    8  O   UNL     1     -11.218  10.953  69.735  1.00  0.00    -0.252 OA 
HETATM    9  C   UNL     1     -11.554  12.167  66.728  1.00  0.00    -0.345 C  
HETATM   10  C   UNL     1     -10.274  10.495  69.133  1.00  0.00    -0.224 C  
HETATM   11  O   UNL     1     -12.279  12.266  67.857  1.00  0.00    -0.409 OA 
HETATM   12  OXT UNL     1     -11.762  12.958  65.816  1.00  0.00    -0.348 OA 
ENDROOT
BRANCH   4  13
HETATM   13  CG1 UNL     1     -10.611  11.028  64.165  1.00  0.00    -0.412 C  
HETATM   14  CD1 UNL     1      -9.930  11.230  63.029  1.00  0.00    -0.345 C  
ENDBRANCH   4  13
BRANCH   5  15
HETATM   15  N   UNL     1      -9.613   8.059  69.575  1.00  0.00    -0.163 N  
HETATM   16  H   UNL     1     -10.394   7.730  69.007  1.00  0.00     0.000 HD 
HETATM   17  C   UNL     1      -9.065   7.195  70.487  1.00  0.00    -0.155 C  
HETATM   18  O   UNL     1      -8.133   7.487  71.224  1.00  0.00    -0.094 OA 
BRANCH  17  19
HETATM   19  C   UNL     1      -9.735   5.815  70.575  1.00  0.00    -0.177 C  
BRANCH  19  20
HETATM   20  N   UNL     1     -10.702   5.520  71.407  1.00  0.00    -0.243 NA 
HETATM   21  H   UNL     1     -12.357   6.314  72.177  1.00  0.00     0.000 HD 
HETATM   22  O   UNL     1     -11.655   6.528  71.574  1.00  0.00    -0.288 OA 
HETATM   23  H   UNL     1     -10.755   4.626  71.894  1.00  0.00     0.000 HD 
ENDBRANCH  19  20
BRANCH  19  24
HETATM   24  C   UNL     1      -9.265   4.727  69.714  1.00  0.00    -0.121 A  
HETATM   25  S   UNL     1      -8.999   3.053  67.810  1.00  0.00    -0.175 SA 
HETATM   26  C   UNL     1      -9.855   4.357  68.518  1.00  0.00    -0.069 A  
HETATM   27  C   UNL     1      -7.903   3.067  69.129  1.00  0.00    -0.046 A  
HETATM   28  N   UNL     1      -8.134   3.976  70.040  1.00  0.00    -0.057 NA 
HETATM   29  N   UNL     1      -6.894   2.187  69.208  1.00  0.00    -0.033 NA 
HETATM   30  H1  UNL     1      -6.241   2.196  69.993  1.00  0.00     0.000 HD 
HETATM   31  H2  UNL     1      -6.776   1.495  68.469  1.00  0.00     0.000 HD 
ENDBRANCH  19  24
ENDBRANCH  17  19
ENDBRANCH   5  15
TORSDOF 5
ENDMDL
MODEL      133
REMARK 921   NORMALIZED FREE ENERGY PREDICTED BY IDOCK:   -4.15 KCAL/MOL
REMARK 922        TOTAL FREE ENERGY PREDICTED BY IDOCK:   -6.23 KCAL/MOL
REMARK 923 INTER-LIGAND FREE ENERGY PREDICTED BY IDOCK:   -5.25 KCAL/MOL
REMARK 924 INTRA-LIGAND FREE ENERGY PREDICTED BY IDOCK:   -0.98 KCAL/MOL
REMARK 927      BINDING AFFINITY PREDICTED BY RF-SCORE:    0.00 PKD
ROOT
HETATM    1  C   UNL     1     -10.838   7.213  67.235  1.00  0.00    -0.312 C  
HETATM    2  S   UNL     1     -10.557   8.966  67.569  1.00  0.00    -0.172 SA 
HETATM    3  CG2 UNL     1      -9.710   9.244  66.000  1.00  0.00    -0.289 C  
HETATM    4  CB  UNL     1      -8.629   8.223  65.659  1.00  0.00    -0.189 C  
HETATM    5  CA  UNL     1     -11.035   6.324  68.503  1.00  0.00    -0.340 C  
HETATM    6  CA  UNL     1      -8.586   6.958  66.176  1.00  0.00    -0.143 C  
HETATM    7  N   UNL     1      -9.561   6.550  67.049  1.00  0.00    -0.138 N  
HETATM    8  O   UNL     1      -9.036   4.676  68.309  1.00  0.00    -0.110 OA 
HETATM    9  C   UNL     1      -7.481   5.999  65.767  1.00  0.00    -0.082 C  
HETATM   10  C   UNL     1      -9.754   5.591  67.977  1.00  0.00    -0.131 C  
HETATM   11  O   UNL     1      -7.204   4.978  66.599  1.00  0.00    -0.077 OA 
HETATM   12  OXT UNL     1      -6.853   6.102  64.721  1.00  0.00    -0.045 OA 
ENDROOT
BRANCH   4  13
HETATM   13  CG1 UNL     1      -7.587   8.791  64.793  1.00  0.00    -0.107 C  
HETATM   14  CD1 UNL     1      -6.834   9.869  65.057  1.00  0.00    -0.126 C  
ENDBRANCH   4  13
BRANCH   5  15
HETATM   15  N   UNL     1     -10.855   7.001  69.812  1.00  0.00    -0.240 N  
HETATM   16  H   UNL     1      -9.932   7.370  70.040  1.00  0.00     0.000 HD 
HETATM   17  C   UNL     1     -11.862   7.159  70.729  1.00  0.00    -0.325 C  
HETATM   18  O   UNL     1     -13.003   6.750  70.562  1.00  0.00     0.031 OA 
BRANCH  17  19
HETATM   19  C   UNL     1     -11.458   7.852  72.039  1.00  0.00    -0.300 C  
BRANCH  19  20
HETATM   20  N   UNL     1     -12.297   8.474  72.829  1.00  0.00    -0.520 NA 
HETATM   21  H   UNL     1     -13.733   9.852  72.763  1.00  0.00     0.000 HD 
HETATM   22  O   UNL     1     -13.124   9.401  72.189  1.00  0.00    -0.396 OA 
HETATM   23  H   UNL     1     -12.344   8.295  73.832  1.00  0.00     0.000 HD 
ENDBRANCH  19  20
BRANCH  19  24
HETATM   24  C   UNL     1     -10.051   7.871  72.444  1.00  0.00    -0.248 A  
HETATM   25  S   UNL     1      -7.822   7.364  73.572  1.00  0.00    -0.118 SA 
HETATM   26  C   UNL     1      -9.494   7.038  73.399  1.00  0.00    -0.178 A  
HETATM   27  C   UNL     1      -7.943   8.581  72.370  1.00  0.00    -0.060 A  
HETATM   28  N   UNL     1      -9.134   8.745  71.857  1.00  0.00    -0.331 NA 
HETATM   29  N   UNL     1      -6.880   9.315  72.009  1.00  0.00    -0.301 NA 
HETATM   30  H1  UNL     1      -6.952  10.039  71.293  1.00  0.00     0.000 HD 
HETATM   31  H2  UNL     1      -5.980   9.145  72.458  1.00  0.00     0.000 HD 
ENDBRANCH  19  24
ENDBRANCH  17  19
ENDBRANCH   5  15
TORSDOF 5
ENDMDL
MODEL      134
REMARK 921   NORMALIZED FREE ENERGY PREDICTED BY IDOCK:   -4.15 KCAL/MOL
REMARK 922        TOTAL FREE ENERGY PREDICTED BY IDOCK:   -6.23 KCAL/MOL
REMARK 923 INTER-LIGAND FREE ENERGY PREDICTED BY IDOCK:   -5.20 KCAL/MOL
REMARK 924 INTRA-LIGAND FREE ENERGY PREDICTED BY IDOCK:   -1.03 KCAL/MOL
REMARK 927      BINDING AFFINITY PREDICTED BY RF-SCORE:    0.00 PKD
ROOT
HETATM    1  C   UNL     1      -7.301   7.706  66.599  1.00  0.00    -0.088 C  
HETATM    2  S   UNL     1      -8.219   7.373  68.118  1.00  0.00    -0.125 SA 
HETATM    3  CG2 UNL     1      -7.779   5.624  68.135  1.00  0.00    -0.089 C  
HETATM    4  CB  UNL     1      -7.971   4.897  66.806  1.00  0.00    -0.103 C  
HETATM    5  CA  UNL     1      -7.790   8.949  65.790  1.00  0.00    -0.099 C  
HETATM    6  CA  UNL     1      -7.994   5.523  65.591  1.00  0.00    -0.109 C  
HETATM    7  N   UNL     1      -7.832   6.883  65.528  1.00  0.00    -0.105 N  
HETATM    8  O   UNL     1      -8.513   7.866  63.543  1.00  0.00     0.016 OA 
HETATM    9  C   UNL     1      -8.172   4.717  64.316  1.00  0.00    -0.117 C  
HETATM   10  C   UNL     1      -8.069   7.893  64.667  1.00  0.00    -0.125 C  
HETATM   11  O   UNL     1      -8.638   5.364  63.232  1.00  0.00    -0.104 OA 
HETATM   12  OXT UNL     1      -7.897   3.527  64.227  1.00  0.00    -0.083 OA 
ENDROOT
BRANCH   4  13
HETATM   13  CG1 UNL     1      -8.229   3.462  66.995  1.00  0.00    -0.091 C  
HETATM   14  CD1 UNL     1      -9.206   2.921  67.735  1.00  0.00    -0.250 C  
ENDBRANCH   4  13
BRANCH   5  15
HETATM   15  N   UNL     1      -9.006   9.626  66.305  1.00  0.00    -0.150 N  
HETATM   16  H   UNL     1      -9.901   9.143  66.217  1.00  0.00     0.000 HD 
HETATM   17  C   UNL     1      -8.993  10.864  66.893  1.00  0.00    -0.151 C  
HETATM   18  O   UNL     1      -7.981  11.535  67.044  1.00  0.00    -0.148 OA 
BRANCH  17  19
HETATM   19  C   UNL     1     -10.366  11.406  67.322  1.00  0.00    -0.198 C  
BRANCH  19  20
HETATM   20  N   UNL     1     -10.943  11.124  68.463  1.00  0.00    -0.201 NA 
HETATM   21  H   UNL     1     -10.660  10.014  70.091  1.00  0.00     0.000 HD 
HETATM   22  O   UNL     1     -10.241  10.219  69.263  1.00  0.00    -0.201 OA 
HETATM   23  H   UNL     1     -11.834  11.532  68.745  1.00  0.00     0.000 HD 
ENDBRANCH  19  20
BRANCH  19  24
HETATM   24  C   UNL     1     -11.122  12.266  66.408  1.00  0.00    -0.303 A  
HETATM   25  S   UNL     1     -12.615  14.089  65.436  1.00  0.00    -0.454 SA 
HETATM   26  C   UNL     1     -11.914  13.331  66.802  1.00  0.00    -0.382 A  
HETATM   27  C   UNL     1     -11.821  12.964  64.414  1.00  0.00    -0.383 A  
HETATM   28  N   UNL     1     -11.075  12.081  65.026  1.00  0.00    -0.310 NA 
HETATM   29  N   UNL     1     -11.980  12.996  63.083  1.00  0.00    -0.846 NA 
HETATM   30  H1  UNL     1     -11.508  12.326  62.475  1.00  0.00     0.000 HD 
HETATM   31  H2  UNL     1     -12.587  13.703  62.670  1.00  0.00     0.000 HD 
ENDBRANCH  19  24
ENDBRANCH  17  19
ENDBRANCH   5  15
TORSDOF 5
ENDMDL
MODEL      135
REMARK 921   NORMALIZED FREE ENERGY PREDICTED BY IDOCK:   -4.12 KCAL/MOL
REMARK 922        TOTAL FREE ENERGY PREDICTED BY IDOCK:   -6.19 KCAL/MOL
REMARK 923 INTER-LIGAND FREE ENERGY PREDICTED BY IDOCK:   -5.23 KCAL/MOL
REMARK 924 INTRA-LIGAND FREE ENERGY PREDICTED BY IDOCK:   -0.96 KCAL/MOL
REMARK 927      BINDING AFFINITY PREDICTED BY RF-SCORE:    0.00 PKD
ROOT
HETATM    1  C   UNL     1     -10.055   8.582  69.090  1.00  0.00    -0.203 C  
HETATM    2  S   UNL     1     -10.532   8.708  67.352  1.00  0.00    -0.247 SA 
HETATM    3  CG2 UNL     1      -9.619   7.226  66.878  1.00  0.00    -0.174 C  
HETATM    4  CB  UNL     1      -8.187   7.155  67.401  1.00  0.00    -0.116 C  
HETATM    5  CA  UNL     1     -10.093   9.926  69.884  1.00  0.00    -0.257 C  
HETATM    6  CA  UNL     1      -7.741   7.838  68.498  1.00  0.00    -0.118 C  
HETATM    7  N   UNL     1      -8.608   8.638  69.195  1.00  0.00    -0.128 N  
HETATM    8  O   UNL     1      -7.609  10.190  70.596  1.00  0.00    -0.237 OA 
HETATM    9  C   UNL     1      -6.300   7.694  68.958  1.00  0.00    -0.036 C  
HETATM   10  C   UNL     1      -8.561   9.658  70.076  1.00  0.00    -0.215 C  
HETATM   11  O   UNL     1      -5.787   8.682  69.714  1.00  0.00    -0.029 OA 
HETATM   12  OXT UNL     1      -5.602   6.724  68.692  1.00  0.00    -0.016 OA 
ENDROOT
BRANCH   4  13
HETATM   13  CG1 UNL     1      -7.321   6.348  66.529  1.00  0.00    -0.078 C  
HETATM   14  CD1 UNL     1      -7.552   5.091  66.123  1.00  0.00    -0.087 C  
ENDBRANCH   4  13
BRANCH   5  15
HETATM   15  N   UNL     1     -10.403  11.144  69.093  1.00  0.00    -0.338 N  
HETATM   16  H   UNL     1      -9.756  11.415  68.352  1.00  0.00     0.000 HD 
HETATM   17  C   UNL     1     -11.510  11.924  69.304  1.00  0.00    -0.306 C  
HETATM   18  O   UNL     1     -12.346  11.698  70.168  1.00  0.00    -0.274 OA 
BRANCH  17  19
HETATM   19  C   UNL     1     -11.625  13.164  68.404  1.00  0.00    -0.337 C  
BRANCH  19  20
HETATM   20  N   UNL     1     -12.488  13.284  67.427  1.00  0.00    -0.116 NA 
HETATM   21  H   UNL     1     -12.795  12.649  65.565  1.00  0.00     0.000 HD 
HETATM   22  O   UNL     1     -12.169  12.562  66.274  1.00  0.00    -0.600 OA 
HETATM   23  H   UNL     1     -13.327  13.860  67.501  1.00  0.00     0.000 HD 
ENDBRANCH  19  20
BRANCH  19  24
HETATM   24  C   UNL     1     -10.705  14.287  68.599  1.00  0.00    -0.249 A  
HETATM   25  S   UNL     1      -9.716  16.619  68.883  1.00  0.00    -0.248 SA 
HETATM   26  C   UNL     1     -11.081  15.619  68.616  1.00  0.00    -0.317 A  
HETATM   27  C   UNL     1      -8.720  15.225  68.963  1.00  0.00    -0.226 A  
HETATM   28  N   UNL     1      -9.341  14.084  68.811  1.00  0.00    -0.120 NA 
HETATM   29  N   UNL     1      -7.396  15.322  69.152  1.00  0.00    -0.156 NA 
HETATM   30  H1  UNL     1      -6.804  14.493  69.200  1.00  0.00     0.000 HD 
HETATM   31  H2  UNL     1      -6.972  16.244  69.251  1.00  0.00     0.000 HD 
ENDBRANCH  19  24
ENDBRANCH  17  19
ENDBRANCH   5  15
TORSDOF 5
ENDMDL
MODEL      136
REMARK 921   NORMALIZED FREE ENERGY PREDICTED BY IDOCK:   -4.11 KCAL/MOL
REMARK 922        TOTAL FREE ENERGY PREDICTED BY IDOCK:   -6.17 KCAL/MOL
REMARK 923 INTER-LIGAND FREE ENERGY PREDICTED BY IDOCK:   -5.20 KCAL/MOL
REMARK 924 INTRA-LIGAND FREE ENERGY PREDICTED BY IDOCK:   -0.96 KCAL/MOL
REMARK 927      BINDING AFFINITY PREDICTED BY RF-SCORE:    0.00 PKD
ROOT
HETATM    1  C   UNL     1      -6.469  11.116  68.614  1.00  0.00    -0.049 C  
HETATM    2  S   UNL     1      -8.089  11.489  67.909  1.00  0.00    -0.140 SA 
HETATM    3  CG2 UNL     1      -7.700  13.232  67.651  1.00  0.00    -0.171 C  
HETATM    4  CB  UNL     1      -7.071  13.938  68.849  1.00  0.00    -0.110 C  
HETATM    5  CA  UNL     1      -6.428   9.866  69.550  1.00  0.00    -0.048 C  
HETATM    6  CA  UNL     1      -6.402  13.290  69.850  1.00  0.00    -0.051 C  
HETATM    7  N   UNL     1      -6.264  11.927  69.800  1.00  0.00    -0.133 N  
HETATM    8  O   UNL     1      -5.693  10.920  71.807  1.00  0.00    -0.314 OA 
HETATM    9  C   UNL     1      -5.792  14.076  70.998  1.00  0.00    -0.209 C  
HETATM   10  C   UNL     1      -5.982  10.906  70.634  1.00  0.00    -0.087 C  
HETATM   11  O   UNL     1      -5.558  13.417  72.148  1.00  0.00    -0.406 OA 
HETATM   12  OXT UNL     1      -5.488  15.260  70.918  1.00  0.00    -0.140 OA 
ENDROOT
BRANCH   4  13
HETATM   13  CG1 UNL     1      -7.358  15.379  68.853  1.00  0.00    -0.147 C  
HETATM   14  CD1 UNL     1      -8.542  15.953  69.113  1.00  0.00    -0.252 C  
ENDBRANCH   4  13
BRANCH   5  15
HETATM   15  N   UNL     1      -7.733   9.217  69.830  1.00  0.00    -0.075 N  
HETATM   16  H   UNL     1      -8.282   9.558  70.619  1.00  0.00     0.000 HD 
HETATM   17  C   UNL     1      -8.241   8.183  69.086  1.00  0.00    -0.123 C  
HETATM   18  O   UNL     1      -7.665   7.690  68.126  1.00  0.00    -0.114 OA 
BRANCH  17  19
HETATM   19  C   UNL     1      -9.589   7.624  69.566  1.00  0.00    -0.163 C  
BRANCH  19  20
HETATM   20  N   UNL     1      -9.952   6.372  69.440  1.00  0.00    -0.154 NA 
HETATM   21  H   UNL     1     -11.179   5.233  68.364  1.00  0.00     0.000 HD 
HETATM   22  O   UNL     1     -10.916   6.141  68.456  1.00  0.00    -0.302 OA 
HETATM   23  H   UNL     1      -9.562   5.625  70.015  1.00  0.00     0.000 HD 
ENDBRANCH  19  20
BRANCH  19  24
HETATM   24  C   UNL     1     -10.570   8.525  70.176  1.00  0.00    -0.232 A  
HETATM   25  S   UNL     1     -12.440   9.498  71.610  1.00  0.00    -0.414 SA 
HETATM   26  C   UNL     1     -11.482   8.155  71.149  1.00  0.00    -0.276 A  
HETATM   27  C   UNL     1     -11.582  10.481  70.498  1.00  0.00    -0.350 A  
HETATM   28  N   UNL     1     -10.639   9.874  69.825  1.00  0.00    -0.245 NA 
HETATM   29  N   UNL     1     -11.884  11.777  70.332  1.00  0.00    -0.499 NA 
HETATM   30  H1  UNL     1     -11.373  12.362  69.671  1.00  0.00     0.000 HD 
HETATM   31  H2  UNL     1     -12.640  12.187  70.880  1.00  0.00     0.000 HD 
ENDBRANCH  19  24
ENDBRANCH  17  19
ENDBRANCH   5  15
TORSDOF 5
ENDMDL
MODEL      137
REMARK 921   NORMALIZED FREE ENERGY PREDICTED BY IDOCK:   -4.02 KCAL/MOL
REMARK 922        TOTAL FREE ENERGY PREDICTED BY IDOCK:   -6.06 KCAL/MOL
REMARK 923 INTER-LIGAND FREE ENERGY PREDICTED BY IDOCK:   -5.50 KCAL/MOL
REMARK 924 INTRA-LIGAND FREE ENERGY PREDICTED BY IDOCK:   -0.55 KCAL/MOL
REMARK 927      BINDING AFFINITY PREDICTED BY RF-SCORE:    0.00 PKD
ROOT
HETATM    1  C   UNL     1      -9.747  13.087  68.197  1.00  0.00    -0.228 C  
HETATM    2  S   UNL     1     -10.773  13.191  66.714  1.00  0.00    -0.269 SA 
HETATM    3  CG2 UNL     1     -10.715  11.413  66.413  1.00  0.00    -0.275 C  
HETATM    4  CB  UNL     1      -9.323  10.792  66.485  1.00  0.00    -0.192 C  
HETATM    5  CA  UNL     1      -8.990  14.401  68.569  1.00  0.00    -0.187 C  
HETATM    6  CA  UNL     1      -8.276  11.343  67.171  1.00  0.00    -0.157 C  
HETATM    7  N   UNL     1      -8.457  12.521  67.849  1.00  0.00    -0.161 N  
HETATM    8  O   UNL     1      -6.510  13.645  68.412  1.00  0.00    -0.078 OA 
HETATM    9  C   UNL     1      -6.928  10.646  67.203  1.00  0.00    -0.088 C  
HETATM   10  C   UNL     1      -7.711  13.519  68.364  1.00  0.00    -0.135 C  
HETATM   11  O   UNL     1      -5.845  11.397  67.474  1.00  0.00    -0.049 OA 
HETATM   12  OXT UNL     1      -6.786   9.444  67.017  1.00  0.00    -0.081 OA 
ENDROOT
BRANCH   4  13
HETATM   13  CG1 UNL     1      -9.212   9.588  65.650  1.00  0.00    -0.281 C  
HETATM   14  CD1 UNL     1      -9.622   8.354  65.977  1.00  0.00    -0.196 C  
ENDBRANCH   4  13
BRANCH   5  15
HETATM   15  N   UNL     1      -9.116  15.524  67.605  1.00  0.00    -0.181 N  
HETATM   16  H   UNL     1      -9.755  15.413  66.818  1.00  0.00     0.000 HD 
HETATM   17  C   UNL     1      -8.421  16.700  67.716  1.00  0.00    -0.187 C  
HETATM   18  O   UNL     1      -7.624  16.937  68.614  1.00  0.00    -0.209 OA 
BRANCH  17  19
HETATM   19  C   UNL     1      -8.664  17.719  66.592  1.00  0.00    -0.261 C  
BRANCH  19  20
HETATM   20  N   UNL     1      -9.673  17.666  65.759  1.00  0.00    -0.538 NA 
HETATM   21  H   UNL     1     -11.660  17.790  65.746  1.00  0.00     0.000 HD 
HETATM   22  O   UNL     1     -10.928  17.828  66.351  1.00  0.00    -0.033 OA 
HETATM   23  H   UNL     1      -9.552  17.517  64.757  1.00  0.00     0.000 HD 
ENDBRANCH  19  20
BRANCH  19  24
HETATM   24  C   UNL     1      -7.710  18.811  66.387  1.00  0.00    -0.269 A  
HETATM   25  S   UNL     1      -6.254  20.881  66.701  1.00  0.00    -0.284 SA 
HETATM   26  C   UNL     1      -7.434  19.801  67.315  1.00  0.00    -0.250 A  
HETATM   27  C   UNL     1      -6.183  19.965  65.252  1.00  0.00    -0.246 A  
HETATM   28  N   UNL     1      -6.969  18.921  65.210  1.00  0.00    -0.497 NA 
HETATM   29  N   UNL     1      -5.381  20.324  64.238  1.00  0.00    -0.172 NA 
HETATM   30  H1  UNL     1      -5.339  19.779  63.376  1.00  0.00     0.000 HD 
HETATM   31  H2  UNL     1      -4.802  21.158  64.330  1.00  0.00     0.000 HD 
ENDBRANCH  19  24
ENDBRANCH  17  19
ENDBRANCH   5  15
TORSDOF 5
ENDMDL
MODEL      138
REMARK 921   NORMALIZED FREE ENERGY PREDICTED BY IDOCK:   -4.00 KCAL/MOL
REMARK 922        TOTAL FREE ENERGY PREDICTED BY IDOCK:   -6.03 KCAL/MOL
REMARK 923 INTER-LIGAND FREE ENERGY PREDICTED BY IDOCK:   -5.15 KCAL/MOL
REMARK 924 INTRA-LIGAND FREE ENERGY PREDICTED BY IDOCK:   -0.89 KCAL/MOL
REMARK 927      BINDING AFFINITY PREDICTED BY RF-SCORE:    0.00 PKD
ROOT
HETATM    1  C   UNL     1      -7.462   8.896  66.830  1.00  0.00    -0.083 C  
HETATM    2  S   UNL     1      -8.360   7.846  67.994  1.00  0.00    -0.123 SA 
HETATM    3  CG2 UNL     1      -7.629   6.324  67.359  1.00  0.00    -0.093 C  
HETATM    4  CB  UNL     1      -7.650   6.182  65.840  1.00  0.00    -0.087 C  
HETATM    5  CA  UNL     1      -8.129  10.277  66.536  1.00  0.00    -0.121 C  
HETATM    6  CA  UNL     1      -7.739   7.238  64.977  1.00  0.00    -0.115 C  
HETATM    7  N   UNL     1      -7.809   8.514  65.473  1.00  0.00    -0.099 N  
HETATM    8  O   UNL     1      -8.582  10.112  63.983  1.00  0.00    -0.166 OA 
HETATM    9  C   UNL     1      -7.735   7.004  63.476  1.00  0.00    -0.114 C  
HETATM   10  C   UNL     1      -8.187   9.742  65.064  1.00  0.00    -0.142 C  
HETATM   11  O   UNL     1      -8.268   7.963  62.696  1.00  0.00    -0.165 OA 
HETATM   12  OXT UNL     1      -7.258   6.007  62.950  1.00  0.00    -0.047 OA 
ENDROOT
BRANCH   4  13
HETATM   13  CG1 UNL     1      -7.666   4.774  65.418  1.00  0.00    -0.086 C  
HETATM   14  CD1 UNL     1      -8.728   3.956  65.419  1.00  0.00    -0.116 C  
ENDBRANCH   4  13
BRANCH   5  15
HETATM   15  N   UNL     1      -9.459  10.505  67.153  1.00  0.00    -0.158 N  
HETATM   16  H   UNL     1     -10.218   9.866  66.914  1.00  0.00     0.000 HD 
HETATM   17  C   UNL     1      -9.724  11.526  68.028  1.00  0.00    -0.186 C  
HETATM   18  O   UNL     1      -8.893  12.353  68.379  1.00  0.00    -0.182 OA 
BRANCH  17  19
HETATM   19  C   UNL     1     -11.176  11.612  68.523  1.00  0.00    -0.256 C  
BRANCH  19  20
HETATM   20  N   UNL     1     -12.109  12.324  67.942  1.00  0.00    -0.434 NA 
HETATM   21  H   UNL     1     -12.668  14.220  67.707  1.00  0.00     0.000 HD 
HETATM   22  O   UNL     1     -11.991  13.703  68.129  1.00  0.00    -0.362 OA 
HETATM   23  H   UNL     1     -12.861  11.904  67.396  1.00  0.00     0.000 HD 
ENDBRANCH  19  20
BRANCH  19  24
HETATM   24  C   UNL     1     -11.570  10.895  69.738  1.00  0.00    -0.322 A  
HETATM   25  S   UNL     1     -12.863  10.022  71.755  1.00  0.00    -0.453 SA 
HETATM   26  C   UNL     1     -12.786  11.045  70.383  1.00  0.00    -0.218 A  
HETATM   27  C   UNL     1     -11.287   9.445  71.402  1.00  0.00    -0.381 A  
HETATM   28  N   UNL     1     -10.727   9.959  70.338  1.00  0.00    -0.300 NA 
HETATM   29  N   UNL     1     -10.683   8.540  72.187  1.00  0.00    -0.337 NA 
HETATM   30  H1  UNL     1      -9.745   8.197  71.977  1.00  0.00     0.000 HD 
HETATM   31  H2  UNL     1     -11.171   8.189  73.010  1.00  0.00     0.000 HD 
ENDBRANCH  19  24
ENDBRANCH  17  19
ENDBRANCH   5  15
TORSDOF 5
ENDMDL
MODEL      139
REMARK 921   NORMALIZED FREE ENERGY PREDICTED BY IDOCK:   -3.96 KCAL/MOL
REMARK 922        TOTAL FREE ENERGY PREDICTED BY IDOCK:   -5.97 KCAL/MOL
REMARK 923 INTER-LIGAND FREE ENERGY PREDICTED BY IDOCK:   -5.14 KCAL/MOL
REMARK 924 INTRA-LIGAND FREE ENERGY PREDICTED BY IDOCK:   -0.83 KCAL/MOL
REMARK 927      BINDING AFFINITY PREDICTED BY RF-SCORE:    0.00 PKD
ROOT
HETATM    1  C   UNL     1     -11.091   6.869  69.620  1.00  0.00    -0.258 C  
HETATM    2  S   UNL     1      -9.710   5.983  68.864  1.00  0.00    -0.137 SA 
HETATM    3  CG2 UNL     1      -9.960   4.507  69.871  1.00  0.00    -0.203 C  
HETATM    4  CB  UNL     1     -10.135   4.766  71.364  1.00  0.00    -0.259 C  
HETATM    5  CA  UNL     1     -11.001   8.425  69.537  1.00  0.00    -0.040 C  
HETATM    6  CA  UNL     1     -10.557   5.956  71.887  1.00  0.00    -0.231 C  
HETATM    7  N   UNL     1     -10.855   6.997  71.046  1.00  0.00    -0.233 N  
HETATM    8  O   UNL     1     -10.934   9.085  72.049  1.00  0.00    -0.358 OA 
HETATM    9  C   UNL     1     -10.720   6.120  73.388  1.00  0.00    -0.259 C  
HETATM   10  C   UNL     1     -10.998   8.337  71.101  1.00  0.00    -0.245 C  
HETATM   11  O   UNL     1     -10.685   7.371  73.885  1.00  0.00    -0.319 OA 
HETATM   12  OXT UNL     1     -10.899   5.181  74.153  1.00  0.00    -0.277 OA 
ENDROOT
BRANCH   4  13
HETATM   13  CG1 UNL     1      -9.700   3.621  72.178  1.00  0.00    -0.231 C  
HETATM   14  CD1 UNL     1      -9.897   2.326  71.895  1.00  0.00    -0.225 C  
ENDBRANCH   4  13
BRANCH   5  15
HETATM   15  N   UNL     1      -9.751   8.978  68.956  1.00  0.00    -0.164 N  
HETATM   16  H   UNL     1      -8.891   8.895  69.497  1.00  0.00     0.000 HD 
HETATM   17  C   UNL     1      -9.691   9.593  67.732  1.00  0.00    -0.146 C  
HETATM   18  O   UNL     1     -10.661   9.753  67.004  1.00  0.00    -0.234 OA 
BRANCH  17  19
HETATM   19  C   UNL     1      -8.310  10.132  67.332  1.00  0.00    -0.118 C  
BRANCH  19  20
HETATM   20  N   UNL     1      -7.976  10.460  66.109  1.00  0.00    -0.132 NA 
HETATM   21  H   UNL     1      -8.008   9.722  64.260  1.00  0.00     0.000 HD 
HETATM   22  O   UNL     1      -8.251   9.484  65.148  1.00  0.00    -0.122 OA 
HETATM   23  H   UNL     1      -7.549  11.357  65.877  1.00  0.00     0.000 HD 
ENDBRANCH  19  20
BRANCH  19  24
HETATM   24  C   UNL     1      -7.263  10.267  68.348  1.00  0.00    -0.080 A  
HETATM   25  S   UNL     1      -5.182   9.921  69.779  1.00  0.00    -0.037 SA 
HETATM   26  C   UNL     1      -6.181   9.414  68.483  1.00  0.00    -0.048 A  
HETATM   27  C   UNL     1      -6.243  11.236  70.072  1.00  0.00    -0.149 A  
HETATM   28  N   UNL     1      -7.271  11.316  69.269  1.00  0.00    -0.114 NA 
HETATM   29  N   UNL     1      -6.023  12.102  71.072  1.00  0.00    -0.520 NA 
HETATM   30  H1  UNL     1      -6.654  12.884  71.246  1.00  0.00     0.000 HD 
HETATM   31  H2  UNL     1      -5.207  11.975  71.671  1.00  0.00     0.000 HD 
ENDBRANCH  19  24
ENDBRANCH  17  19
ENDBRANCH   5  15
TORSDOF 5
ENDMDL
MODEL      140
REMARK 921   NORMALIZED FREE ENERGY PREDICTED BY IDOCK:   -3.93 KCAL/MOL
REMARK 922        TOTAL FREE ENERGY PREDICTED BY IDOCK:   -5.93 KCAL/MOL
REMARK 923 INTER-LIGAND FREE ENERGY PREDICTED BY IDOCK:   -4.79 KCAL/MOL
REMARK 924 INTRA-LIGAND FREE ENERGY PREDICTED BY IDOCK:   -1.15 KCAL/MOL
REMARK 927      BINDING AFFINITY PREDICTED BY RF-SCORE:    0.00 PKD
ROOT
HETATM    1  C   UNL     1     -10.016   5.193  67.406  1.00  0.00    -0.180 C  
HETATM    2  S   UNL     1     -11.019   6.460  68.212  1.00  0.00    -0.274 SA 
HETATM    3  CG2 UNL     1     -10.658   7.704  66.956  1.00  0.00    -0.336 C  
HETATM    4  CB  UNL     1      -9.183   7.842  66.589  1.00  0.00    -0.221 C  
HETATM    5  CA  UNL     1      -9.496   4.063  68.350  1.00  0.00    -0.149 C  
HETATM    6  CA  UNL     1      -8.256   6.855  66.774  1.00  0.00    -0.114 C  
HETATM    7  N   UNL     1      -8.644   5.655  67.313  1.00  0.00    -0.110 N  
HETATM    8  O   UNL     1      -6.922   4.346  68.145  1.00  0.00    -0.054 OA 
HETATM    9  C   UNL     1      -6.810   7.073  66.363  1.00  0.00    -0.061 C  
HETATM   10  C   UNL     1      -8.084   4.588  67.918  1.00  0.00    -0.092 C  
HETATM   11  O   UNL     1      -5.874   6.308  66.952  1.00  0.00    -0.019 OA 
HETATM   12  OXT UNL     1      -6.467   7.889  65.517  1.00  0.00    -0.042 OA 
ENDROOT
BRANCH   4  13
HETATM   13  CG1 UNL     1      -8.859   9.193  66.110  1.00  0.00    -0.187 C  
HETATM   14  CD1 UNL     1      -9.463   9.848  65.108  1.00  0.00    -0.338 C  
ENDBRANCH   4  13
BRANCH   5  15
HETATM   15  N   UNL     1      -9.792   4.231  69.795  1.00  0.00    -0.219 N  
HETATM   16  H   UNL     1     -10.244   5.095  70.097  1.00  0.00     0.000 HD 
HETATM   17  C   UNL     1      -9.491   3.290  70.746  1.00  0.00    -0.166 C  
HETATM   18  O   UNL     1      -8.943   2.225  70.497  1.00  0.00    -0.071 OA 
BRANCH  17  19
HETATM   19  C   UNL     1      -9.843   3.675  72.190  1.00  0.00    -0.170 C  
BRANCH  19  20
HETATM   20  N   UNL     1      -9.966   2.816  73.170  1.00  0.00    -0.109 NA 
HETATM   21  H   UNL     1     -11.330   2.135  74.451  1.00  0.00     0.000 HD 
HETATM   22  O   UNL     1     -11.240   2.759  73.740  1.00  0.00    -0.211 OA 
HETATM   23  H   UNL     1      -9.192   2.234  73.493  1.00  0.00     0.000 HD 
ENDBRANCH  19  20
BRANCH  19  24
HETATM   24  C   UNL     1     -10.100   5.079  72.523  1.00  0.00    -0.183 A  
HETATM   25  S   UNL     1      -9.892   7.464  73.399  1.00  0.00    -0.318 SA 
HETATM   26  C   UNL     1      -9.232   5.892  73.232  1.00  0.00    -0.132 A  
HETATM   27  C   UNL     1     -11.277   6.968  72.519  1.00  0.00    -0.275 A  
HETATM   28  N   UNL     1     -11.267   5.724  72.113  1.00  0.00    -0.276 NA 
HETATM   29  N   UNL     1     -12.297   7.808  72.288  1.00  0.00    -0.480 NA 
HETATM   30  H1  UNL     1     -13.121   7.512  71.764  1.00  0.00     0.000 HD 
HETATM   31  H2  UNL     1     -12.247   8.762  72.643  1.00  0.00     0.000 HD 
ENDBRANCH  19  24
ENDBRANCH  17  19
ENDBRANCH   5  15
TORSDOF 5
ENDMDL
MODEL      141
REMARK 921   NORMALIZED FREE ENERGY PREDICTED BY IDOCK:   -3.91 KCAL/MOL
REMARK 922        TOTAL FREE ENERGY PREDICTED BY IDOCK:   -5.92 KCAL/MOL
REMARK 923 INTER-LIGAND FREE ENERGY PREDICTED BY IDOCK:   -5.00 KCAL/MOL
REMARK 924 INTRA-LIGAND FREE ENERGY PREDICTED BY IDOCK:   -0.91 KCAL/MOL
REMARK 927      BINDING AFFINITY PREDICTED BY RF-SCORE:    0.00 PKD
ROOT
HETATM    1  C   UNL     1     -11.028  10.204  68.422  1.00  0.00    -0.244 C  
HETATM    2  S   UNL     1     -11.827  10.630  69.985  1.00  0.00    -0.338 SA 
HETATM    3  CG2 UNL     1     -12.073  12.356  69.517  1.00  0.00    -0.189 C  
HETATM    4  CB  UNL     1     -10.845  13.047  68.932  1.00  0.00    -0.244 C  
HETATM    5  CA  UNL     1     -10.085   8.961  68.481  1.00  0.00    -0.188 C  
HETATM    6  CA  UNL     1      -9.804  12.384  68.344  1.00  0.00    -0.198 C  
HETATM    7  N   UNL     1      -9.838  11.017  68.254  1.00  0.00    -0.172 N  
HETATM    8  O   UNL     1      -7.795  10.005  67.837  1.00  0.00    -0.090 OA 
HETATM    9  C   UNL     1      -8.628  13.156  67.771  1.00  0.00    -0.188 C  
HETATM   10  C   UNL     1      -8.983   9.992  68.059  1.00  0.00    -0.128 C  
HETATM   11  O   UNL     1      -7.463  12.499  67.628  1.00  0.00    -0.115 OA 
HETATM   12  OXT UNL     1      -8.698  14.327  67.420  1.00  0.00    -0.185 OA 
ENDROOT
BRANCH   4  13
HETATM   13  CG1 UNL     1     -10.867  14.499  69.165  1.00  0.00    -0.278 C  
HETATM   14  CD1 UNL     1     -11.369  15.124  70.239  1.00  0.00    -0.315 C  
ENDBRANCH   4  13
BRANCH   5  15
HETATM   15  N   UNL     1      -9.875   8.362  69.823  1.00  0.00    -0.184 N  
HETATM   16  H   UNL     1      -9.220   8.819  70.458  1.00  0.00     0.000 HD 
HETATM   17  C   UNL     1     -10.515   7.229  70.256  1.00  0.00    -0.219 C  
HETATM   18  O   UNL     1     -11.313   6.598  69.577  1.00  0.00    -0.323 OA 
BRANCH  17  19
HETATM   19  C   UNL     1     -10.127   6.750  71.664  1.00  0.00    -0.183 C  
BRANCH  19  20
HETATM   20  N   UNL     1     -10.981   6.288  72.542  1.00  0.00    -0.239 NA 
HETATM   21  H   UNL     1     -11.746   6.741  74.323  1.00  0.00     0.000 HD 
HETATM   22  O   UNL     1     -11.126   7.077  73.686  1.00  0.00    -0.174 OA 
HETATM   23  H   UNL     1     -11.498   5.419  72.403  1.00  0.00     0.000 HD 
ENDBRANCH  19  20
BRANCH  19  24
HETATM   24  C   UNL     1      -8.731   6.835  72.098  1.00  0.00    -0.132 A  
HETATM   25  S   UNL     1      -6.300   6.292  72.642  1.00  0.00    -0.059 SA 
HETATM   26  C   UNL     1      -7.830   5.784  72.063  1.00  0.00    -0.107 A  
HETATM   27  C   UNL     1      -6.928   7.868  72.896  1.00  0.00    -0.084 A  
HETATM   28  N   UNL     1      -8.185   8.028  72.572  1.00  0.00    -0.133 NA 
HETATM   29  N   UNL     1      -6.170   8.848  73.408  1.00  0.00    -0.292 NA 
HETATM   30  H1  UNL     1      -6.544   9.786  73.559  1.00  0.00     0.000 HD 
HETATM   31  H2  UNL     1      -5.200   8.653  73.652  1.00  0.00     0.000 HD 
ENDBRANCH  19  24
ENDBRANCH  17  19
ENDBRANCH   5  15
TORSDOF 5
ENDMDL
MODEL      142
REMARK 921   NORMALIZED FREE ENERGY PREDICTED BY IDOCK:   -3.91 KCAL/MOL
REMARK 922        TOTAL FREE ENERGY PREDICTED BY IDOCK:   -5.91 KCAL/MOL
REMARK 923 INTER-LIGAND FREE ENERGY PREDICTED BY IDOCK:   -5.27 KCAL/MOL
REMARK 924 INTRA-LIGAND FREE ENERGY PREDICTED BY IDOCK:   -0.64 KCAL/MOL
REMARK 927      BINDING AFFINITY PREDICTED BY RF-SCORE:    0.00 PKD
ROOT
HETATM    1  C   UNL     1      -8.559   8.479  69.910  1.00  0.00    -0.131 C  
HETATM    2  S   UNL     1     -10.347   8.245  69.801  1.00  0.00    -0.219 SA 
HETATM    3  CG2 UNL     1     -10.226   6.445  69.842  1.00  0.00    -0.183 C  
HETATM    4  CB  UNL     1      -9.194   5.845  68.891  1.00  0.00    -0.126 C  
HETATM    5  CA  UNL     1      -8.036   9.836  69.342  1.00  0.00    -0.125 C  
HETATM    6  CA  UNL     1      -8.118   6.531  68.403  1.00  0.00    -0.111 C  
HETATM    7  N   UNL     1      -7.921   7.836  68.776  1.00  0.00    -0.123 N  
HETATM    8  O   UNL     1      -6.478   9.042  67.422  1.00  0.00    -0.062 OA 
HETATM    9  C   UNL     1      -7.130   5.848  67.474  1.00  0.00    -0.074 C  
HETATM   10  C   UNL     1      -7.240   8.919  68.352  1.00  0.00    -0.078 C  
HETATM   11  O   UNL     1      -6.381   6.632  66.676  1.00  0.00    -0.039 OA 
HETATM   12  OXT UNL     1      -6.972   4.634  67.433  1.00  0.00    -0.058 OA 
ENDROOT
BRANCH   4  13
HETATM   13  CG1 UNL     1      -9.550   4.478  68.483  1.00  0.00    -0.212 C  
HETATM   14  CD1 UNL     1      -9.476   3.377  69.244  1.00  0.00    -0.212 C  
ENDBRANCH   4  13
BRANCH   5  15
HETATM   15  N   UNL     1      -9.047  10.705  68.689  1.00  0.00    -0.162 N  
HETATM   16  H   UNL     1      -9.982  10.327  68.540  1.00  0.00     0.000 HD 
HETATM   17  C   UNL     1      -8.791  11.987  68.275  1.00  0.00    -0.182 C  
HETATM   18  O   UNL     1      -7.705  12.537  68.396  1.00  0.00    -0.128 OA 
BRANCH  17  19
HETATM   19  C   UNL     1      -9.962  12.703  67.584  1.00  0.00    -0.216 C  
BRANCH  19  20
HETATM   20  N   UNL     1     -10.499  12.312  66.456  1.00  0.00    -0.224 NA 
HETATM   21  H   UNL     1     -12.216  11.603  65.739  1.00  0.00     0.000 HD 
HETATM   22  O   UNL     1     -11.826  11.887  66.558  1.00  0.00    -0.579 OA 
HETATM   23  H   UNL     1      -9.989  12.317  65.573  1.00  0.00     0.000 HD 
ENDBRANCH  19  20
BRANCH  19  24
HETATM   24  C   UNL     1     -10.515  13.923  68.177  1.00  0.00    -0.245 A  
HETATM   25  S   UNL     1     -11.018  16.356  68.748  1.00  0.00    -0.338 SA 
HETATM   26  C   UNL     1     -10.125  15.209  67.843  1.00  0.00    -0.222 A  
HETATM   27  C   UNL     1     -11.865  15.079  69.517  1.00  0.00    -0.330 A  
HETATM   28  N   UNL     1     -11.527  13.874  69.137  1.00  0.00    -0.279 NA 
HETATM   29  N   UNL     1     -12.793  15.320  70.454  1.00  0.00    -0.615 NA 
HETATM   30  H1  UNL     1     -13.297  14.560  70.912  1.00  0.00     0.000 HD 
HETATM   31  H2  UNL     1     -13.000  16.284  70.715  1.00  0.00     0.000 HD 
ENDBRANCH  19  24
ENDBRANCH  17  19
ENDBRANCH   5  15
TORSDOF 5
ENDMDL
MODEL      143
REMARK 921   NORMALIZED FREE ENERGY PREDICTED BY IDOCK:   -3.87 KCAL/MOL
REMARK 922        TOTAL FREE ENERGY PREDICTED BY IDOCK:   -5.86 KCAL/MOL
REMARK 923 INTER-LIGAND FREE ENERGY PREDICTED BY IDOCK:   -4.93 KCAL/MOL
REMARK 924 INTRA-LIGAND FREE ENERGY PREDICTED BY IDOCK:   -0.93 KCAL/MOL
REMARK 927      BINDING AFFINITY PREDICTED BY RF-SCORE:    0.00 PKD
ROOT
HETATM    1  C   UNL     1      -8.264  13.420  66.946  1.00  0.00     0.058 C  
HETATM    2  S   UNL     1      -7.751  13.003  68.626  1.00  0.00    -0.015 SA 
HETATM    3  CG2 UNL     1      -6.808  11.558  68.099  1.00  0.00    -0.068 C  
HETATM    4  CB  UNL     1      -7.540  10.624  67.139  1.00  0.00    -0.099 C  
HETATM    5  CA  UNL     1      -9.574  14.265  66.847  1.00  0.00    -0.262 C  
HETATM    6  CA  UNL     1      -8.582  11.013  66.344  1.00  0.00    -0.165 C  
HETATM    7  N   UNL     1      -9.016  12.313  66.385  1.00  0.00    -0.164 N  
HETATM    8  O   UNL     1     -11.129  12.675  65.505  1.00  0.00    -0.281 OA 
HETATM    9  C   UNL     1      -9.241  10.019  65.404  1.00  0.00    -0.210 C  
HETATM   10  C   UNL     1     -10.108  13.028  66.048  1.00  0.00    -0.284 C  
HETATM   11  O   UNL     1     -10.497  10.284  65.000  1.00  0.00    -0.221 OA 
HETATM   12  OXT UNL     1      -8.682   9.013  64.987  1.00  0.00    -0.180 OA 
ENDROOT
BRANCH   4  13
HETATM   13  CG1 UNL     1      -7.059   9.239  67.243  1.00  0.00    -0.082 C  
HETATM   14  CD1 UNL     1      -7.091   8.468  68.339  1.00  0.00    -0.084 C  
ENDBRANCH   4  13
BRANCH   5  15
HETATM   15  N   UNL     1     -10.286  14.520  68.124  1.00  0.00    -0.226 N  
HETATM   16  H   UNL     1      -9.762  14.429  68.994  1.00  0.00     0.000 HD 
HETATM   17  C   UNL     1     -11.609  14.871  68.198  1.00  0.00    -0.334 C  
HETATM   18  O   UNL     1     -12.333  15.001  67.220  1.00  0.00     0.095 OA 
BRANCH  17  19
HETATM   19  C   UNL     1     -12.166  15.049  69.618  1.00  0.00    -0.258 C  
BRANCH  19  20
HETATM   20  N   UNL     1     -12.326  16.209  70.204  1.00  0.00    -0.355 NA 
HETATM   21  H   UNL     1     -11.341  17.489  71.368  1.00  0.00     0.000 HD 
HETATM   22  O   UNL     1     -11.224  16.647  70.943  1.00  0.00    -0.209 OA 
HETATM   23  H   UNL     1     -13.188  16.751  70.127  1.00  0.00     0.000 HD 
ENDBRANCH  19  20
BRANCH  19  24
HETATM   24  C   UNL     1     -12.518  13.869  70.411  1.00  0.00    -0.334 A  
HETATM   25  S   UNL     1     -13.587  12.281  72.096  1.00  0.00    -0.007 SA 
HETATM   26  C   UNL     1     -13.459  13.853  71.427  1.00  0.00    -0.257 A  
HETATM   27  C   UNL     1     -12.394  11.725  70.996  1.00  0.00    -0.282 A  
HETATM   28  N   UNL     1     -11.925  12.628  70.174  1.00  0.00    -0.341 NA 
HETATM   29  N   UNL     1     -11.974  10.451  71.006  1.00  0.00    -0.367 NA 
HETATM   30  H1  UNL     1     -11.265  10.120  70.352  1.00  0.00     0.000 HD 
HETATM   31  H2  UNL     1     -12.372   9.800  71.682  1.00  0.00     0.000 HD 
ENDBRANCH  19  24
ENDBRANCH  17  19
ENDBRANCH   5  15
TORSDOF 5
ENDMDL
MODEL      144
REMARK 921   NORMALIZED FREE ENERGY PREDICTED BY IDOCK:   -3.84 KCAL/MOL
REMARK 922        TOTAL FREE ENERGY PREDICTED BY IDOCK:   -5.82 KCAL/MOL
REMARK 923 INTER-LIGAND FREE ENERGY PREDICTED BY IDOCK:   -6.93 KCAL/MOL
REMARK 924 INTRA-LIGAND FREE ENERGY PREDICTED BY IDOCK:    1.11 KCAL/MOL
REMARK 927      BINDING AFFINITY PREDICTED BY RF-SCORE:    0.00 PKD
ROOT
HETATM    1  C   UNL     1      -9.145  14.198  68.226  1.00  0.00    -0.190 C  
HETATM    2  S   UNL     1      -9.704  12.483  68.315  1.00  0.00    -0.198 SA 
HETATM    3  CG2 UNL     1      -9.475  12.199  66.548  1.00  0.00    -0.231 C  
HETATM    4  CB  UNL     1     -10.060  13.277  65.640  1.00  0.00    -0.281 C  
HETATM    5  CA  UNL     1      -9.669  15.123  69.370  1.00  0.00    -0.202 C  
HETATM    6  CA  UNL     1     -10.303  14.561  66.039  1.00  0.00    -0.309 C  
HETATM    7  N   UNL     1     -10.007  14.938  67.323  1.00  0.00    -0.229 N  
HETATM    8  O   UNL     1     -11.028  16.892  68.039  1.00  0.00    -0.354 OA 
HETATM    9  C   UNL     1     -10.872  15.574  65.060  1.00  0.00    -0.450 C  
HETATM   10  C   UNL     1     -10.328  15.918  68.192  1.00  0.00    -0.256 C  
HETATM   11  O   UNL     1     -11.507  16.645  65.572  1.00  0.00     0.320 OA 
HETATM   12  OXT UNL     1     -10.763  15.472  63.845  1.00  0.00     0.601 OA 
ENDROOT
BRANCH   4  13
HETATM   13  CG1 UNL     1     -10.427  12.745  64.319  1.00  0.00    -0.423 C  
HETATM   14  CD1 UNL     1      -9.948  11.629  63.751  1.00  0.00    -0.378 C  
ENDBRANCH   4  13
BRANCH   5  15
HETATM   15  N   UNL     1     -10.641  14.513  70.311  1.00  0.00    -0.392 N  
HETATM   16  H   UNL     1     -10.325  14.295  71.256  1.00  0.00     0.000 HD 
HETATM   17  C   UNL     1     -11.940  14.226  69.979  1.00  0.00    -0.334 C  
HETATM   18  O   UNL     1     -12.422  14.438  68.875  1.00  0.00    -0.146 OA 
BRANCH  17  19
HETATM   19  C   UNL     1     -12.772  13.558  71.085  1.00  0.00    -0.344 C  
BRANCH  19  20
HETATM   20  N   UNL     1     -13.562  14.207  71.903  1.00  0.00    -0.382 NA 
HETATM   21  H   UNL     1     -13.475  15.435  73.468  1.00  0.00     0.000 HD 
HETATM   22  O   UNL     1     -12.902  14.964  72.874  1.00  0.00    -0.385 OA 
HETATM   23  H   UNL     1     -14.579  14.163  71.836  1.00  0.00     0.000 HD 
ENDBRANCH  19  20
BRANCH  19  24
HETATM   24  C   UNL     1     -12.673  12.111  71.290  1.00  0.00    -0.261 A  
HETATM   25  S   UNL     1     -11.935   9.672  71.208  1.00  0.00    -0.406 SA 
HETATM   26  C   UNL     1     -11.720  11.295  70.704  1.00  0.00    -0.161 A  
HETATM   27  C   UNL     1     -13.269  10.156  72.171  1.00  0.00    -0.362 A  
HETATM   28  N   UNL     1     -13.548  11.433  72.140  1.00  0.00    -0.171 NA 
HETATM   29  N   UNL     1     -13.975   9.267  72.885  1.00  0.00    -1.002 NA 
HETATM   30  H1  UNL     1     -14.768   9.555  73.458  1.00  0.00     0.000 HD 
HETATM   31  H2  UNL     1     -13.712   8.282  72.855  1.00  0.00     0.000 HD 
ENDBRANCH  19  24
ENDBRANCH  17  19
ENDBRANCH   5  15
TORSDOF 5
ENDMDL
MODEL      145
REMARK 921   NORMALIZED FREE ENERGY PREDICTED BY IDOCK:   -3.81 KCAL/MOL
REMARK 922        TOTAL FREE ENERGY PREDICTED BY IDOCK:   -5.78 KCAL/MOL
REMARK 923 INTER-LIGAND FREE ENERGY PREDICTED BY IDOCK:   -4.94 KCAL/MOL
REMARK 924 INTRA-LIGAND FREE ENERGY PREDICTED BY IDOCK:   -0.84 KCAL/MOL
REMARK 927      BINDING AFFINITY PREDICTED BY RF-SCORE:    0.00 PKD
ROOT
HETATM    1  C   UNL     1     -10.668   8.158  67.637  1.00  0.00    -0.133 C  
HETATM    2  S   UNL     1     -10.486   9.271  69.047  1.00  0.00    -0.206 SA 
HETATM    3  CG2 UNL     1     -11.274  10.655  68.200  1.00  0.00    -0.302 C  
HETATM    4  CB  UNL     1     -10.763  10.923  66.787  1.00  0.00    -0.309 C  
HETATM    5  CA  UNL     1      -9.650   6.975  67.594  1.00  0.00    -0.131 C  
HETATM    6  CA  UNL     1     -10.148   9.983  66.008  1.00  0.00    -0.248 C  
HETATM    7  N   UNL     1      -9.969   8.714  66.493  1.00  0.00    -0.273 N  
HETATM    8  O   UNL     1      -8.393   7.440  65.369  1.00  0.00    -0.132 OA 
HETATM    9  C   UNL     1      -9.685  10.334  64.604  1.00  0.00    -0.333 C  
HETATM   10  C   UNL     1      -9.209   7.629  66.241  1.00  0.00    -0.154 C  
HETATM   11  O   UNL     1      -8.716   9.575  64.061  1.00  0.00    -0.198 OA 
HETATM   12  OXT UNL     1     -10.162  11.250  63.947  1.00  0.00    -0.297 OA 
ENDROOT
BRANCH   4  13
HETATM   13  CG1 UNL     1     -10.918  12.333  66.403  1.00  0.00    -0.326 C  
HETATM   14  CD1 UNL     1     -11.975  13.116  66.663  1.00  0.00    -0.451 C  
ENDBRANCH   4  13
BRANCH   5  15
HETATM   15  N   UNL     1      -8.599   6.978  68.643  1.00  0.00    -0.121 N  
HETATM   16  H   UNL     1      -7.862   7.681  68.584  1.00  0.00     0.000 HD 
HETATM   17  C   UNL     1      -8.565   6.089  69.685  1.00  0.00    -0.126 C  
HETATM   18  O   UNL     1      -9.392   5.202  69.849  1.00  0.00    -0.129 OA 
BRANCH  17  19
HETATM   19  C   UNL     1      -7.371   6.237  70.640  1.00  0.00    -0.082 C  
BRANCH  19  20
HETATM   20  N   UNL     1      -6.157   5.828  70.366  1.00  0.00    -0.025 NA 
HETATM   21  H   UNL     1      -4.944   5.560  68.811  1.00  0.00     0.000 HD 
HETATM   22  O   UNL     1      -5.825   5.856  69.010  1.00  0.00    -0.014 OA 
HETATM   23  H   UNL     1      -5.506   5.514  71.086  1.00  0.00     0.000 HD 
ENDBRANCH  19  20
BRANCH  19  24
HETATM   24  C   UNL     1      -7.571   6.835  71.962  1.00  0.00    -0.094 A  
HETATM   25  S   UNL     1      -8.488   7.432  74.265  1.00  0.00    -0.220 SA 
HETATM   26  C   UNL     1      -8.621   6.533  72.813  1.00  0.00    -0.124 A  
HETATM   27  C   UNL     1      -7.050   8.157  73.675  1.00  0.00    -0.135 A  
HETATM   28  N   UNL     1      -6.673   7.766  72.486  1.00  0.00    -0.063 NA 
HETATM   29  N   UNL     1      -6.383   9.072  74.394  1.00  0.00    -0.317 NA 
HETATM   30  H1  UNL     1      -5.528   9.503  74.043  1.00  0.00     0.000 HD 
HETATM   31  H2  UNL     1      -6.739   9.343  75.310  1.00  0.00     0.000 HD 
ENDBRANCH  19  24
ENDBRANCH  17  19
ENDBRANCH   5  15
TORSDOF 5
ENDMDL
MODEL      146
REMARK 921   NORMALIZED FREE ENERGY PREDICTED BY IDOCK:   -3.79 KCAL/MOL
REMARK 922        TOTAL FREE ENERGY PREDICTED BY IDOCK:   -5.76 KCAL/MOL
REMARK 923 INTER-LIGAND FREE ENERGY PREDICTED BY IDOCK:   -5.59 KCAL/MOL
REMARK 924 INTRA-LIGAND FREE ENERGY PREDICTED BY IDOCK:   -0.18 KCAL/MOL
REMARK 927      BINDING AFFINITY PREDICTED BY RF-SCORE:    0.00 PKD
ROOT
HETATM    1  C   UNL     1      -8.544  15.376  68.713  1.00  0.00    -0.190 C  
HETATM    2  S   UNL     1      -7.984  14.545  67.211  1.00  0.00    -0.149 SA 
HETATM    3  CG2 UNL     1      -7.123  16.004  66.590  1.00  0.00     0.088 C  
HETATM    4  CB  UNL     1      -7.929  17.299  66.638  1.00  0.00    -0.296 C  
HETATM    5  CA  UNL     1      -9.820  14.762  69.371  1.00  0.00    -0.062 C  
HETATM    6  CA  UNL     1      -8.984  17.509  67.482  1.00  0.00    -0.230 C  
HETATM    7  N   UNL     1      -9.361  16.520  68.352  1.00  0.00    -0.214 N  
HETATM    8  O   UNL     1     -11.489  16.748  69.242  1.00  0.00    -0.033 OA 
HETATM    9  C   UNL     1      -9.719  18.838  67.474  1.00  0.00    -0.307 C  
HETATM   10  C   UNL     1     -10.435  16.176  69.092  1.00  0.00    -0.265 C  
HETATM   11  O   UNL     1     -10.977  18.856  67.951  1.00  0.00    -0.286 OA 
HETATM   12  OXT UNL     1      -9.218  19.883  67.078  1.00  0.00    -0.330 OA 
ENDROOT
BRANCH   4  13
HETATM   13  CG1 UNL     1      -7.503  18.252  65.603  1.00  0.00    -0.008 C  
HETATM   14  CD1 UNL     1      -6.245  18.638  65.348  1.00  0.00    -0.314 C  
ENDBRANCH   4  13
BRANCH   5  15
HETATM   15  N   UNL     1     -10.472  13.656  68.626  1.00  0.00    -0.243 N  
HETATM   16  H   UNL     1     -11.354  13.849  68.152  1.00  0.00     0.000 HD 
HETATM   17  C   UNL     1      -9.953  12.390  68.541  1.00  0.00    -0.170 C  
HETATM   18  O   UNL     1      -8.907  12.047  69.075  1.00  0.00     0.132 OA 
BRANCH  17  19
HETATM   19  C   UNL     1     -10.803  11.380  67.756  1.00  0.00    -0.231 C  
BRANCH  19  20
HETATM   20  N   UNL     1     -12.016  11.021  68.094  1.00  0.00    -0.763 NA 
HETATM   21  H   UNL     1     -13.004  10.201  69.616  1.00  0.00     0.000 HD 
HETATM   22  O   UNL     1     -12.123  10.461  69.370  1.00  0.00    -0.163 OA 
HETATM   23  H   UNL     1     -12.818  11.140  67.476  1.00  0.00     0.000 HD 
ENDBRANCH  19  20
BRANCH  19  24
HETATM   24  C   UNL     1     -10.242  10.730  66.568  1.00  0.00    -0.235 A  
HETATM   25  S   UNL     1      -9.419  10.239  64.206  1.00  0.00    -0.318 SA 
HETATM   26  C   UNL     1     -10.142  11.321  65.320  1.00  0.00    -0.267 A  
HETATM   27  C   UNL     1      -9.281   9.065  65.448  1.00  0.00    -0.176 A  
HETATM   28  N   UNL     1      -9.729   9.434  66.620  1.00  0.00    -0.201 NA 
HETATM   29  N   UNL     1      -8.761   7.852  65.208  1.00  0.00    -0.360 NA 
HETATM   30  H1  UNL     1      -8.679   7.154  65.948  1.00  0.00     0.000 HD 
HETATM   31  H2  UNL     1      -8.441   7.624  64.268  1.00  0.00     0.000 HD 
ENDBRANCH  19  24
ENDBRANCH  17  19
ENDBRANCH   5  15
TORSDOF 5
ENDMDL
MODEL      147
REMARK 921   NORMALIZED FREE ENERGY PREDICTED BY IDOCK:   -3.79 KCAL/MOL
REMARK 922        TOTAL FREE ENERGY PREDICTED BY IDOCK:   -5.75 KCAL/MOL
REMARK 923 INTER-LIGAND FREE ENERGY PREDICTED BY IDOCK:   -6.52 KCAL/MOL
REMARK 924 INTRA-LIGAND FREE ENERGY PREDICTED BY IDOCK:    0.77 KCAL/MOL
REMARK 927      BINDING AFFINITY PREDICTED BY RF-SCORE:    0.00 PKD
ROOT
HETATM    1  C   UNL     1     -10.826  12.551  67.021  1.00  0.00    -0.254 C  
HETATM    2  S   UNL     1     -11.891  13.237  68.309  1.00  0.00    -0.325 SA 
HETATM    3  CG2 UNL     1     -11.049  14.833  68.312  1.00  0.00    -0.274 C  
HETATM    4  CB  UNL     1      -9.525  14.758  68.369  1.00  0.00    -0.213 C  
HETATM    5  CA  UNL     1     -10.727  10.992  67.008  1.00  0.00    -0.270 C  
HETATM    6  CA  UNL     1      -8.800  13.671  67.970  1.00  0.00    -0.187 C  
HETATM    7  N   UNL     1      -9.449  12.567  67.479  1.00  0.00    -0.180 N  
HETATM    8  O   UNL     1      -8.194  10.619  67.446  1.00  0.00    -0.114 OA 
HETATM    9  C   UNL     1      -7.283  13.691  68.045  1.00  0.00    -0.130 C  
HETATM   10  C   UNL     1      -9.206  11.257  67.271  1.00  0.00    -0.166 C  
HETATM   11  O   UNL     1      -6.646  12.506  68.088  1.00  0.00    -0.064 OA 
HETATM   12  OXT UNL     1      -6.622  14.722  68.047  1.00  0.00    -0.117 OA 
ENDROOT
BRANCH   4  13
HETATM   13  CG1 UNL     1      -8.938  15.951  68.995  1.00  0.00    -0.245 C  
HETATM   14  CD1 UNL     1      -9.108  17.221  68.601  1.00  0.00    -0.260 C  
ENDBRANCH   4  13
BRANCH   5  15
HETATM   15  N   UNL     1     -11.422  10.284  68.112  1.00  0.00    -0.513 N  
HETATM   16  H   UNL     1     -12.374   9.955  67.950  1.00  0.00     0.000 HD 
HETATM   17  C   UNL     1     -10.853  10.046  69.337  1.00  0.00    -0.239 C  
HETATM   18  O   UNL     1      -9.723  10.401  69.642  1.00  0.00    -0.205 OA 
BRANCH  17  19
HETATM   19  C   UNL     1     -11.755   9.333  70.355  1.00  0.00    -0.114 C  
BRANCH  19  20
HETATM   20  N   UNL     1     -12.798   9.883  70.925  1.00  0.00    -0.492 NA 
HETATM   21  H   UNL     1     -13.308  11.521  71.935  1.00  0.00     0.000 HD 
HETATM   22  O   UNL     1     -12.551  11.121  71.522  1.00  0.00    -0.363 OA 
HETATM   23  H   UNL     1     -13.718   9.441  70.932  1.00  0.00     0.000 HD 
ENDBRANCH  19  20
BRANCH  19  24
HETATM   24  C   UNL     1     -11.439   7.963  70.767  1.00  0.00    -0.263 A  
HETATM   25  S   UNL     1     -10.632   5.545  70.810  1.00  0.00    -0.221 SA 
HETATM   26  C   UNL     1     -10.845   7.012  69.953  1.00  0.00    -0.251 A  
HETATM   27  C   UNL     1     -11.333   6.263  72.200  1.00  0.00    -0.297 A  
HETATM   28  N   UNL     1     -11.701   7.511  72.061  1.00  0.00    -0.284 NA 
HETATM   29  N   UNL     1     -11.498   5.571  73.337  1.00  0.00    -0.476 NA 
HETATM   30  H1  UNL     1     -11.915   5.999  74.164  1.00  0.00     0.000 HD 
HETATM   31  H2  UNL     1     -11.201   4.596  73.375  1.00  0.00     0.000 HD 
ENDBRANCH  19  24
ENDBRANCH  17  19
ENDBRANCH   5  15
TORSDOF 5
ENDMDL
MODEL      148
REMARK 921   NORMALIZED FREE ENERGY PREDICTED BY IDOCK:   -3.75 KCAL/MOL
REMARK 922        TOTAL FREE ENERGY PREDICTED BY IDOCK:   -5.70 KCAL/MOL
REMARK 923 INTER-LIGAND FREE ENERGY PREDICTED BY IDOCK:   -4.63 KCAL/MOL
REMARK 924 INTRA-LIGAND FREE ENERGY PREDICTED BY IDOCK:   -1.07 KCAL/MOL
REMARK 927      BINDING AFFINITY PREDICTED BY RF-SCORE:    0.00 PKD
ROOT
HETATM    1  C   UNL     1     -10.716   7.254  67.123  1.00  0.00    -0.343 C  
HETATM    2  S   UNL     1     -10.829   8.505  68.420  1.00  0.00     0.178 SA 
HETATM    3  CG2 UNL     1     -10.749   9.881  67.256  1.00  0.00    -0.238 C  
HETATM    4  CB  UNL     1      -9.638   9.782  66.214  1.00  0.00    -0.271 C  
HETATM    5  CA  UNL     1     -10.166   5.869  67.588  1.00  0.00    -0.187 C  
HETATM    6  CA  UNL     1      -9.054   8.607  65.832  1.00  0.00    -0.205 C  
HETATM    7  N   UNL     1      -9.473   7.429  66.394  1.00  0.00    -0.164 N  
HETATM    8  O   UNL     1      -8.016   5.644  66.149  1.00  0.00    -0.102 OA 
HETATM    9  C   UNL     1      -7.965   8.599  64.773  1.00  0.00    -0.141 C  
HETATM   10  C   UNL     1      -9.028   6.166  66.552  1.00  0.00    -0.139 C  
HETATM   11  O   UNL     1      -7.124   7.549  64.753  1.00  0.00    -0.059 OA 
HETATM   12  OXT UNL     1      -7.833   9.484  63.937  1.00  0.00    -0.121 OA 
ENDROOT
BRANCH   4  13
HETATM   13  CG1 UNL     1      -9.200  11.105  65.747  1.00  0.00    -0.234 C  
HETATM   14  CD1 UNL     1      -9.980  12.058  65.217  1.00  0.00    -0.273 C  
ENDBRANCH   4  13
BRANCH   5  15
HETATM   15  N   UNL     1      -9.702   5.789  68.996  1.00  0.00    -0.133 N  
HETATM   16  H   UNL     1      -9.580   6.659  69.513  1.00  0.00     0.000 HD 
HETATM   17  C   UNL     1      -9.429   4.609  69.638  1.00  0.00    -0.162 C  
HETATM   18  O   UNL     1      -9.533   3.509  69.113  1.00  0.00    -0.169 OA 
BRANCH  17  19
HETATM   19  C   UNL     1      -8.922   4.746  71.082  1.00  0.00    -0.131 C  
BRANCH  19  20
HETATM   20  N   UNL     1      -8.208   3.838  71.698  1.00  0.00    -0.072 NA 
HETATM   21  H   UNL     1      -8.287   2.646  73.291  1.00  0.00     0.000 HD 
HETATM   22  O   UNL     1      -8.805   3.305  72.844  1.00  0.00    -0.084 OA 
HETATM   23  H   UNL     1      -7.288   3.544  71.369  1.00  0.00     0.000 HD 
ENDBRANCH  19  20
BRANCH  19  24
HETATM   24  C   UNL     1      -9.269   5.937  71.861  1.00  0.00    -0.147 A  
HETATM   25  S   UNL     1      -9.160   8.024  73.321  1.00  0.00    -0.270 SA 
HETATM   26  C   UNL     1      -8.360   6.720  72.552  1.00  0.00    -0.111 A  
HETATM   27  C   UNL     1     -10.654   7.472  72.685  1.00  0.00    -0.286 A  
HETATM   28  N   UNL     1     -10.584   6.397  71.944  1.00  0.00    -0.210 NA 
HETATM   29  N   UNL     1     -11.806   8.104  72.957  1.00  0.00    -0.559 NA 
HETATM   30  H1  UNL     1     -12.694   7.775  72.578  1.00  0.00     0.000 HD 
HETATM   31  H2  UNL     1     -11.792   8.930  73.554  1.00  0.00     0.000 HD 
ENDBRANCH  19  24
ENDBRANCH  17  19
ENDBRANCH   5  15
TORSDOF 5
ENDMDL
MODEL      149
REMARK 921   NORMALIZED FREE ENERGY PREDICTED BY IDOCK:   -3.74 KCAL/MOL
REMARK 922        TOTAL FREE ENERGY PREDICTED BY IDOCK:   -5.69 KCAL/MOL
REMARK 923 INTER-LIGAND FREE ENERGY PREDICTED BY IDOCK:   -4.90 KCAL/MOL
REMARK 924 INTRA-LIGAND FREE ENERGY PREDICTED BY IDOCK:   -0.79 KCAL/MOL
REMARK 927      BINDING AFFINITY PREDICTED BY RF-SCORE:    0.00 PKD
ROOT
HETATM    1  C   UNL     1      -8.268  12.007  67.498  1.00  0.00    -0.159 C  
HETATM    2  S   UNL     1      -9.871  11.320  67.968  1.00  0.00    -0.183 SA 
HETATM    3  CG2 UNL     1     -10.767  12.827  67.545  1.00  0.00    -0.229 C  
HETATM    4  CB  UNL     1     -10.160  14.115  68.094  1.00  0.00    -0.239 C  
HETATM    5  CA  UNL     1      -7.036  11.339  68.186  1.00  0.00    -0.069 C  
HETATM    6  CA  UNL     1      -8.846  14.249  68.446  1.00  0.00    -0.187 C  
HETATM    7  N   UNL     1      -7.996  13.183  68.304  1.00  0.00    -0.142 N  
HETATM    8  O   UNL     1      -6.016  13.335  69.499  1.00  0.00    -0.093 OA 
HETATM    9  C   UNL     1      -8.323  15.576  68.968  1.00  0.00    -0.227 C  
HETATM   10  C   UNL     1      -6.796  12.775  68.765  1.00  0.00    -0.096 C  
HETATM   11  O   UNL     1      -7.201  15.554  69.710  1.00  0.00    -0.186 OA 
HETATM   12  OXT UNL     1      -8.859  16.651  68.731  1.00  0.00    -0.249 OA 
ENDROOT
BRANCH   4  13
HETATM   13  CG1 UNL     1     -11.174  15.160  68.294  1.00  0.00    -0.315 C  
HETATM   14  CD1 UNL     1     -12.020  15.259  69.330  1.00  0.00    -0.327 C  
ENDBRANCH   4  13
BRANCH   5  15
HETATM   15  N   UNL     1      -7.338  10.311  69.214  1.00  0.00    -0.086 N  
HETATM   16  H   UNL     1      -7.651  10.626  70.133  1.00  0.00     0.000 HD 
HETATM   17  C   UNL     1      -7.221   8.963  68.996  1.00  0.00    -0.072 C  
HETATM   18  O   UNL     1      -6.848   8.476  67.938  1.00  0.00    -0.065 OA 
BRANCH  17  19
HETATM   19  C   UNL     1      -7.544   8.069  70.203  1.00  0.00    -0.081 C  
BRANCH  19  20
HETATM   20  N   UNL     1      -6.658   7.340  70.835  1.00  0.00    -0.043 NA 
HETATM   21  H   UNL     1      -6.388   5.480  71.490  1.00  0.00     0.000 HD 
HETATM   22  O   UNL     1      -7.031   6.008  71.031  1.00  0.00    -0.064 OA 
HETATM   23  H   UNL     1      -5.767   7.716  71.159  1.00  0.00     0.000 HD 
ENDBRANCH  19  20
BRANCH  19  24
HETATM   24  C   UNL     1      -8.924   7.972  70.683  1.00  0.00    -0.148 A  
HETATM   25  S   UNL     1     -11.060   8.200  72.057  1.00  0.00    -0.333 SA 
HETATM   26  C   UNL     1      -9.389   8.523  71.865  1.00  0.00    -0.267 A  
HETATM   27  C   UNL     1     -11.060   7.358  70.563  1.00  0.00    -0.261 A  
HETATM   28  N   UNL     1      -9.909   7.314  69.944  1.00  0.00    -0.177 NA 
HETATM   29  N   UNL     1     -12.172   6.778  70.088  1.00  0.00    -0.605 NA 
HETATM   30  H1  UNL     1     -12.173   6.277  69.199  1.00  0.00     0.000 HD 
HETATM   31  H2  UNL     1     -13.036   6.838  70.627  1.00  0.00     0.000 HD 
ENDBRANCH  19  24
ENDBRANCH  17  19
ENDBRANCH   5  15
TORSDOF 5
ENDMDL
MODEL      150
REMARK 921   NORMALIZED FREE ENERGY PREDICTED BY IDOCK:   -3.72 KCAL/MOL
REMARK 922        TOTAL FREE ENERGY PREDICTED BY IDOCK:   -5.67 KCAL/MOL
REMARK 923 INTER-LIGAND FREE ENERGY PREDICTED BY IDOCK:   -4.86 KCAL/MOL
REMARK 924 INTRA-LIGAND FREE ENERGY PREDICTED BY IDOCK:   -0.81 KCAL/MOL
REMARK 927      BINDING AFFINITY PREDICTED BY RF-SCORE:    0.00 PKD
ROOT
HETATM    1  C   UNL     1      -8.462   6.526  68.175  1.00  0.00    -0.116 C  
HETATM    2  S   UNL     1      -7.099   7.639  68.585  1.00  0.00    -0.082 SA 
HETATM    3  CG2 UNL     1      -6.634   6.708  70.059  1.00  0.00    -0.048 C  
HETATM    4  CB  UNL     1      -7.791   6.345  70.985  1.00  0.00    -0.110 C  
HETATM    5  CA  UNL     1      -9.589   7.159  67.300  1.00  0.00    -0.143 C  
HETATM    6  CA  UNL     1      -9.094   6.263  70.581  1.00  0.00    -0.151 C  
HETATM    7  N   UNL     1      -9.413   6.510  69.271  1.00  0.00    -0.140 N  
HETATM    8  O   UNL     1     -11.651   6.957  68.867  1.00  0.00     0.055 OA 
HETATM    9  C   UNL     1     -10.181   5.878  71.570  1.00  0.00    -0.205 C  
HETATM   10  C   UNL     1     -10.496   6.827  68.534  1.00  0.00    -0.204 C  
HETATM   11  O   UNL     1     -11.444   6.241  71.279  1.00  0.00    -0.298 OA 
HETATM   12  OXT UNL     1      -9.965   5.242  72.594  1.00  0.00    -0.158 OA 
ENDROOT
BRANCH   4  13
HETATM   13  CG1 UNL     1      -7.354   6.195  72.381  1.00  0.00    -0.093 C  
HETATM   14  CD1 UNL     1      -7.306   7.163  73.307  1.00  0.00    -0.078 C  
ENDBRANCH   4  13
BRANCH   5  15
HETATM   15  N   UNL     1      -9.459   8.609  67.013  1.00  0.00    -0.160 N  
HETATM   16  H   UNL     1      -9.638   9.268  67.771  1.00  0.00     0.000 HD 
HETATM   17  C   UNL     1      -9.109   9.111  65.786  1.00  0.00    -0.213 C  
HETATM   18  O   UNL     1      -8.879   8.415  64.807  1.00  0.00    -0.051 OA 
BRANCH  17  19
HETATM   19  C   UNL     1      -9.069  10.644  65.687  1.00  0.00    -0.183 C  
BRANCH  19  20
HETATM   20  N   UNL     1      -8.022  11.372  65.985  1.00  0.00    -0.369 NA 
HETATM   21  H   UNL     1      -6.818  11.771  67.520  1.00  0.00     0.000 HD 
HETATM   22  O   UNL     1      -7.578  11.242  67.304  1.00  0.00    -0.116 OA 
HETATM   23  H   UNL     1      -7.567  11.985  65.309  1.00  0.00     0.000 HD 
ENDBRANCH  19  20
BRANCH  19  24
HETATM   24  C   UNL     1     -10.269  11.374  65.272  1.00  0.00    -0.270 A  
HETATM   25  S   UNL     1     -12.292  12.219  63.970  1.00  0.00    -0.455 SA 
HETATM   26  C   UNL     1     -10.930  11.184  64.070  1.00  0.00    -0.197 A  
HETATM   27  C   UNL     1     -11.921  12.844  65.523  1.00  0.00    -0.436 A  
HETATM   28  N   UNL     1     -10.865  12.329  66.097  1.00  0.00    -0.269 NA 
HETATM   29  N   UNL     1     -12.666  13.808  66.084  1.00  0.00    -0.373 NA 
HETATM   30  H1  UNL     1     -12.445  14.180  67.008  1.00  0.00     0.000 HD 
HETATM   31  H2  UNL     1     -13.470  14.176  65.577  1.00  0.00     0.000 HD 
ENDBRANCH  19  24
ENDBRANCH  17  19
ENDBRANCH   5  15
TORSDOF 5
ENDMDL
MODEL      151
REMARK 921   NORMALIZED FREE ENERGY PREDICTED BY IDOCK:   -3.70 KCAL/MOL
REMARK 922        TOTAL FREE ENERGY PREDICTED BY IDOCK:   -5.64 KCAL/MOL
REMARK 923 INTER-LIGAND FREE ENERGY PREDICTED BY IDOCK:   -4.61 KCAL/MOL
REMARK 924 INTRA-LIGAND FREE ENERGY PREDICTED BY IDOCK:   -1.03 KCAL/MOL
REMARK 927      BINDING AFFINITY PREDICTED BY RF-SCORE:    0.00 PKD
ROOT
HETATM    1  C   UNL     1     -10.855   6.898  69.805  1.00  0.00    -0.259 C  
HETATM    2  S   UNL     1     -10.247   6.620  68.127  1.00  0.00    -0.187 SA 
HETATM    3  CG2 UNL     1      -9.562   4.999  68.524  1.00  0.00    -0.146 C  
HETATM    4  CB  UNL     1      -8.715   4.949  69.792  1.00  0.00    -0.110 C  
HETATM    5  CA  UNL     1     -11.043   8.397  70.199  1.00  0.00    -0.182 C  
HETATM    6  CA  UNL     1      -8.822   5.848  70.816  1.00  0.00    -0.138 C  
HETATM    7  N   UNL     1      -9.738   6.864  70.731  1.00  0.00    -0.172 N  
HETATM    8  O   UNL     1      -9.386   8.635  72.184  1.00  0.00    -0.261 OA 
HETATM    9  C   UNL     1      -7.949   5.711  72.052  1.00  0.00    -0.107 C  
HETATM   10  C   UNL     1      -9.975   8.066  71.296  1.00  0.00    -0.174 C  
HETATM   11  O   UNL     1      -7.748   6.814  72.797  1.00  0.00    -0.094 OA 
HETATM   12  OXT UNL     1      -7.444   4.654  72.406  1.00  0.00    -0.079 OA 
ENDROOT
BRANCH   4  13
HETATM   13  CG1 UNL     1      -7.704   3.883  69.739  1.00  0.00    -0.052 C  
HETATM   14  CD1 UNL     1      -7.940   2.571  69.590  1.00  0.00    -0.053 C  
ENDBRANCH   4  13
BRANCH   5  15
HETATM   15  N   UNL     1     -10.597   9.398  69.197  1.00  0.00    -0.220 N  
HETATM   16  H   UNL     1      -9.682   9.270  68.763  1.00  0.00     0.000 HD 
HETATM   17  C   UNL     1     -11.346  10.483  68.822  1.00  0.00    -0.249 C  
HETATM   18  O   UNL     1     -12.450  10.738  69.282  1.00  0.00    -0.356 OA 
BRANCH  17  19
HETATM   19  C   UNL     1     -10.685  11.420  67.800  1.00  0.00    -0.211 C  
BRANCH  19  20
HETATM   20  N   UNL     1     -11.286  12.442  67.245  1.00  0.00    -0.284 NA 
HETATM   21  H   UNL     1     -12.718  12.845  65.922  1.00  0.00     0.000 HD 
HETATM   22  O   UNL     1     -12.282  12.104  66.325  1.00  0.00    -0.604 OA 
HETATM   23  H   UNL     1     -11.046  13.409  67.466  1.00  0.00     0.000 HD 
ENDBRANCH  19  20
BRANCH  19  24
HETATM   24  C   UNL     1      -9.308  11.165  67.369  1.00  0.00    -0.164 A  
HETATM   25  S   UNL     1      -7.213  10.789  65.966  1.00  0.00    -0.065 SA 
HETATM   26  C   UNL     1      -8.897  11.086  66.049  1.00  0.00    -0.191 A  
HETATM   27  C   UNL     1      -7.137  10.789  67.679  1.00  0.00    -0.091 A  
HETATM   28  N   UNL     1      -8.273  11.001  68.291  1.00  0.00    -0.124 NA 
HETATM   29  N   UNL     1      -5.983  10.569  68.328  1.00  0.00    -0.043 NA 
HETATM   30  H1  UNL     1      -5.938  10.569  69.347  1.00  0.00     0.000 HD 
HETATM   31  H2  UNL     1      -5.134  10.397  67.790  1.00  0.00     0.000 HD 
ENDBRANCH  19  24
ENDBRANCH  17  19
ENDBRANCH   5  15
TORSDOF 5
ENDMDL
MODEL      152
REMARK 921   NORMALIZED FREE ENERGY PREDICTED BY IDOCK:   -3.68 KCAL/MOL
REMARK 922        TOTAL FREE ENERGY PREDICTED BY IDOCK:   -5.62 KCAL/MOL
REMARK 923 INTER-LIGAND FREE ENERGY PREDICTED BY IDOCK:   -4.60 KCAL/MOL
REMARK 924 INTRA-LIGAND FREE ENERGY PREDICTED BY IDOCK:   -1.01 KCAL/MOL
REMARK 927      BINDING AFFINITY PREDICTED BY RF-SCORE:    0.00 PKD
ROOT
HETATM    1  C   UNL     1     -10.976   7.298  67.153  1.00  0.00    -0.215 C  
HETATM    2  S   UNL     1     -10.233   8.834  67.744  1.00  0.00    -0.240 SA 
HETATM    3  CG2 UNL     1      -9.636   9.307  66.108  1.00  0.00    -0.260 C  
HETATM    4  CB  UNL     1      -8.905   8.206  65.345  1.00  0.00    -0.086 C  
HETATM    5  CA  UNL     1     -11.150   6.189  68.238  1.00  0.00    -0.239 C  
HETATM    6  CA  UNL     1      -9.072   6.871  65.587  1.00  0.00     0.136 C  
HETATM    7  N   UNL     1      -9.945   6.464  66.562  1.00  0.00    -0.140 N  
HETATM    8  O   UNL     1      -9.665   4.281  67.289  1.00  0.00    -0.187 OA 
HETATM    9  C   UNL     1      -8.315   5.842  64.765  1.00  0.00    -0.116 C  
HETATM   10  C   UNL     1     -10.193   5.369  67.309  1.00  0.00    -0.214 C  
HETATM   11  O   UNL     1      -8.145   4.619  65.302  1.00  0.00    -0.100 OA 
HETATM   12  OXT UNL     1      -7.876   6.065  63.644  1.00  0.00    -0.102 OA 
ENDROOT
BRANCH   4  13
HETATM   13  CG1 UNL     1      -7.927   8.751  64.392  1.00  0.00    -0.144 C  
HETATM   14  CD1 UNL     1      -8.169   9.665  63.442  1.00  0.00    -0.160 C  
ENDBRANCH   4  13
BRANCH   5  15
HETATM   15  N   UNL     1     -10.587   6.491  69.578  1.00  0.00    -0.223 N  
HETATM   16  H   UNL     1      -9.574   6.568  69.668  1.00  0.00     0.000 HD 
HETATM   17  C   UNL     1     -11.353   6.672  70.700  1.00  0.00    -0.347 C  
HETATM   18  O   UNL     1     -12.574   6.594  70.709  1.00  0.00    -0.261 OA 
BRANCH  17  19
HETATM   19  C   UNL     1     -10.573   6.935  71.997  1.00  0.00    -0.212 C  
BRANCH  19  20
HETATM   20  N   UNL     1     -10.324   8.129  72.474  1.00  0.00    -0.308 NA 
HETATM   21  H   UNL     1     -10.159  10.018  71.869  1.00  0.00     0.000 HD 
HETATM   22  O   UNL     1     -10.340   9.152  71.522  1.00  0.00    -0.320 OA 
HETATM   23  H   UNL     1     -10.132   8.298  73.461  1.00  0.00     0.000 HD 
ENDBRANCH  19  20
BRANCH  19  24
HETATM   24  C   UNL     1     -10.029   5.807  72.756  1.00  0.00    -0.176 A  
HETATM   25  S   UNL     1      -9.589   4.046  74.546  1.00  0.00    -0.127 SA 
HETATM   26  C   UNL     1     -10.471   5.411  74.007  1.00  0.00    -0.284 A  
HETATM   27  C   UNL     1      -8.685   4.064  73.088  1.00  0.00    -0.095 A  
HETATM   28  N   UNL     1      -9.006   5.008  72.242  1.00  0.00    -0.130 NA 
HETATM   29  N   UNL     1      -7.710   3.172  72.860  1.00  0.00    -0.055 NA 
HETATM   30  H1  UNL     1      -7.172   3.183  71.992  1.00  0.00     0.000 HD 
HETATM   31  H2  UNL     1      -7.501   2.469  73.567  1.00  0.00     0.000 HD 
ENDBRANCH  19  24
ENDBRANCH  17  19
ENDBRANCH   5  15
TORSDOF 5
ENDMDL
MODEL      153
REMARK 921   NORMALIZED FREE ENERGY PREDICTED BY IDOCK:   -3.65 KCAL/MOL
REMARK 922        TOTAL FREE ENERGY PREDICTED BY IDOCK:   -5.58 KCAL/MOL
REMARK 923 INTER-LIGAND FREE ENERGY PREDICTED BY IDOCK:   -4.51 KCAL/MOL
REMARK 924 INTRA-LIGAND FREE ENERGY PREDICTED BY IDOCK:   -1.07 KCAL/MOL
REMARK 927      BINDING AFFINITY PREDICTED BY RF-SCORE:    0.00 PKD
ROOT
HETATM    1  C   UNL     1     -10.660   6.242  67.784  1.00  0.00    -0.262 C  
HETATM    2  S   UNL     1     -10.087   5.267  66.375  1.00  0.00    -0.235 SA 
HETATM    3  CG2 UNL     1      -9.624   3.854  67.398  1.00  0.00    -0.172 C  
HETATM    4  CB  UNL     1      -8.797   4.195  68.634  1.00  0.00    -0.141 C  
HETATM    5  CA  UNL     1     -10.650   7.787  67.564  1.00  0.00    -0.248 C  
HETATM    6  CA  UNL     1      -8.788   5.426  69.229  1.00  0.00    -0.101 C  
HETATM    7  N   UNL     1      -9.561   6.433  68.713  1.00  0.00    -0.126 N  
HETATM    8  O   UNL     1      -8.984   8.571  69.396  1.00  0.00    -0.146 OA 
HETATM    9  C   UNL     1      -7.946   5.672  70.470  1.00  0.00    -0.104 C  
HETATM   10  C   UNL     1      -9.640   7.778  68.762  1.00  0.00    -0.154 C  
HETATM   11  O   UNL     1      -7.605   6.944  70.747  1.00  0.00    -0.088 OA 
HETATM   12  OXT UNL     1      -7.587   4.780  71.228  1.00  0.00    -0.076 OA 
ENDROOT
BRANCH   4  13
HETATM   13  CG1 UNL     1      -7.936   3.078  69.048  1.00  0.00    -0.065 C  
HETATM   14  CD1 UNL     1      -8.318   1.805  69.224  1.00  0.00    -0.072 C  
ENDBRANCH   4  13
BRANCH   5  15
HETATM   15  N   UNL     1     -10.070   8.262  66.283  1.00  0.00    -0.466 N  
HETATM   16  H   UNL     1      -9.655   7.572  65.657  1.00  0.00     0.000 HD 
HETATM   17  C   UNL     1     -10.063   9.577  65.894  1.00  0.00    -0.214 C  
HETATM   18  O   UNL     1     -10.526  10.487  66.568  1.00  0.00    -0.241 OA 
BRANCH  17  19
HETATM   19  C   UNL     1      -9.378   9.864  64.549  1.00  0.00    -0.275 C  
BRANCH  19  20
HETATM   20  N   UNL     1      -9.948  10.496  63.555  1.00  0.00    -0.459 NA 
HETATM   21  H   UNL     1     -10.312  12.349  62.923  1.00  0.00     0.000 HD 
HETATM   22  O   UNL     1      -9.898  11.889  63.645  1.00  0.00    -0.334 OA 
HETATM   23  H   UNL     1     -10.394  10.010  62.777  1.00  0.00     0.000 HD 
ENDBRANCH  19  20
BRANCH  19  24
HETATM   24  C   UNL     1      -8.014   9.384  64.315  1.00  0.00    -0.133 A  
HETATM   25  S   UNL     1      -5.479   9.228  64.090  1.00  0.00    -0.062 SA 
HETATM   26  C   UNL     1      -6.874  10.161  64.432  1.00  0.00    -0.106 A  
HETATM   27  C   UNL     1      -6.473   7.857  63.817  1.00  0.00    -0.062 A  
HETATM   28  N   UNL     1      -7.756   8.056  63.970  1.00  0.00    -0.130 NA 
HETATM   29  N   UNL     1      -5.950   6.676  63.455  1.00  0.00    -0.034 NA 
HETATM   30  H1  UNL     1      -6.542   5.861  63.292  1.00  0.00     0.000 HD 
HETATM   31  H2  UNL     1      -4.941   6.592  63.340  1.00  0.00     0.000 HD 
ENDBRANCH  19  24
ENDBRANCH  17  19
ENDBRANCH   5  15
TORSDOF 5
ENDMDL
MODEL      154
REMARK 921   NORMALIZED FREE ENERGY PREDICTED BY IDOCK:   -3.65 KCAL/MOL
REMARK 922        TOTAL FREE ENERGY PREDICTED BY IDOCK:   -5.57 KCAL/MOL
REMARK 923 INTER-LIGAND FREE ENERGY PREDICTED BY IDOCK:   -5.01 KCAL/MOL
REMARK 924 INTRA-LIGAND FREE ENERGY PREDICTED BY IDOCK:   -0.57 KCAL/MOL
REMARK 927      BINDING AFFINITY PREDICTED BY RF-SCORE:    0.00 PKD
ROOT
HETATM    1  C   UNL     1     -11.251   9.707  68.389  1.00  0.00     0.055 C  
HETATM    2  S   UNL     1      -9.860  10.170  67.334  1.00  0.00    -0.195 SA 
HETATM    3  CG2 UNL     1      -9.229   8.483  67.234  1.00  0.00    -0.141 C  
HETATM    4  CB  UNL     1      -9.124   7.752  68.570  1.00  0.00    -0.132 C  
HETATM    5  CA  UNL     1     -11.829  10.864  69.265  1.00  0.00    -0.324 C  
HETATM    6  CA  UNL     1      -9.854   8.081  69.678  1.00  0.00    -0.184 C  
HETATM    7  N   UNL     1     -10.747   9.119  69.616  1.00  0.00    -0.230 N  
HETATM    8  O   UNL     1     -11.425   9.961  71.666  1.00  0.00    -0.329 OA 
HETATM    9  C   UNL     1      -9.697   7.287  70.963  1.00  0.00    -0.169 C  
HETATM   10  C   UNL     1     -11.407   9.940  70.458  1.00  0.00    -0.327 C  
HETATM   11  O   UNL     1     -10.057   7.887  72.113  1.00  0.00    -0.192 OA 
HETATM   12  OXT UNL     1      -9.284   6.135  70.997  1.00  0.00    -0.155 OA 
ENDROOT
BRANCH   4  13
HETATM   13  CG1 UNL     1      -8.074   6.723  68.555  1.00  0.00    -0.120 C  
HETATM   14  CD1 UNL     1      -6.751   6.938  68.574  1.00  0.00    -0.064 C  
ENDBRANCH   4  13
BRANCH   5  15
HETATM   15  N   UNL     1     -11.098  12.155  69.207  1.00  0.00    -0.392 N  
HETATM   16  H   UNL     1     -10.157  12.159  68.814  1.00  0.00     0.000 HD 
HETATM   17  C   UNL     1     -11.620  13.342  69.652  1.00  0.00    -0.268 C  
HETATM   18  O   UNL     1     -12.733  13.452  70.148  1.00  0.00    -0.131 OA 
BRANCH  17  19
HETATM   19  C   UNL     1     -10.686  14.557  69.540  1.00  0.00    -0.146 C  
BRANCH  19  20
HETATM   20  N   UNL     1     -11.015  15.772  69.899  1.00  0.00    -0.301 NA 
HETATM   21  H   UNL     1     -11.978  17.369  69.202  1.00  0.00     0.000 HD 
HETATM   22  O   UNL     1     -11.739  16.487  68.942  1.00  0.00    -0.185 OA 
HETATM   23  H   UNL     1     -10.763  16.166  70.806  1.00  0.00     0.000 HD 
ENDBRANCH  19  20
BRANCH  19  24
HETATM   24  C   UNL     1      -9.348  14.390  68.967  1.00  0.00    -0.025 A  
HETATM   25  S   UNL     1      -6.878  14.663  68.399  1.00  0.00    -0.114 SA 
HETATM   26  C   UNL     1      -8.259  15.193  69.261  1.00  0.00    -0.216 A  
HETATM   27  C   UNL     1      -7.808  13.404  67.698  1.00  0.00    -0.173 A  
HETATM   28  N   UNL     1      -9.061  13.359  68.072  1.00  0.00    -0.198 NA 
HETATM   29  N   UNL     1      -7.273  12.546  66.817  1.00  0.00    -0.351 NA 
HETATM   30  H1  UNL     1      -7.827  11.798  66.400  1.00  0.00     0.000 HD 
HETATM   31  H2  UNL     1      -6.292  12.645  66.558  1.00  0.00     0.000 HD 
ENDBRANCH  19  24
ENDBRANCH  17  19
ENDBRANCH   5  15
TORSDOF 5
ENDMDL
MODEL      155
REMARK 921   NORMALIZED FREE ENERGY PREDICTED BY IDOCK:   -3.64 KCAL/MOL
REMARK 922        TOTAL FREE ENERGY PREDICTED BY IDOCK:   -5.56 KCAL/MOL
REMARK 923 INTER-LIGAND FREE ENERGY PREDICTED BY IDOCK:   -4.62 KCAL/MOL
REMARK 924 INTRA-LIGAND FREE ENERGY PREDICTED BY IDOCK:   -0.94 KCAL/MOL
REMARK 927      BINDING AFFINITY PREDICTED BY RF-SCORE:    0.00 PKD
ROOT
HETATM    1  C   UNL     1      -8.970   9.625  69.873  1.00  0.00    -0.221 C  
HETATM    2  S   UNL     1     -10.430   9.947  68.860  1.00  0.00    -0.220 SA 
HETATM    3  CG2 UNL     1     -11.487  10.269  70.286  1.00  0.00    -0.317 C  
HETATM    4  CB  UNL     1     -11.395   9.236  71.405  1.00  0.00    -0.434 C  
HETATM    5  CA  UNL     1      -7.881   8.734  69.196  1.00  0.00    -0.098 C  
HETATM    6  CA  UNL     1     -10.318   8.416  71.599  1.00  0.00    -0.243 C  
HETATM    7  N   UNL     1      -9.238   8.508  70.760  1.00  0.00    -0.161 N  
HETATM    8  O   UNL     1      -7.804   6.688  70.795  1.00  0.00    -0.102 OA 
HETATM    9  C   UNL     1     -10.305   7.426  72.751  1.00  0.00    -0.258 C  
HETATM   10  C   UNL     1      -8.172   7.767  70.395  1.00  0.00    -0.121 C  
HETATM   11  O   UNL     1      -9.486   6.364  72.649  1.00  0.00    -0.149 OA 
HETATM   12  OXT UNL     1     -10.982   7.561  73.763  1.00  0.00    -0.266 OA 
ENDROOT
BRANCH   4  13
HETATM   13  CG1 UNL     1     -12.639   9.155  72.184  1.00  0.00    -0.451 C  
HETATM   14  CD1 UNL     1     -13.786   8.583  71.792  1.00  0.00    -0.462 C  
ENDBRANCH   4  13
BRANCH   5  15
HETATM   15  N   UNL     1      -8.227   8.175  67.865  1.00  0.00    -0.127 N  
HETATM   16  H   UNL     1      -9.093   8.484  67.423  1.00  0.00     0.000 HD 
HETATM   17  C   UNL     1      -7.448   7.266  67.198  1.00  0.00    -0.105 C  
HETATM   18  O   UNL     1      -6.396   6.821  67.637  1.00  0.00    -0.040 OA 
BRANCH  17  19
HETATM   19  C   UNL     1      -8.006   6.781  65.851  1.00  0.00    -0.112 C  
BRANCH  19  20
HETATM   20  N   UNL     1      -9.282   6.649  65.589  1.00  0.00    -0.376 NA 
HETATM   21  H   UNL     1     -10.946   5.918  66.400  1.00  0.00     0.000 HD 
HETATM   22  O   UNL     1     -10.020   6.014  66.590  1.00  0.00    -0.159 OA 
HETATM   23  H   UNL     1      -9.703   6.984  64.723  1.00  0.00     0.000 HD 
ENDBRANCH  19  20
BRANCH  19  24
HETATM   24  C   UNL     1      -7.081   6.399  64.781  1.00  0.00    -0.057 A  
HETATM   25  S   UNL     1      -5.398   6.451  62.866  1.00  0.00    -0.023 SA 
HETATM   26  C   UNL     1      -6.380   7.293  63.989  1.00  0.00    -0.044 A  
HETATM   27  C   UNL     1      -5.960   4.961  63.505  1.00  0.00    -0.018 A  
HETATM   28  N   UNL     1      -6.814   5.061  64.490  1.00  0.00    -0.048 NA 
HETATM   29  N   UNL     1      -5.551   3.787  63.002  1.00  0.00    -0.012 NA 
HETATM   30  H1  UNL     1      -5.885   2.901  63.382  1.00  0.00     0.000 HD 
HETATM   31  H2  UNL     1      -4.892   3.780  62.224  1.00  0.00     0.000 HD 
ENDBRANCH  19  24
ENDBRANCH  17  19
ENDBRANCH   5  15
TORSDOF 5
ENDMDL
MODEL      156
REMARK 921   NORMALIZED FREE ENERGY PREDICTED BY IDOCK:   -3.63 KCAL/MOL
REMARK 922        TOTAL FREE ENERGY PREDICTED BY IDOCK:   -5.55 KCAL/MOL
REMARK 923 INTER-LIGAND FREE ENERGY PREDICTED BY IDOCK:   -4.44 KCAL/MOL
REMARK 924 INTRA-LIGAND FREE ENERGY PREDICTED BY IDOCK:   -1.11 KCAL/MOL
REMARK 927      BINDING AFFINITY PREDICTED BY RF-SCORE:    0.00 PKD
ROOT
HETATM    1  C   UNL     1      -8.084   6.415  69.304  1.00  0.00    -0.111 C  
HETATM    2  S   UNL     1      -7.241   7.920  69.841  1.00  0.00    -0.067 SA 
HETATM    3  CG2 UNL     1      -7.597   7.630  71.586  1.00  0.00    -0.085 C  
HETATM    4  CB  UNL     1      -9.046   7.267  71.898  1.00  0.00    -0.146 C  
HETATM    5  CA  UNL     1      -8.589   6.434  67.826  1.00  0.00    -0.116 C  
HETATM    6  CA  UNL     1      -9.909   6.725  70.987  1.00  0.00    -0.182 C  
HETATM    7  N   UNL     1      -9.476   6.474  69.710  1.00  0.00    -0.150 N  
HETATM    8  O   UNL     1     -11.154   6.169  68.141  1.00  0.00    -0.332 OA 
HETATM    9  C   UNL     1     -11.332   6.377  71.390  1.00  0.00    -0.301 C  
HETATM   10  C   UNL     1      -9.999   6.257  68.487  1.00  0.00    -0.144 C  
HETATM   11  O   UNL     1     -12.251   6.288  70.412  1.00  0.00    -0.085 OA 
HETATM   12  OXT UNL     1     -11.670   6.158  72.546  1.00  0.00    -0.278 OA 
ENDROOT
BRANCH   4  13
HETATM   13  CG1 UNL     1      -9.433   7.662  73.260  1.00  0.00    -0.317 C  
HETATM   14  CD1 UNL     1      -8.769   7.375  74.389  1.00  0.00    -0.236 C  
ENDBRANCH   4  13
BRANCH   5  15
HETATM   15  N   UNL     1      -8.417   7.712  67.092  1.00  0.00    -0.120 N  
HETATM   16  H   UNL     1      -8.544   8.584  67.607  1.00  0.00     0.000 HD 
HETATM   17  C   UNL     1      -8.097   7.786  65.761  1.00  0.00    -0.125 C  
HETATM   18  O   UNL     1      -7.930   6.806  65.048  1.00  0.00    -0.115 OA 
BRANCH  17  19
HETATM   19  C   UNL     1      -8.005   9.205  65.182  1.00  0.00    -0.117 C  
BRANCH  19  20
HETATM   20  N   UNL     1      -7.495   9.488  64.009  1.00  0.00    -0.116 NA 
HETATM   21  H   UNL     1      -6.048  10.584  63.190  1.00  0.00     0.000 HD 
HETATM   22  O   UNL     1      -6.419  10.379  64.041  1.00  0.00    -0.111 OA 
HETATM   23  H   UNL     1      -7.855   9.091  63.142  1.00  0.00     0.000 HD 
ENDBRANCH  19  20
BRANCH  19  24
HETATM   24  C   UNL     1      -8.474  10.343  65.976  1.00  0.00    -0.146 A  
HETATM   25  S   UNL     1      -9.788  12.351  66.838  1.00  0.00    -0.219 SA 
HETATM   26  C   UNL     1      -9.558  11.140  65.648  1.00  0.00    -0.224 A  
HETATM   27  C   UNL     1      -8.445  11.738  67.710  1.00  0.00    -0.147 A  
HETATM   28  N   UNL     1      -7.855  10.701  67.175  1.00  0.00    -0.115 NA 
HETATM   29  N   UNL     1      -8.033  12.310  68.852  1.00  0.00    -0.339 NA 
HETATM   30  H1  UNL     1      -7.234  11.945  69.370  1.00  0.00     0.000 HD 
HETATM   31  H2  UNL     1      -8.530  13.125  69.208  1.00  0.00     0.000 HD 
ENDBRANCH  19  24
ENDBRANCH  17  19
ENDBRANCH   5  15
TORSDOF 5
ENDMDL
MODEL      157
REMARK 921   NORMALIZED FREE ENERGY PREDICTED BY IDOCK:   -3.57 KCAL/MOL
REMARK 922        TOTAL FREE ENERGY PREDICTED BY IDOCK:   -5.48 KCAL/MOL
REMARK 923 INTER-LIGAND FREE ENERGY PREDICTED BY IDOCK:   -4.73 KCAL/MOL
REMARK 924 INTRA-LIGAND FREE ENERGY PREDICTED BY IDOCK:   -0.75 KCAL/MOL
REMARK 927      BINDING AFFINITY PREDICTED BY RF-SCORE:    0.00 PKD
ROOT
HETATM    1  C   UNL     1      -7.133  10.037  67.897  1.00  0.00    -0.085 C  
HETATM    2  S   UNL     1      -7.090  10.386  69.669  1.00  0.00    -0.148 SA 
HETATM    3  CG2 UNL     1      -7.425   8.673  70.128  1.00  0.00    -0.054 C  
HETATM    4  CB  UNL     1      -8.584   8.020  69.382  1.00  0.00    -0.136 C  
HETATM    5  CA  UNL     1      -7.470  11.264  66.992  1.00  0.00    -0.139 C  
HETATM    6  CA  UNL     1      -9.040   8.440  68.164  1.00  0.00    -0.138 C  
HETATM    7  N   UNL     1      -8.437   9.504  67.546  1.00  0.00    -0.125 N  
HETATM    8  O   UNL     1      -9.670  10.490  65.849  1.00  0.00    -0.195 OA 
HETATM    9  C   UNL     1     -10.191   7.717  67.485  1.00  0.00    -0.235 C  
HETATM   10  C   UNL     1      -8.706  10.397  66.572  1.00  0.00    -0.136 C  
HETATM   11  O   UNL     1     -10.892   8.397  66.558  1.00  0.00     0.050 OA 
HETATM   12  OXT UNL     1     -10.492   6.555  67.724  1.00  0.00    -0.174 OA 
ENDROOT
BRANCH   4  13
HETATM   13  CG1 UNL     1      -9.217   6.954  70.172  1.00  0.00    -0.155 C  
HETATM   14  CD1 UNL     1     -10.084   7.121  71.181  1.00  0.00    -0.193 C  
ENDBRANCH   4  13
BRANCH   5  15
HETATM   15  N   UNL     1      -7.820  12.522  67.698  1.00  0.00    -0.149 N  
HETATM   16  H   UNL     1      -8.772  12.629  68.048  1.00  0.00     0.000 HD 
HETATM   17  C   UNL     1      -6.934  13.547  67.906  1.00  0.00    -0.144 C  
HETATM   18  O   UNL     1      -5.772  13.528  67.524  1.00  0.00    -0.316 OA 
BRANCH  17  19
HETATM   19  C   UNL     1      -7.506  14.779  68.623  1.00  0.00    -0.126 C  
BRANCH  19  20
HETATM   20  N   UNL     1      -8.338  14.721  69.632  1.00  0.00    -0.424 NA 
HETATM   21  H   UNL     1     -10.289  14.815  70.019  1.00  0.00     0.000 HD 
HETATM   22  O   UNL     1      -9.685  14.858  69.286  1.00  0.00    -0.203 OA 
HETATM   23  H   UNL     1      -8.028  14.587  70.595  1.00  0.00     0.000 HD 
ENDBRANCH  19  20
BRANCH  19  24
HETATM   24  C   UNL     1      -7.149  16.120  68.153  1.00  0.00    -0.131 A  
HETATM   25  S   UNL     1      -6.399  18.554  68.038  1.00  0.00    -0.199 SA 
HETATM   26  C   UNL     1      -6.734  17.157  68.971  1.00  0.00    -0.227 A  
HETATM   27  C   UNL     1      -6.819  17.694  66.615  1.00  0.00    -0.217 A  
HETATM   28  N   UNL     1      -7.180  16.451  66.798  1.00  0.00    -0.220 NA 
HETATM   29  N   UNL     1      -6.789  18.281  65.410  1.00  0.00    -0.505 NA 
HETATM   30  H1  UNL     1      -7.039  17.770  64.563  1.00  0.00     0.000 HD 
HETATM   31  H2  UNL     1      -6.511  19.259  65.338  1.00  0.00     0.000 HD 
ENDBRANCH  19  24
ENDBRANCH  17  19
ENDBRANCH   5  15
TORSDOF 5
ENDMDL
MODEL      158
REMARK 921   NORMALIZED FREE ENERGY PREDICTED BY IDOCK:   -3.57 KCAL/MOL
REMARK 922        TOTAL FREE ENERGY PREDICTED BY IDOCK:   -5.47 KCAL/MOL
REMARK 923 INTER-LIGAND FREE ENERGY PREDICTED BY IDOCK:   -4.81 KCAL/MOL
REMARK 924 INTRA-LIGAND FREE ENERGY PREDICTED BY IDOCK:   -0.66 KCAL/MOL
REMARK 927      BINDING AFFINITY PREDICTED BY RF-SCORE:    0.00 PKD
ROOT
HETATM    1  C   UNL     1      -8.033  11.112  67.410  1.00  0.00    -0.125 C  
HETATM    2  S   UNL     1      -7.629   9.507  66.687  1.00  0.00    -0.098 SA 
HETATM    3  CG2 UNL     1      -7.962  10.056  65.001  1.00  0.00    -0.143 C  
HETATM    4  CB  UNL     1      -9.278  10.806  64.814  1.00  0.00    -0.245 C  
HETATM    5  CA  UNL     1      -8.471  11.069  68.908  1.00  0.00    -0.122 C  
HETATM    6  CA  UNL     1      -9.937  11.452  65.823  1.00  0.00    -0.230 C  
HETATM    7  N   UNL     1      -9.407  11.450  67.087  1.00  0.00    -0.171 N  
HETATM    8  O   UNL     1     -10.890  12.006  68.779  1.00  0.00    -0.219 OA 
HETATM    9  C   UNL     1     -11.236  12.188  65.543  1.00  0.00    -0.334 C  
HETATM   10  C   UNL     1      -9.810  11.665  68.356  1.00  0.00    -0.202 C  
HETATM   11  O   UNL     1     -12.064  12.406  66.581  1.00  0.00    -0.592 OA 
HETATM   12  OXT UNL     1     -11.548  12.605  64.434  1.00  0.00    -0.321 OA 
ENDROOT
BRANCH   4  13
HETATM   13  CG1 UNL     1      -9.804  10.665  63.449  1.00  0.00    -0.376 C  
HETATM   14  CD1 UNL     1      -9.257   9.948  62.457  1.00  0.00    -0.307 C  
ENDBRANCH   4  13
BRANCH   5  15
HETATM   15  N   UNL     1      -8.608   9.719  69.511  1.00  0.00    -0.164 N  
HETATM   16  H   UNL     1      -9.476   9.207  69.354  1.00  0.00     0.000 HD 
HETATM   17  C   UNL     1      -7.631   9.123  70.266  1.00  0.00    -0.108 C  
HETATM   18  O   UNL     1      -6.557   9.647  70.524  1.00  0.00    -0.082 OA 
BRANCH  17  19
HETATM   19  C   UNL     1      -7.987   7.740  70.833  1.00  0.00    -0.097 C  
BRANCH  19  20
HETATM   20  N   UNL     1      -7.733   7.361  72.060  1.00  0.00    -0.087 NA 
HETATM   21  H   UNL     1      -7.393   5.708  73.115  1.00  0.00     0.000 HD 
HETATM   22  O   UNL     1      -7.577   5.983  72.224  1.00  0.00    -0.097 OA 
HETATM   23  H   UNL     1      -7.654   8.021  72.834  1.00  0.00     0.000 HD 
ENDBRANCH  19  20
BRANCH  19  24
HETATM   24  C   UNL     1      -8.619   6.744  69.964  1.00  0.00    -0.141 A  
HETATM   25  S   UNL     1     -10.311   5.231  68.802  1.00  0.00    -0.088 SA 
HETATM   26  C   UNL     1      -9.969   6.435  69.972  1.00  0.00    -0.169 A  
HETATM   27  C   UNL     1      -8.654   5.202  68.359  1.00  0.00    -0.098 A  
HETATM   28  N   UNL     1      -7.884   6.028  69.019  1.00  0.00    -0.095 NA 
HETATM   29  N   UNL     1      -8.199   4.371  67.411  1.00  0.00    -0.100 NA 
HETATM   30  H1  UNL     1      -7.213   4.353  67.148  1.00  0.00     0.000 HD 
HETATM   31  H2  UNL     1      -8.851   3.742  66.943  1.00  0.00     0.000 HD 
ENDBRANCH  19  24
ENDBRANCH  17  19
ENDBRANCH   5  15
TORSDOF 5
ENDMDL
MODEL      159
REMARK 921   NORMALIZED FREE ENERGY PREDICTED BY IDOCK:   -3.55 KCAL/MOL
REMARK 922        TOTAL FREE ENERGY PREDICTED BY IDOCK:   -5.44 KCAL/MOL
REMARK 923 INTER-LIGAND FREE ENERGY PREDICTED BY IDOCK:   -4.76 KCAL/MOL
REMARK 924 INTRA-LIGAND FREE ENERGY PREDICTED BY IDOCK:   -0.68 KCAL/MOL
REMARK 927      BINDING AFFINITY PREDICTED BY RF-SCORE:    0.00 PKD
ROOT
HETATM    1  C   UNL     1      -6.665  11.517  68.035  1.00  0.00    -0.059 C  
HETATM    2  S   UNL     1      -6.466  11.995  69.765  1.00  0.00    -0.005 SA 
HETATM    3  CG2 UNL     1      -6.323  10.290  70.337  1.00  0.00    -0.127 C  
HETATM    4  CB  UNL     1      -7.386   9.337  69.797  1.00  0.00    -0.072 C  
HETATM    5  CA  UNL     1      -7.399  12.566  67.141  1.00  0.00    -0.063 C  
HETATM    6  CA  UNL     1      -8.088   9.552  68.644  1.00  0.00    -0.097 C  
HETATM    7  N   UNL     1      -7.841  10.678  67.901  1.00  0.00    -0.104 N  
HETATM    8  O   UNL     1      -9.489  11.230  66.369  1.00  0.00    -0.189 OA 
HETATM    9  C   UNL     1      -9.117   8.540  68.172  1.00  0.00    -0.138 C  
HETATM   10  C   UNL     1      -8.442  11.413  66.944  1.00  0.00    -0.157 C  
HETATM   11  O   UNL     1     -10.077   8.973  67.333  1.00  0.00    -0.196 OA 
HETATM   12  OXT UNL     1      -9.102   7.360  68.500  1.00  0.00    -0.137 OA 
ENDROOT
BRANCH   4  13
HETATM   13  CG1 UNL     1      -7.638   8.216  70.714  1.00  0.00    -0.071 C  
HETATM   14  CD1 UNL     1      -8.337   8.266  71.857  1.00  0.00    -0.206 C  
ENDBRANCH   4  13
BRANCH   5  15
HETATM   15  N   UNL     1      -7.937  13.759  67.841  1.00  0.00    -0.141 N  
HETATM   16  H   UNL     1      -7.669  13.909  68.813  1.00  0.00     0.000 HD 
HETATM   17  C   UNL     1      -8.774  14.671  67.251  1.00  0.00    -0.208 C  
HETATM   18  O   UNL     1      -9.166  14.586  66.095  1.00  0.00    -0.244 OA 
BRANCH  17  19
HETATM   19  C   UNL     1      -9.250  15.814  68.161  1.00  0.00    -0.189 C  
BRANCH  19  20
HETATM   20  N   UNL     1      -9.748  15.640  69.359  1.00  0.00    -0.276 NA 
HETATM   21  H   UNL     1     -11.357  14.886  70.257  1.00  0.00     0.000 HD 
HETATM   22  O   UNL     1     -10.996  15.013  69.387  1.00  0.00    -0.244 OA 
HETATM   23  H   UNL     1      -9.263  15.939  70.206  1.00  0.00     0.000 HD 
ENDBRANCH  19  20
BRANCH  19  24
HETATM   24  C   UNL     1      -9.193  17.196  67.677  1.00  0.00    -0.238 A  
HETATM   25  S   UNL     1      -9.696  19.398  66.495  1.00  0.00    -0.401 SA 
HETATM   26  C   UNL     1     -10.105  17.763  66.803  1.00  0.00    -0.349 A  
HETATM   27  C   UNL     1      -8.344  19.249  67.540  1.00  0.00    -0.290 A  
HETATM   28  N   UNL     1      -8.193  18.074  68.096  1.00  0.00    -0.263 NA 
HETATM   29  N   UNL     1      -7.503  20.273  67.746  1.00  0.00    -0.294 NA 
HETATM   30  H1  UNL     1      -6.699  20.184  68.368  1.00  0.00     0.000 HD 
HETATM   31  H2  UNL     1      -7.671  21.159  67.271  1.00  0.00     0.000 HD 
ENDBRANCH  19  24
ENDBRANCH  17  19
ENDBRANCH   5  15
TORSDOF 5
ENDMDL
MODEL      160
REMARK 921   NORMALIZED FREE ENERGY PREDICTED BY IDOCK:   -3.52 KCAL/MOL
REMARK 922        TOTAL FREE ENERGY PREDICTED BY IDOCK:   -5.41 KCAL/MOL
REMARK 923 INTER-LIGAND FREE ENERGY PREDICTED BY IDOCK:   -4.67 KCAL/MOL
REMARK 924 INTRA-LIGAND FREE ENERGY PREDICTED BY IDOCK:   -0.75 KCAL/MOL
REMARK 927      BINDING AFFINITY PREDICTED BY RF-SCORE:    0.00 PKD
ROOT
HETATM    1  C   UNL     1      -6.796  16.900  67.849  1.00  0.00    -0.148 C  
HETATM    2  S   UNL     1      -7.764  16.592  66.356  1.00  0.00    -0.238 SA 
HETATM    3  CG2 UNL     1      -6.651  17.544  65.302  1.00  0.00     0.902 C  
HETATM    4  CB  UNL     1      -6.268  18.919  65.843  1.00  0.00    -0.239 C  
HETATM    5  CA  UNL     1      -7.593  16.788  69.187  1.00  0.00    -0.181 C  
HETATM    6  CA  UNL     1      -6.318  19.259  67.166  1.00  0.00    -0.190 C  
HETATM    7  N   UNL     1      -6.725  18.330  68.089  1.00  0.00    -0.207 N  
HETATM    8  O   UNL     1      -7.362  19.192  70.143  1.00  0.00     0.375 OA 
HETATM    9  C   UNL     1      -5.901  20.648  67.618  1.00  0.00    -0.244 C  
HETATM   10  C   UNL     1      -7.191  18.293  69.353  1.00  0.00     0.019 C  
HETATM   11  O   UNL     1      -6.377  21.088  68.797  1.00  0.00    -0.188 OA 
HETATM   12  OXT UNL     1      -5.146  21.367  66.976  1.00  0.00    -0.225 OA 
ENDROOT
BRANCH   4  13
HETATM   13  CG1 UNL     1      -5.940  19.863  64.766  1.00  0.00    -0.289 C  
HETATM   14  CD1 UNL     1      -5.953  19.604  63.450  1.00  0.00    -0.070 C  
ENDBRANCH   4  13
BRANCH   5  15
HETATM   15  N   UNL     1      -9.054  16.558  69.061  1.00  0.00    -0.252 N  
HETATM   16  H   UNL     1      -9.659  17.368  68.928  1.00  0.00     0.000 HD 
HETATM   17  C   UNL     1      -9.634  15.317  69.112  1.00  0.00    -0.243 C  
HETATM   18  O   UNL     1      -9.005  14.280  69.274  1.00  0.00     0.079 OA 
BRANCH  17  19
HETATM   19  C   UNL     1     -11.166  15.299  69.001  1.00  0.00    -0.280 C  
BRANCH  19  20
HETATM   20  N   UNL     1     -11.828  15.629  67.921  1.00  0.00    -0.277 NA 
HETATM   21  H   UNL     1     -11.643  15.595  65.939  1.00  0.00     0.000 HD 
HETATM   22  O   UNL     1     -11.162  15.356  66.723  1.00  0.00    -0.298 OA 
HETATM   23  H   UNL     1     -12.755  16.052  67.951  1.00  0.00     0.000 HD 
ENDBRANCH  19  20
BRANCH  19  24
HETATM   24  C   UNL     1     -11.971  14.929  70.167  1.00  0.00    -0.317 A  
HETATM   25  S   UNL     1     -13.203  13.621  71.976  1.00  0.00    -0.448 SA 
HETATM   26  C   UNL     1     -12.242  13.628  70.558  1.00  0.00    -0.368 A  
HETATM   27  C   UNL     1     -13.193  15.335  71.983  1.00  0.00    -0.407 A  
HETATM   28  N   UNL     1     -12.521  15.896  71.010  1.00  0.00    -0.412 NA 
HETATM   29  N   UNL     1     -13.850  16.034  72.920  1.00  0.00    -0.518 NA 
HETATM   30  H1  UNL     1     -13.844  17.055  72.924  1.00  0.00     0.000 HD 
HETATM   31  H2  UNL     1     -14.366  15.535  73.644  1.00  0.00     0.000 HD 
ENDBRANCH  19  24
ENDBRANCH  17  19
ENDBRANCH   5  15
TORSDOF 5
ENDMDL
MODEL      161
REMARK 921   NORMALIZED FREE ENERGY PREDICTED BY IDOCK:   -3.51 KCAL/MOL
REMARK 922        TOTAL FREE ENERGY PREDICTED BY IDOCK:   -5.40 KCAL/MOL
REMARK 923 INTER-LIGAND FREE ENERGY PREDICTED BY IDOCK:   -4.88 KCAL/MOL
REMARK 924 INTRA-LIGAND FREE ENERGY PREDICTED BY IDOCK:   -0.52 KCAL/MOL
REMARK 927      BINDING AFFINITY PREDICTED BY RF-SCORE:    0.00 PKD
ROOT
HETATM    1  C   UNL     1     -10.717   8.097  69.353  1.00  0.00    -0.156 C  
HETATM    2  S   UNL     1     -10.710   7.458  67.664  1.00  0.00    -0.172 SA 
HETATM    3  CG2 UNL     1     -10.422   5.756  68.190  1.00  0.00    -0.217 C  
HETATM    4  CB  UNL     1      -9.301   5.576  69.209  1.00  0.00    -0.153 C  
HETATM    5  CA  UNL     1     -10.359   9.612  69.486  1.00  0.00    -0.221 C  
HETATM    6  CA  UNL     1      -8.859   6.569  70.039  1.00  0.00    -0.144 C  
HETATM    7  N   UNL     1      -9.440   7.809  69.979  1.00  0.00    -0.161 N  
HETATM    8  O   UNL     1      -8.211   9.521  70.944  1.00  0.00    -0.291 OA 
HETATM    9  C   UNL     1      -7.747   6.296  71.037  1.00  0.00    -0.105 C  
HETATM   10  C   UNL     1      -9.162   9.077  70.344  1.00  0.00    -0.209 C  
HETATM   11  O   UNL     1      -7.045   7.350  71.490  1.00  0.00    -0.065 OA 
HETATM   12  OXT UNL     1      -7.479   5.177  71.458  1.00  0.00    -0.088 OA 
ENDROOT
BRANCH   4  13
HETATM   13  CG1 UNL     1      -8.687   4.244  69.124  1.00  0.00    -0.120 C  
HETATM   14  CD1 UNL     1      -9.312   3.099  68.815  1.00  0.00    -0.231 C  
ENDBRANCH   4  13
BRANCH   5  15
HETATM   15  N   UNL     1      -9.953  10.300  68.236  1.00  0.00    -0.144 N  
HETATM   16  H   UNL     1      -8.968  10.274  67.969  1.00  0.00     0.000 HD 
HETATM   17  C   UNL     1     -10.827  10.969  67.419  1.00  0.00    -0.274 C  
HETATM   18  O   UNL     1     -12.025  11.071  67.645  1.00  0.00    -0.583 OA 
BRANCH  17  19
HETATM   19  C   UNL     1     -10.198  11.649  66.193  1.00  0.00    -0.226 C  
BRANCH  19  20
HETATM   20  N   UNL     1     -10.552  12.826  65.744  1.00  0.00    -0.269 NA 
HETATM   21  H   UNL     1      -9.776  14.621  65.370  1.00  0.00     0.000 HD 
HETATM   22  O   UNL     1      -9.519  13.766  65.696  1.00  0.00    -0.079 OA 
HETATM   23  H   UNL     1     -11.506  13.041  65.453  1.00  0.00     0.000 HD 
ENDBRANCH  19  20
BRANCH  19  24
HETATM   24  C   UNL     1      -9.159  10.950  65.433  1.00  0.00    -0.198 A  
HETATM   25  S   UNL     1      -6.920  10.138  64.523  1.00  0.00    -0.082 SA 
HETATM   26  C   UNL     1      -7.798  11.157  65.584  1.00  0.00     0.156 A  
HETATM   27  C   UNL     1      -8.396   9.487  63.939  1.00  0.00    -0.172 A  
HETATM   28  N   UNL     1      -9.479   9.975  64.486  1.00  0.00    -0.290 NA 
HETATM   29  N   UNL     1      -8.416   8.555  62.975  1.00  0.00    -0.384 NA 
HETATM   30  H1  UNL     1      -9.293   8.168  62.628  1.00  0.00     0.000 HD 
HETATM   31  H2  UNL     1      -7.534   8.227  62.581  1.00  0.00     0.000 HD 
ENDBRANCH  19  24
ENDBRANCH  17  19
ENDBRANCH   5  15
TORSDOF 5
ENDMDL
MODEL      162
REMARK 921   NORMALIZED FREE ENERGY PREDICTED BY IDOCK:   -3.49 KCAL/MOL
REMARK 922        TOTAL FREE ENERGY PREDICTED BY IDOCK:   -5.37 KCAL/MOL
REMARK 923 INTER-LIGAND FREE ENERGY PREDICTED BY IDOCK:   -4.62 KCAL/MOL
REMARK 924 INTRA-LIGAND FREE ENERGY PREDICTED BY IDOCK:   -0.76 KCAL/MOL
REMARK 927      BINDING AFFINITY PREDICTED BY RF-SCORE:    0.00 PKD
ROOT
HETATM    1  C   UNL     1      -8.863   6.862  66.723  1.00  0.00    -0.125 C  
HETATM    2  S   UNL     1     -10.435   7.583  67.243  1.00  0.00    -0.330 SA 
HETATM    3  CG2 UNL     1     -10.151   9.126  66.350  1.00  0.00    -0.274 C  
HETATM    4  CB  UNL     1      -8.775   9.751  66.564  1.00  0.00    -0.139 C  
HETATM    5  CA  UNL     1      -8.308   5.744  67.661  1.00  0.00    -0.104 C  
HETATM    6  CA  UNL     1      -7.673   9.049  66.963  1.00  0.00    -0.098 C  
HETATM    7  N   UNL     1      -7.774   7.701  67.188  1.00  0.00    -0.110 N  
HETATM    8  O   UNL     1      -6.056   6.777  68.440  1.00  0.00    -0.024 OA 
HETATM    9  C   UNL     1      -6.337   9.751  67.134  1.00  0.00    -0.068 C  
HETATM   10  C   UNL     1      -7.100   6.727  67.834  1.00  0.00    -0.085 C  
HETATM   11  O   UNL     1      -5.426   9.169  67.936  1.00  0.00    -0.034 OA 
HETATM   12  OXT UNL     1      -6.048  10.798  66.567  1.00  0.00    -0.080 OA 
ENDROOT
BRANCH   4  13
HETATM   13  CG1 UNL     1      -8.800  11.210  66.389  1.00  0.00    -0.182 C  
HETATM   14  CD1 UNL     1      -9.881  11.962  66.134  1.00  0.00    -0.254 C  
ENDBRANCH   4  13
BRANCH   5  15
HETATM   15  N   UNL     1      -9.074   5.496  68.908  1.00  0.00    -0.117 N  
HETATM   16  H   UNL     1     -10.005   5.905  68.991  1.00  0.00     0.000 HD 
HETATM   17  C   UNL     1      -8.600   4.748  69.954  1.00  0.00    -0.074 C  
HETATM   18  O   UNL     1      -7.497   4.219  69.966  1.00  0.00    -0.048 OA 
BRANCH  17  19
HETATM   19  C   UNL     1      -9.533   4.647  71.170  1.00  0.00    -0.156 C  
BRANCH  19  20
HETATM   20  N   UNL     1      -9.682   3.566  71.893  1.00  0.00    -0.155 NA 
HETATM   21  H   UNL     1     -10.628   2.932  73.527  1.00  0.00     0.000 HD 
HETATM   22  O   UNL     1     -10.519   3.717  73.002  1.00  0.00    -0.159 OA 
HETATM   23  H   UNL     1      -9.224   2.684  71.666  1.00  0.00     0.000 HD 
ENDBRANCH  19  20
BRANCH  19  24
HETATM   24  C   UNL     1     -10.350   5.801  71.553  1.00  0.00    -0.220 A  
HETATM   25  S   UNL     1     -11.241   7.897  72.700  1.00  0.00    -0.398 SA 
HETATM   26  C   UNL     1     -10.045   6.676  72.582  1.00  0.00    -0.174 A  
HETATM   27  C   UNL     1     -12.079   7.192  71.380  1.00  0.00    -0.344 A  
HETATM   28  N   UNL     1     -11.522   6.125  70.868  1.00  0.00    -0.297 NA 
HETATM   29  N   UNL     1     -13.234   7.705  70.931  1.00  0.00    -0.564 NA 
HETATM   30  H1  UNL     1     -13.733   7.285  70.146  1.00  0.00     0.000 HD 
HETATM   31  H2  UNL     1     -13.622   8.532  71.385  1.00  0.00     0.000 HD 
ENDBRANCH  19  24
ENDBRANCH  17  19
ENDBRANCH   5  15
TORSDOF 5
ENDMDL
MODEL      163
REMARK 921   NORMALIZED FREE ENERGY PREDICTED BY IDOCK:   -3.47 KCAL/MOL
REMARK 922        TOTAL FREE ENERGY PREDICTED BY IDOCK:   -5.35 KCAL/MOL
REMARK 923 INTER-LIGAND FREE ENERGY PREDICTED BY IDOCK:   -4.43 KCAL/MOL
REMARK 924 INTRA-LIGAND FREE ENERGY PREDICTED BY IDOCK:   -0.91 KCAL/MOL
REMARK 927      BINDING AFFINITY PREDICTED BY RF-SCORE:    0.00 PKD
ROOT
HETATM    1  C   UNL     1      -8.682   7.142  69.382  1.00  0.00    -0.134 C  
HETATM    2  S   UNL     1      -7.163   8.068  69.696  1.00  0.00    -0.067 SA 
HETATM    3  CG2 UNL     1      -6.778   7.146  71.198  1.00  0.00    -0.051 C  
HETATM    4  CB  UNL     1      -7.940   6.991  72.176  1.00  0.00    -0.093 C  
HETATM    5  CA  UNL     1      -9.742   7.889  68.512  1.00  0.00    -0.161 C  
HETATM    6  CA  UNL     1      -9.256   7.077  71.816  1.00  0.00    -0.141 C  
HETATM    7  N   UNL     1      -9.585   7.308  70.506  1.00  0.00    -0.169 N  
HETATM    8  O   UNL     1     -11.752   8.050  70.149  1.00  0.00    -0.027 OA 
HETATM    9  C   UNL     1     -10.349   6.892  72.854  1.00  0.00    -0.226 C  
HETATM   10  C   UNL     1     -10.640   7.743  69.787  1.00  0.00    -0.241 C  
HETATM   11  O   UNL     1     -11.558   7.417  72.585  1.00  0.00    -0.299 OA 
HETATM   12  OXT UNL     1     -10.187   6.278  73.901  1.00  0.00    -0.237 OA 
ENDROOT
BRANCH   4  13
HETATM   13  CG1 UNL     1      -7.477   6.841  73.563  1.00  0.00    -0.082 C  
HETATM   14  CD1 UNL     1      -6.959   7.806  74.336  1.00  0.00    -0.142 C  
ENDBRANCH   4  13
BRANCH   5  15
HETATM   15  N   UNL     1      -9.420   9.293  68.151  1.00  0.00    -0.137 N  
HETATM   16  H   UNL     1      -8.532   9.681  68.469  1.00  0.00     0.000 HD 
HETATM   17  C   UNL     1     -10.251  10.096  67.414  1.00  0.00    -0.218 C  
HETATM   18  O   UNL     1     -11.341   9.738  66.989  1.00  0.00     0.110 OA 
BRANCH  17  19
HETATM   19  C   UNL     1      -9.750  11.530  67.185  1.00  0.00    -0.183 C  
BRANCH  19  20
HETATM   20  N   UNL     1      -8.636  11.829  66.567  1.00  0.00    -0.263 NA 
HETATM   21  H   UNL     1      -7.083  10.942  65.691  1.00  0.00     0.000 HD 
HETATM   22  O   UNL     1      -7.892  10.726  66.140  1.00  0.00    -0.150 OA 
HETATM   23  H   UNL     1      -8.334  12.790  66.409  1.00  0.00     0.000 HD 
ENDBRANCH  19  20
BRANCH  19  24
HETATM   24  C   UNL     1     -10.524  12.659  67.708  1.00  0.00    -0.221 A  
HETATM   25  S   UNL     1     -12.123  14.113  69.061  1.00  0.00    -0.255 SA 
HETATM   26  C   UNL     1     -11.446  12.573  68.738  1.00  0.00    -0.310 A  
HETATM   27  C   UNL     1     -11.150  14.792  67.823  1.00  0.00    -0.299 A  
HETATM   28  N   UNL     1     -10.363  13.950  67.204  1.00  0.00    -0.264 NA 
HETATM   29  N   UNL     1     -11.219  16.095  67.516  1.00  0.00    -0.170 NA 
HETATM   30  H1  UNL     1     -10.639  16.499  66.780  1.00  0.00     0.000 HD 
HETATM   31  H2  UNL     1     -11.864  16.695  68.029  1.00  0.00     0.000 HD 
ENDBRANCH  19  24
ENDBRANCH  17  19
ENDBRANCH   5  15
TORSDOF 5
ENDMDL
MODEL      164
REMARK 921   NORMALIZED FREE ENERGY PREDICTED BY IDOCK:   -3.45 KCAL/MOL
REMARK 922        TOTAL FREE ENERGY PREDICTED BY IDOCK:   -5.32 KCAL/MOL
REMARK 923 INTER-LIGAND FREE ENERGY PREDICTED BY IDOCK:   -4.34 KCAL/MOL
REMARK 924 INTRA-LIGAND FREE ENERGY PREDICTED BY IDOCK:   -0.98 KCAL/MOL
REMARK 927      BINDING AFFINITY PREDICTED BY RF-SCORE:    0.00 PKD
ROOT
HETATM    1  C   UNL     1     -10.033   4.717  68.068  1.00  0.00    -0.091 C  
HETATM    2  S   UNL     1     -10.468   5.155  66.371  1.00  0.00    -0.258 SA 
HETATM    3  CG2 UNL     1      -9.485   3.822  65.656  1.00  0.00    -0.170 C  
HETATM    4  CB  UNL     1      -8.065   3.702  66.203  1.00  0.00    -0.093 C  
HETATM    5  CA  UNL     1     -10.145   5.884  69.100  1.00  0.00    -0.190 C  
HETATM    6  CA  UNL     1      -7.676   4.179  67.424  1.00  0.00    -0.084 C  
HETATM    7  N   UNL     1      -8.593   4.802  68.231  1.00  0.00    -0.101 N  
HETATM    8  O   UNL     1      -7.694   6.093  69.932  1.00  0.00    -0.095 OA 
HETATM    9  C   UNL     1      -6.244   4.000  67.896  1.00  0.00    -0.036 C  
HETATM   10  C   UNL     1      -8.610   5.636  69.290  1.00  0.00    -0.106 C  
HETATM   11  O   UNL     1      -5.790   4.843  68.843  1.00  0.00    -0.018 OA 
HETATM   12  OXT UNL     1      -5.500   3.122  67.475  1.00  0.00    -0.016 OA 
ENDROOT
BRANCH   4  13
HETATM   13  CG1 UNL     1      -7.145   3.106  65.224  1.00  0.00    -0.062 C  
HETATM   14  CD1 UNL     1      -7.052   3.424  63.925  1.00  0.00    -0.050 C  
ENDBRANCH   4  13
BRANCH   5  15
HETATM   15  N   UNL     1     -10.483   7.218  68.544  1.00  0.00    -0.193 N  
HETATM   16  H   UNL     1     -10.555   7.314  67.531  1.00  0.00     0.000 HD 
HETATM   17  C   UNL     1     -10.703   8.329  69.317  1.00  0.00    -0.128 C  
HETATM   18  O   UNL     1     -10.635   8.330  70.539  1.00  0.00    -0.211 OA 
BRANCH  17  19
HETATM   19  C   UNL     1     -10.999   9.623  68.544  1.00  0.00    -0.108 C  
BRANCH  19  20
HETATM   20  N   UNL     1     -12.022  10.404  68.784  1.00  0.00    -0.715 NA 
HETATM   21  H   UNL     1     -12.766  11.557  70.227  1.00  0.00     0.000 HD 
HETATM   22  O   UNL     1     -12.023  10.990  70.052  1.00  0.00    -0.290 OA 
HETATM   23  H   UNL     1     -12.760  10.570  68.100  1.00  0.00     0.000 HD 
ENDBRANCH  19  20
BRANCH  19  24
HETATM   24  C   UNL     1     -10.123  10.022  67.440  1.00  0.00    -0.208 A  
HETATM   25  S   UNL     1      -8.359  11.183  66.012  1.00  0.00    -0.063 SA 
HETATM   26  C   UNL     1      -9.186  11.039  67.504  1.00  0.00    -0.145 A  
HETATM   27  C   UNL     1      -9.290   9.888  65.380  1.00  0.00    -0.239 A  
HETATM   28  N   UNL     1     -10.157   9.366  66.208  1.00  0.00    -0.277 NA 
HETATM   29  N   UNL     1      -9.134   9.467  64.117  1.00  0.00    -0.393 NA 
HETATM   30  H1  UNL     1      -9.688   8.697  63.741  1.00  0.00     0.000 HD 
HETATM   31  H2  UNL     1      -8.448   9.927  63.518  1.00  0.00     0.000 HD 
ENDBRANCH  19  24
ENDBRANCH  17  19
ENDBRANCH   5  15
TORSDOF 5
ENDMDL
MODEL      165
REMARK 921   NORMALIZED FREE ENERGY PREDICTED BY IDOCK:   -3.45 KCAL/MOL
REMARK 922        TOTAL FREE ENERGY PREDICTED BY IDOCK:   -5.32 KCAL/MOL
REMARK 923 INTER-LIGAND FREE ENERGY PREDICTED BY IDOCK:   -4.48 KCAL/MOL
REMARK 924 INTRA-LIGAND FREE ENERGY PREDICTED BY IDOCK:   -0.84 KCAL/MOL
REMARK 927      BINDING AFFINITY PREDICTED BY RF-SCORE:    0.00 PKD
ROOT
HETATM    1  C   UNL     1      -7.707   9.001  66.463  1.00  0.00    -0.096 C  
HETATM    2  S   UNL     1      -9.469   9.003  66.064  1.00  0.00    -0.253 SA 
HETATM    3  CG2 UNL     1      -9.472  10.740  65.577  1.00  0.00    -0.210 C  
HETATM    4  CB  UNL     1      -8.784  11.687  66.557  1.00  0.00    -0.182 C  
HETATM    5  CA  UNL     1      -7.262   7.904  67.480  1.00  0.00    -0.088 C  
HETATM    6  CA  UNL     1      -7.834  11.293  67.458  1.00  0.00    -0.123 C  
HETATM    7  N   UNL     1      -7.451   9.978  67.505  1.00  0.00    -0.090 N  
HETATM    8  O   UNL     1      -6.347   9.340  69.441  1.00  0.00    -0.043 OA 
HETATM    9  C   UNL     1      -7.189  12.308  68.385  1.00  0.00    -0.102 C  
HETATM   10  C   UNL     1      -6.835   9.131  68.355  1.00  0.00    -0.064 C  
HETATM   11  O   UNL     1      -6.632  11.848  69.521  1.00  0.00    -0.118 OA 
HETATM   12  OXT UNL     1      -7.136  13.507  68.140  1.00  0.00    -0.090 OA 
ENDROOT
BRANCH   4  13
HETATM   13  CG1 UNL     1      -9.335  13.048  66.488  1.00  0.00    -0.220 C  
HETATM   14  CD1 UNL     1     -10.446  13.487  67.096  1.00  0.00    -0.256 C  
ENDBRANCH   4  13
BRANCH   5  15
HETATM   15  N   UNL     1      -8.347   7.082  68.072  1.00  0.00    -0.118 N  
HETATM   16  H   UNL     1      -9.311   7.308  67.826  1.00  0.00     0.000 HD 
HETATM   17  C   UNL     1      -8.125   6.038  68.932  1.00  0.00    -0.104 C  
HETATM   18  O   UNL     1      -7.013   5.685  69.300  1.00  0.00    -0.059 OA 
BRANCH  17  19
HETATM   19  C   UNL     1      -9.387   5.341  69.464  1.00  0.00    -0.130 C  
BRANCH  19  20
HETATM   20  N   UNL     1      -9.786   4.153  69.085  1.00  0.00    -0.172 NA 
HETATM   21  H   UNL     1      -9.604   2.238  69.598  1.00  0.00     0.000 HD 
HETATM   22  O   UNL     1      -9.314   3.101  69.874  1.00  0.00    -0.143 OA 
HETATM   23  H   UNL     1     -10.392   4.008  68.278  1.00  0.00     0.000 HD 
ENDBRANCH  19  20
BRANCH  19  24
HETATM   24  C   UNL     1     -10.241   6.034  70.432  1.00  0.00    -0.204 A  
HETATM   25  S   UNL     1     -12.092   7.411  71.517  1.00  0.00    -0.345 SA 
HETATM   26  C   UNL     1     -11.363   6.777  70.103  1.00  0.00    -0.350 A  
HETATM   27  C   UNL     1     -10.881   6.659  72.470  1.00  0.00    -0.238 A  
HETATM   28  N   UNL     1      -9.990   5.972  71.803  1.00  0.00    -0.169 NA 
HETATM   29  N   UNL     1     -10.858   6.792  73.804  1.00  0.00    -0.510 NA 
HETATM   30  H1  UNL     1     -10.138   6.344  74.371  1.00  0.00     0.000 HD 
HETATM   31  H2  UNL     1     -11.576   7.353  74.262  1.00  0.00     0.000 HD 
ENDBRANCH  19  24
ENDBRANCH  17  19
ENDBRANCH   5  15
TORSDOF 5
ENDMDL
MODEL      166
REMARK 921   NORMALIZED FREE ENERGY PREDICTED BY IDOCK:   -3.43 KCAL/MOL
REMARK 922        TOTAL FREE ENERGY PREDICTED BY IDOCK:   -5.29 KCAL/MOL
REMARK 923 INTER-LIGAND FREE ENERGY PREDICTED BY IDOCK:   -4.39 KCAL/MOL
REMARK 924 INTRA-LIGAND FREE ENERGY PREDICTED BY IDOCK:   -0.90 KCAL/MOL
REMARK 927      BINDING AFFINITY PREDICTED BY RF-SCORE:    0.00 PKD
ROOT
HETATM    1  C   UNL     1      -6.857  11.751  68.364  1.00  0.00    -0.069 C  
HETATM    2  S   UNL     1      -8.619  11.765  67.968  1.00  0.00    -0.164 SA 
HETATM    3  CG2 UNL     1      -8.582  13.460  67.350  1.00  0.00    -0.204 C  
HETATM    4  CB  UNL     1      -7.869  14.461  68.255  1.00  0.00    -0.138 C  
HETATM    5  CA  UNL     1      -6.435  10.723  69.461  1.00  0.00    -0.089 C  
HETATM    6  CA  UNL     1      -6.926  14.114  69.182  1.00  0.00    -0.111 C  
HETATM    7  N   UNL     1      -6.574  12.797  69.329  1.00  0.00    -0.104 N  
HETATM    8  O   UNL     1      -5.481  12.282  71.307  1.00  0.00    -0.331 OA 
HETATM    9  C   UNL     1      -6.254  15.181  70.029  1.00  0.00    -0.152 C  
HETATM   10  C   UNL     1      -5.976  12.003  70.240  1.00  0.00    -0.143 C  
HETATM   11  O   UNL     1      -5.705  14.794  71.196  1.00  0.00    -0.130 OA 
HETATM   12  OXT UNL     1      -6.173  16.355  69.694  1.00  0.00    -0.193 OA 
ENDROOT
BRANCH   4  13
HETATM   13  CG1 UNL     1      -8.387  15.826  68.083  1.00  0.00    -0.160 C  
HETATM   14  CD1 UNL     1      -9.531  16.310  68.586  1.00  0.00    -0.228 C  
ENDBRANCH   4  13
BRANCH   5  15
HETATM   15  N   UNL     1      -7.538   9.976  70.115  1.00  0.00    -0.184 N  
HETATM   16  H   UNL     1      -8.464  10.011  69.688  1.00  0.00     0.000 HD 
HETATM   17  C   UNL     1      -7.381   9.240  71.262  1.00  0.00     0.033 C  
HETATM   18  O   UNL     1      -6.319   9.135  71.861  1.00  0.00    -0.191 OA 
BRANCH  17  19
HETATM   19  C   UNL     1      -8.657   8.575  71.800  1.00  0.00    -0.190 C  
BRANCH  19  20
HETATM   20  N   UNL     1      -9.104   8.725  73.021  1.00  0.00    -0.201 NA 
HETATM   21  H   UNL     1      -8.878   7.953  74.842  1.00  0.00     0.000 HD 
HETATM   22  O   UNL     1      -8.553   7.844  73.956  1.00  0.00    -0.244 OA 
HETATM   23  H   UNL     1      -9.799   9.428  73.270  1.00  0.00     0.000 HD 
ENDBRANCH  19  20
BRANCH  19  24
HETATM   24  C   UNL     1      -9.428   7.682  70.931  1.00  0.00    -0.164 A  
HETATM   25  S   UNL     1     -11.324   6.438  69.765  1.00  0.00    -0.390 SA 
HETATM   26  C   UNL     1     -10.809   7.581  70.933  1.00  0.00    -0.240 A  
HETATM   27  C   UNL     1      -9.689   6.158  69.331  1.00  0.00    -0.145 A  
HETATM   28  N   UNL     1      -8.805   6.860  69.992  1.00  0.00    -0.142 NA 
HETATM   29  N   UNL     1      -9.360   5.263  68.387  1.00  0.00    -0.114 NA 
HETATM   30  H1  UNL     1      -8.387   5.097  68.129  1.00  0.00     0.000 HD 
HETATM   31  H2  UNL     1     -10.098   4.739  67.918  1.00  0.00     0.000 HD 
ENDBRANCH  19  24
ENDBRANCH  17  19
ENDBRANCH   5  15
TORSDOF 5
ENDMDL
MODEL      167
REMARK 921   NORMALIZED FREE ENERGY PREDICTED BY IDOCK:   -3.42 KCAL/MOL
REMARK 922        TOTAL FREE ENERGY PREDICTED BY IDOCK:   -5.28 KCAL/MOL
REMARK 923 INTER-LIGAND FREE ENERGY PREDICTED BY IDOCK:   -4.64 KCAL/MOL
REMARK 924 INTRA-LIGAND FREE ENERGY PREDICTED BY IDOCK:   -0.64 KCAL/MOL
REMARK 927      BINDING AFFINITY PREDICTED BY RF-SCORE:    0.00 PKD
ROOT
HETATM    1  C   UNL     1     -10.628   5.586  67.890  1.00  0.00    -0.145 C  
HETATM    2  S   UNL     1      -9.313   5.183  66.719  1.00  0.00    -0.143 SA 
HETATM    3  CG2 UNL     1      -8.711   3.794  67.701  1.00  0.00    -0.105 C  
HETATM    4  CB  UNL     1      -8.517   4.088  69.186  1.00  0.00    -0.100 C  
HETATM    5  CA  UNL     1     -11.126   7.065  67.840  1.00  0.00    -0.060 C  
HETATM    6  CA  UNL     1      -9.159   5.092  69.854  1.00  0.00    -0.123 C  
HETATM    7  N   UNL     1     -10.043   5.896  69.181  1.00  0.00    -0.174 N  
HETATM    8  O   UNL     1     -10.558   7.895  70.235  1.00  0.00    -0.222 OA 
HETATM    9  C   UNL     1      -8.918   5.303  71.339  1.00  0.00    -0.141 C  
HETATM   10  C   UNL     1     -10.629   7.102  69.325  1.00  0.00    -0.221 C  
HETATM   11  O   UNL     1      -9.185   6.520  71.846  1.00  0.00    -0.149 OA 
HETATM   12  OXT UNL     1      -8.516   4.421  72.088  1.00  0.00    -0.108 OA 
ENDROOT
BRANCH   4  13
HETATM   13  CG1 UNL     1      -7.483   3.233  69.786  1.00  0.00    -0.044 C  
HETATM   14  CD1 UNL     1      -6.196   3.162  69.417  1.00  0.00    -0.028 C  
ENDBRANCH   4  13
BRANCH   5  15
HETATM   15  N   UNL     1     -10.387   7.973  66.928  1.00  0.00    -0.333 N  
HETATM   16  H   UNL     1      -9.730   7.560  66.266  1.00  0.00     0.000 HD 
HETATM   17  C   UNL     1     -10.539   9.335  66.926  1.00  0.00    -0.169 C  
HETATM   18  O   UNL     1     -11.292   9.936  67.681  1.00  0.00    -0.151 OA 
BRANCH  17  19
HETATM   19  C   UNL     1      -9.651  10.098  65.931  1.00  0.00    -0.218 C  
BRANCH  19  20
HETATM   20  N   UNL     1      -8.612   9.579  65.328  1.00  0.00    -0.146 NA 
HETATM   21  H   UNL     1      -7.788   9.465  63.519  1.00  0.00     0.000 HD 
HETATM   22  O   UNL     1      -8.542   9.841  63.957  1.00  0.00    -0.165 OA 
HETATM   23  H   UNL     1      -7.909   9.026  65.819  1.00  0.00     0.000 HD 
ENDBRANCH  19  20
BRANCH  19  24
HETATM   24  C   UNL     1      -9.933  11.506  65.642  1.00  0.00    -0.236 A  
HETATM   25  S   UNL     1     -10.949  13.664  64.742  1.00  0.00    -0.397 SA 
HETATM   26  C   UNL     1     -10.940  11.952  64.804  1.00  0.00    -0.312 A  
HETATM   27  C   UNL     1      -9.625  13.702  65.831  1.00  0.00    -0.118 A  
HETATM   28  N   UNL     1      -9.194  12.534  66.231  1.00  0.00    -0.182 NA 
HETATM   29  N   UNL     1      -9.072  14.861  66.220  1.00  0.00    -0.449 NA 
HETATM   30  H1  UNL     1      -8.284  14.883  66.867  1.00  0.00     0.000 HD 
HETATM   31  H2  UNL     1      -9.448  15.738  65.860  1.00  0.00     0.000 HD 
ENDBRANCH  19  24
ENDBRANCH  17  19
ENDBRANCH   5  15
TORSDOF 5
ENDMDL
MODEL      168
REMARK 921   NORMALIZED FREE ENERGY PREDICTED BY IDOCK:   -3.41 KCAL/MOL
REMARK 922        TOTAL FREE ENERGY PREDICTED BY IDOCK:   -5.27 KCAL/MOL
REMARK 923 INTER-LIGAND FREE ENERGY PREDICTED BY IDOCK:   -4.20 KCAL/MOL
REMARK 924 INTRA-LIGAND FREE ENERGY PREDICTED BY IDOCK:   -1.06 KCAL/MOL
REMARK 927      BINDING AFFINITY PREDICTED BY RF-SCORE:    0.00 PKD
ROOT
HETATM    1  C   UNL     1      -6.653   8.728  69.070  1.00  0.00    -0.048 C  
HETATM    2  S   UNL     1      -7.582   9.275  70.520  1.00  0.00    -0.149 SA 
HETATM    3  CG2 UNL     1      -8.402   7.682  70.735  1.00  0.00    -0.117 C  
HETATM    4  CB  UNL     1      -9.008   7.091  69.466  1.00  0.00    -0.143 C  
HETATM    5  CA  UNL     1      -6.194   9.870  68.110  1.00  0.00    -0.054 C  
HETATM    6  CA  UNL     1      -8.599   7.416  68.203  1.00  0.00    -0.123 C  
HETATM    7  N   UNL     1      -7.581   8.319  68.032  1.00  0.00    -0.100 N  
HETATM    8  O   UNL     1      -7.424   9.240  65.911  1.00  0.00    -0.093 OA 
HETATM    9  C   UNL     1      -9.248   6.764  66.994  1.00  0.00    -0.137 C  
HETATM   10  C   UNL     1      -7.085   9.117  67.065  1.00  0.00    -0.086 C  
HETATM   11  O   UNL     1      -9.160   7.410  65.817  1.00  0.00    -0.092 OA 
HETATM   12  OXT UNL     1      -9.822   5.684  67.039  1.00  0.00    -0.131 OA 
ENDROOT
BRANCH   4  13
HETATM   13  CG1 UNL     1     -10.148   6.211  69.757  1.00  0.00    -0.229 C  
HETATM   14  CD1 UNL     1     -11.298   6.569  70.346  1.00  0.00    -0.443 C  
ENDBRANCH   4  13
BRANCH   5  15
HETATM   15  N   UNL     1      -6.670  11.236  68.445  1.00  0.00    -0.059 N  
HETATM   16  H   UNL     1      -7.188  11.366  69.314  1.00  0.00     0.000 HD 
HETATM   17  C   UNL     1      -6.452  12.331  67.650  1.00  0.00    -0.120 C  
HETATM   18  O   UNL     1      -5.851  12.289  66.585  1.00  0.00    -0.241 OA 
BRANCH  17  19
HETATM   19  C   UNL     1      -7.063  13.647  68.156  1.00  0.00    -0.118 C  
BRANCH  19  20
HETATM   20  N   UNL     1      -6.363  14.701  68.491  1.00  0.00    -0.082 NA 
HETATM   21  H   UNL     1      -5.517  16.305  67.669  1.00  0.00     0.000 HD 
HETATM   22  O   UNL     1      -6.026  15.540  67.426  1.00  0.00    -0.294 OA 
HETATM   23  H   UNL     1      -6.084  14.894  69.453  1.00  0.00     0.000 HD 
ENDBRANCH  19  20
BRANCH  19  24
HETATM   24  C   UNL     1      -8.515  13.754  68.322  1.00  0.00    -0.173 A  
HETATM   25  S   UNL     1     -10.893  14.643  68.553  1.00  0.00    -0.260 SA 
HETATM   26  C   UNL     1      -9.218  14.946  68.361  1.00  0.00    -0.189 A  
HETATM   27  C   UNL     1     -10.579  12.957  68.566  1.00  0.00    -0.253 A  
HETATM   28  N   UNL     1      -9.322  12.620  68.432  1.00  0.00    -0.186 NA 
HETATM   29  N   UNL     1     -11.566  12.063  68.723  1.00  0.00    -0.286 NA 
HETATM   30  H1  UNL     1     -11.379  11.060  68.731  1.00  0.00     0.000 HD 
HETATM   31  H2  UNL     1     -12.524  12.393  68.836  1.00  0.00     0.000 HD 
ENDBRANCH  19  24
ENDBRANCH  17  19
ENDBRANCH   5  15
TORSDOF 5
ENDMDL
MODEL      169
REMARK 921   NORMALIZED FREE ENERGY PREDICTED BY IDOCK:   -3.37 KCAL/MOL
REMARK 922        TOTAL FREE ENERGY PREDICTED BY IDOCK:   -5.21 KCAL/MOL
REMARK 923 INTER-LIGAND FREE ENERGY PREDICTED BY IDOCK:   -4.52 KCAL/MOL
REMARK 924 INTRA-LIGAND FREE ENERGY PREDICTED BY IDOCK:   -0.70 KCAL/MOL
REMARK 927      BINDING AFFINITY PREDICTED BY RF-SCORE:    0.00 PKD
ROOT
HETATM    1  C   UNL     1      -8.758   9.809  67.815  1.00  0.00    -0.129 C  
HETATM    2  S   UNL     1     -10.517   9.540  68.127  1.00  0.00    -0.220 SA 
HETATM    3  CG2 UNL     1     -11.030  10.895  67.052  1.00  0.00    -0.247 C  
HETATM    4  CB  UNL     1     -10.282  12.208  67.268  1.00  0.00    -0.216 C  
HETATM    5  CA  UNL     1      -7.802   9.283  68.932  1.00  0.00    -0.087 C  
HETATM    6  CA  UNL     1      -9.040  12.295  67.831  1.00  0.00    -0.190 C  
HETATM    7  N   UNL     1      -8.398  11.152  68.231  1.00  0.00    -0.136 N  
HETATM    8  O   UNL     1      -6.640  11.473  69.707  1.00  0.00    -0.130 OA 
HETATM    9  C   UNL     1      -8.362  13.645  67.991  1.00  0.00    -0.170 C  
HETATM   10  C   UNL     1      -7.387  10.789  69.047  1.00  0.00    -0.109 C  
HETATM   11  O   UNL     1      -7.397  13.750  68.923  1.00  0.00    -0.109 OA 
HETATM   12  OXT UNL     1      -8.637  14.622  67.306  1.00  0.00    -0.188 OA 
ENDROOT
BRANCH   4  13
HETATM   13  CG1 UNL     1     -11.096  13.374  66.893  1.00  0.00    -0.309 C  
HETATM   14  CD1 UNL     1     -11.983  13.434  65.890  1.00  0.00    -0.452 C  
ENDBRANCH   4  13
BRANCH   5  15
HETATM   15  N   UNL     1      -8.455   8.737  70.148  1.00  0.00    -0.128 N  
HETATM   16  H   UNL     1      -9.325   9.167  70.462  1.00  0.00     0.000 HD 
HETATM   17  C   UNL     1      -7.953   7.686  70.871  1.00  0.00    -0.094 C  
HETATM   18  O   UNL     1      -6.915   7.102  70.591  1.00  0.00    -0.056 OA 
BRANCH  17  19
HETATM   19  C   UNL     1      -8.759   7.300  72.121  1.00  0.00    -0.120 C  
BRANCH  19  20
HETATM   20  N   UNL     1      -9.021   8.120  73.108  1.00  0.00    -0.256 NA 
HETATM   21  H   UNL     1      -8.145   9.538  74.197  1.00  0.00     0.000 HD 
HETATM   22  O   UNL     1      -7.955   8.943  73.480  1.00  0.00    -0.366 OA 
HETATM   23  H   UNL     1      -9.930   8.154  73.569  1.00  0.00     0.000 HD 
ENDBRANCH  19  20
BRANCH  19  24
HETATM   24  C   UNL     1      -9.252   5.929  72.269  1.00  0.00    -0.144 A  
HETATM   25  S   UNL     1     -10.250   3.773  73.194  1.00  0.00    -0.166 SA 
HETATM   26  C   UNL     1      -9.775   5.400  73.437  1.00  0.00    -0.150 A  
HETATM   27  C   UNL     1      -9.739   3.876  71.560  1.00  0.00    -0.177 A  
HETATM   28  N   UNL     1      -9.251   5.034  71.198  1.00  0.00    -0.141 NA 
HETATM   29  N   UNL     1      -9.825   2.823  70.733  1.00  0.00    -0.028 NA 
HETATM   30  H1  UNL     1      -9.521   2.885  69.762  1.00  0.00     0.000 HD 
HETATM   31  H2  UNL     1     -10.204   1.944  71.084  1.00  0.00     0.000 HD 
ENDBRANCH  19  24
ENDBRANCH  17  19
ENDBRANCH   5  15
TORSDOF 5
ENDMDL
MODEL      170
REMARK 921   NORMALIZED FREE ENERGY PREDICTED BY IDOCK:   -3.31 KCAL/MOL
REMARK 922        TOTAL FREE ENERGY PREDICTED BY IDOCK:   -5.14 KCAL/MOL
REMARK 923 INTER-LIGAND FREE ENERGY PREDICTED BY IDOCK:   -4.82 KCAL/MOL
REMARK 924 INTRA-LIGAND FREE ENERGY PREDICTED BY IDOCK:   -0.32 KCAL/MOL
REMARK 927      BINDING AFFINITY PREDICTED BY RF-SCORE:    0.00 PKD
ROOT
HETATM    1  C   UNL     1      -7.888   9.415  66.550  1.00  0.00    -0.097 C  
HETATM    2  S   UNL     1      -9.278   8.603  65.730  1.00  0.00    -0.139 SA 
HETATM    3  CG2 UNL     1      -9.591   9.999  64.631  1.00  0.00    -0.297 C  
HETATM    4  CB  UNL     1      -9.640  11.362  65.316  1.00  0.00    -0.256 C  
HETATM    5  CA  UNL     1      -7.577   8.897  67.990  1.00  0.00    -0.093 C  
HETATM    6  CA  UNL     1      -9.044  11.634  66.516  1.00  0.00    -0.197 C  
HETATM    7  N   UNL     1      -8.348  10.647  67.165  1.00  0.00    -0.124 N  
HETATM    8  O   UNL     1      -7.948  11.037  69.414  1.00  0.00    -0.081 OA 
HETATM    9  C   UNL     1      -9.129  13.026  67.117  1.00  0.00    -0.225 C  
HETATM   10  C   UNL     1      -7.894  10.374  68.405  1.00  0.00    -0.104 C  
HETATM   11  O   UNL     1      -8.948  13.143  68.445  1.00  0.00    -0.187 OA 
HETATM   12  OXT UNL     1      -9.332  14.035  66.453  1.00  0.00    -0.274 OA 
ENDROOT
BRANCH   4  13
HETATM   13  CG1 UNL     1     -10.486  12.316  64.586  1.00  0.00    -0.334 C  
HETATM   14  CD1 UNL     1     -11.248  12.046  63.517  1.00  0.00    -0.526 C  
ENDBRANCH   4  13
BRANCH   5  15
HETATM   15  N   UNL     1      -8.521   7.893  68.542  1.00  0.00    -0.128 N  
HETATM   16  H   UNL     1      -9.176   7.444  67.901  1.00  0.00     0.000 HD 
HETATM   17  C   UNL     1      -8.561   7.537  69.865  1.00  0.00    -0.139 C  
HETATM   18  O   UNL     1      -7.829   8.016  70.720  1.00  0.00    -0.086 OA 
BRANCH  17  19
HETATM   19  C   UNL     1      -9.640   6.509  70.239  1.00  0.00    -0.161 C  
BRANCH  19  20
HETATM   20  N   UNL     1     -10.546   6.060  69.408  1.00  0.00    -0.263 NA 
HETATM   21  H   UNL     1     -10.961   4.448  68.316  1.00  0.00     0.000 HD 
HETATM   22  O   UNL     1     -10.303   4.774  68.919  1.00  0.00    -0.089 OA 
HETATM   23  H   UNL     1     -11.365   6.606  69.139  1.00  0.00     0.000 HD 
ENDBRANCH  19  20
BRANCH  19  24
HETATM   24  C   UNL     1      -9.712   6.004  71.613  1.00  0.00    -0.158 A  
HETATM   25  S   UNL     1     -10.545   5.131  73.859  1.00  0.00    -0.290 SA 
HETATM   26  C   UNL     1     -10.887   5.707  72.282  1.00  0.00    -0.242 A  
HETATM   27  C   UNL     1      -8.867   5.308  73.550  1.00  0.00    -0.116 A  
HETATM   28  N   UNL     1      -8.561   5.756  72.360  1.00  0.00    -0.121 NA 
HETATM   29  N   UNL     1      -7.950   5.016  74.485  1.00  0.00    -0.095 NA 
HETATM   30  H1  UNL     1      -6.952   5.121  74.301  1.00  0.00     0.000 HD 
HETATM   31  H2  UNL     1      -8.258   4.683  75.398  1.00  0.00     0.000 HD 
ENDBRANCH  19  24
ENDBRANCH  17  19
ENDBRANCH   5  15
TORSDOF 5
ENDMDL
MODEL      171
REMARK 921   NORMALIZED FREE ENERGY PREDICTED BY IDOCK:   -3.29 KCAL/MOL
REMARK 922        TOTAL FREE ENERGY PREDICTED BY IDOCK:   -5.12 KCAL/MOL
REMARK 923 INTER-LIGAND FREE ENERGY PREDICTED BY IDOCK:   -6.03 KCAL/MOL
REMARK 924 INTRA-LIGAND FREE ENERGY PREDICTED BY IDOCK:    0.91 KCAL/MOL
REMARK 927      BINDING AFFINITY PREDICTED BY RF-SCORE:    0.00 PKD
ROOT
HETATM    1  C   UNL     1      -9.934  16.239  69.726  1.00  0.00    -0.052 C  
HETATM    2  S   UNL     1      -8.947  14.727  69.677  1.00  0.00     0.349 SA 
HETATM    3  CG2 UNL     1      -7.378  15.615  69.736  1.00  0.00    -0.065 C  
HETATM    4  CB  UNL     1      -7.260  16.782  68.760  1.00  0.00    -0.217 C  
HETATM    5  CA  UNL     1     -11.370  16.110  69.126  1.00  0.00    -0.323 C  
HETATM    6  CA  UNL     1      -8.332  17.444  68.230  1.00  0.00    -0.248 C  
HETATM    7  N   UNL     1      -9.602  17.065  68.580  1.00  0.00    -0.267 N  
HETATM    8  O   UNL     1     -11.280  17.813  67.167  1.00  0.00     0.065 OA 
HETATM    9  C   UNL     1      -8.120  18.608  67.277  1.00  0.00    -0.241 C  
HETATM   10  C   UNL     1     -10.863  17.200  68.122  1.00  0.00    -0.316 C  
HETATM   11  O   UNL     1      -9.131  18.925  66.447  1.00  0.00    -0.317 OA 
HETATM   12  OXT UNL     1      -7.093  19.275  67.246  1.00  0.00    -0.204 OA 
ENDROOT
BRANCH   4  13
HETATM   13  CG1 UNL     1      -5.864  17.044  68.379  1.00  0.00    -0.135 C  
HETATM   14  CD1 UNL     1      -5.188  16.453  67.383  1.00  0.00    -0.148 C  
ENDBRANCH   4  13
BRANCH   5  15
HETATM   15  N   UNL     1     -11.700  14.807  68.495  1.00  0.00    -0.357 N  
HETATM   16  H   UNL     1     -12.384  14.208  68.957  1.00  0.00     0.000 HD 
HETATM   17  C   UNL     1     -11.136  14.367  67.326  1.00  0.00    -0.311 C  
HETATM   18  O   UNL     1     -10.301  14.999  66.693  1.00  0.00    -0.267 OA 
BRANCH  17  19
HETATM   19  C   UNL     1     -11.583  12.972  66.862  1.00  0.00    -0.366 C  
BRANCH  19  20
HETATM   20  N   UNL     1     -12.084  12.060  67.656  1.00  0.00    -0.509 NA 
HETATM   21  H   UNL     1     -11.525  10.811  69.102  1.00  0.00     0.000 HD 
HETATM   22  O   UNL     1     -11.161  11.473  68.526  1.00  0.00    -0.215 OA 
HETATM   23  H   UNL     1     -13.070  11.797  67.641  1.00  0.00     0.000 HD 
ENDBRANCH  19  20
BRANCH  19  24
HETATM   24  C   UNL     1     -11.421  12.591  65.457  1.00  0.00    -0.350 A  
HETATM   25  S   UNL     1     -11.857  12.002  63.014  1.00  0.00     0.223 SA 
HETATM   26  C   UNL     1     -12.462  12.442  64.555  1.00  0.00    -0.435 A  
HETATM   27  C   UNL     1     -10.260  12.044  63.639  1.00  0.00    -0.444 A  
HETATM   28  N   UNL     1     -10.161  12.366  64.902  1.00  0.00    -0.263 NA 
HETATM   29  N   UNL     1      -9.202  11.745  62.871  1.00  0.00    -0.617 NA 
HETATM   30  H1  UNL     1      -8.252  11.770  63.242  1.00  0.00     0.000 HD 
HETATM   31  H2  UNL     1      -9.350  11.489  61.895  1.00  0.00     0.000 HD 
ENDBRANCH  19  24
ENDBRANCH  17  19
ENDBRANCH   5  15
TORSDOF 5
ENDMDL
MODEL      172
REMARK 921   NORMALIZED FREE ENERGY PREDICTED BY IDOCK:   -3.02 KCAL/MOL
REMARK 922        TOTAL FREE ENERGY PREDICTED BY IDOCK:   -4.76 KCAL/MOL
REMARK 923 INTER-LIGAND FREE ENERGY PREDICTED BY IDOCK:   -5.40 KCAL/MOL
REMARK 924 INTRA-LIGAND FREE ENERGY PREDICTED BY IDOCK:    0.63 KCAL/MOL
REMARK 927      BINDING AFFINITY PREDICTED BY RF-SCORE:    0.00 PKD
ROOT
HETATM    1  C   UNL     1      -8.402  11.084  67.315  1.00  0.00    -0.125 C  
HETATM    2  S   UNL     1      -7.477   9.533  67.250  1.00  0.00    -0.091 SA 
HETATM    3  CG2 UNL     1      -6.896   9.820  65.566  1.00  0.00    -0.095 C  
HETATM    4  CB  UNL     1      -7.975  10.250  64.576  1.00  0.00    -0.133 C  
HETATM    5  CA  UNL     1      -9.579  11.107  68.340  1.00  0.00    -0.192 C  
HETATM    6  CA  UNL     1      -9.150  10.845  64.940  1.00  0.00    -0.182 C  
HETATM    7  N   UNL     1      -9.404  11.088  66.265  1.00  0.00    -0.178 N  
HETATM    8  O   UNL     1     -11.625  11.494  66.787  1.00  0.00    -0.492 OA 
HETATM    9  C   UNL     1     -10.161  11.257  63.883  1.00  0.00    -0.365 C  
HETATM   10  C   UNL     1     -10.458  11.345  67.065  1.00  0.00    -0.236 C  
HETATM   11  O   UNL     1     -11.442  11.403  64.271  1.00  0.00    -0.253 OA 
HETATM   12  OXT UNL     1      -9.863  11.479  62.717  1.00  0.00    -0.307 OA 
ENDROOT
BRANCH   4  13
HETATM   13  CG1 UNL     1      -7.646   9.859  63.198  1.00  0.00    -0.135 C  
HETATM   14  CD1 UNL     1      -7.696   8.619  62.690  1.00  0.00    -0.121 C  
ENDBRANCH   4  13
BRANCH   5  15
HETATM   15  N   UNL     1      -9.860   9.830  69.043  1.00  0.00    -0.173 N  
HETATM   16  H   UNL     1      -9.596   9.752  70.025  1.00  0.00     0.000 HD 
HETATM   17  C   UNL     1     -10.455   8.750  68.444  1.00  0.00    -0.176 C  
HETATM   18  O   UNL     1     -10.805   8.730  67.272  1.00  0.00    -0.214 OA 
BRANCH  17  19
HETATM   19  C   UNL     1     -10.619   7.509  69.335  1.00  0.00    -0.223 C  
BRANCH  19  20
HETATM   20  N   UNL     1     -11.714   6.794  69.404  1.00  0.00    -0.631 NA 
HETATM   21  H   UNL     1     -13.169   6.336  70.683  1.00  0.00     0.000 HD 
HETATM   22  O   UNL     1     -12.374   6.854  70.633  1.00  0.00    -0.348 OA 
HETATM   23  H   UNL     1     -12.057   6.237  68.621  1.00  0.00     0.000 HD 
ENDBRANCH  19  20
BRANCH  19  24
HETATM   24  C   UNL     1      -9.516   7.090  70.203  1.00  0.00    -0.162 A  
HETATM   25  S   UNL     1      -7.679   5.744  71.350  1.00  0.00    -0.109 SA 
HETATM   26  C   UNL     1      -8.948   5.827  70.202  1.00  0.00    -0.140 A  
HETATM   27  C   UNL     1      -7.960   7.383  71.767  1.00  0.00    -0.091 A  
HETATM   28  N   UNL     1      -8.922   7.973  71.106  1.00  0.00    -0.137 NA 
HETATM   29  N   UNL     1      -7.242   7.995  72.721  1.00  0.00    -0.090 NA 
HETATM   30  H1  UNL     1      -7.409   8.970  72.969  1.00  0.00     0.000 HD 
HETATM   31  H2  UNL     1      -6.513   7.473  73.208  1.00  0.00     0.000 HD 
ENDBRANCH  19  24
ENDBRANCH  17  19
ENDBRANCH   5  15
TORSDOF 5
ENDMDL
MODEL      173
REMARK 921   NORMALIZED FREE ENERGY PREDICTED BY IDOCK:   -2.93 KCAL/MOL
REMARK 922        TOTAL FREE ENERGY PREDICTED BY IDOCK:   -4.64 KCAL/MOL
REMARK 923 INTER-LIGAND FREE ENERGY PREDICTED BY IDOCK:   -4.09 KCAL/MOL
REMARK 924 INTRA-LIGAND FREE ENERGY PREDICTED BY IDOCK:   -0.55 KCAL/MOL
REMARK 927      BINDING AFFINITY PREDICTED BY RF-SCORE:    0.00 PKD
ROOT
HETATM    1  C   UNL     1      -8.107  10.108  66.173  1.00  0.00    -0.123 C  
HETATM    2  S   UNL     1      -9.393   9.215  65.272  1.00  0.00    -0.072 SA 
HETATM    3  CG2 UNL     1     -10.030  10.706  64.479  1.00  0.00    -0.345 C  
HETATM    4  CB  UNL     1     -10.263  11.887  65.418  1.00  0.00    -0.300 C  
HETATM    5  CA  UNL     1      -7.599   9.402  67.470  1.00  0.00    -0.091 C  
HETATM    6  CA  UNL     1      -9.632  12.041  66.620  1.00  0.00    -0.216 C  
HETATM    7  N   UNL     1      -8.726  11.099  67.035  1.00  0.00    -0.144 N  
HETATM    8  O   UNL     1      -8.226  11.138  69.297  1.00  0.00    -0.058 OA 
HETATM    9  C   UNL     1      -9.912  13.259  67.483  1.00  0.00    -0.223 C  
HETATM   10  C   UNL     1      -8.136  10.693  68.177  1.00  0.00    -0.114 C  
HETATM   11  O   UNL     1      -9.652  13.162  68.800  1.00  0.00    -0.078 OA 
HETATM   12  OXT UNL     1     -10.339  14.316  67.037  1.00  0.00    -0.263 OA 
ENDROOT
BRANCH   4  13
HETATM   13  CG1 UNL     1     -11.318  12.783  64.924  1.00  0.00    -0.341 C  
HETATM   14  CD1 UNL     1     -12.608  12.468  64.743  1.00  0.00    -0.493 C  
ENDBRANCH   4  13
BRANCH   5  15
HETATM   15  N   UNL     1      -8.307   8.157  67.857  1.00  0.00    -0.128 N  
HETATM   16  H   UNL     1      -8.918   7.716  67.169  1.00  0.00     0.000 HD 
HETATM   17  C   UNL     1      -8.186   7.566  69.088  1.00  0.00    -0.131 C  
HETATM   18  O   UNL     1      -7.490   8.012  69.990  1.00  0.00    -0.071 OA 
BRANCH  17  19
HETATM   19  C   UNL     1      -9.035   6.304  69.302  1.00  0.00    -0.125 C  
BRANCH  19  20
HETATM   20  N   UNL     1     -10.343   6.278  69.231  1.00  0.00    -0.198 NA 
HETATM   21  H   UNL     1     -11.934   7.276  69.891  1.00  0.00     0.000 HD 
HETATM   22  O   UNL     1     -10.985   7.295  69.942  1.00  0.00    -0.255 OA 
HETATM   23  H   UNL     1     -10.852   5.572  68.700  1.00  0.00     0.000 HD 
ENDBRANCH  19  20
BRANCH  19  24
HETATM   24  C   UNL     1      -8.379   5.039  69.642  1.00  0.00    -0.088 A  
HETATM   25  S   UNL     1      -7.632   2.602  69.679  1.00  0.00    -0.043 SA 
HETATM   26  C   UNL     1      -8.600   3.837  68.991  1.00  0.00    -0.080 A  
HETATM   27  C   UNL     1      -6.981   3.739  70.786  1.00  0.00    -0.033 A  
HETATM   28  N   UNL     1      -7.434   4.960  70.666  1.00  0.00    -0.063 NA 
HETATM   29  N   UNL     1      -6.084   3.376  71.714  1.00  0.00    -0.013 NA 
HETATM   30  H1  UNL     1      -5.697   4.052  72.372  1.00  0.00     0.000 HD 
HETATM   31  H2  UNL     1      -5.782   2.403  71.762  1.00  0.00     0.000 HD 
ENDBRANCH  19  24
ENDBRANCH  17  19
ENDBRANCH   5  15
TORSDOF 5
ENDMDL
MODEL      174
REMARK 921   NORMALIZED FREE ENERGY PREDICTED BY IDOCK:   -2.81 KCAL/MOL
REMARK 922        TOTAL FREE ENERGY PREDICTED BY IDOCK:   -4.49 KCAL/MOL
REMARK 923 INTER-LIGAND FREE ENERGY PREDICTED BY IDOCK:   -5.08 KCAL/MOL
REMARK 924 INTRA-LIGAND FREE ENERGY PREDICTED BY IDOCK:    0.59 KCAL/MOL
REMARK 927      BINDING AFFINITY PREDICTED BY RF-SCORE:    0.00 PKD
ROOT
HETATM    1  C   UNL     1      -7.228  10.331  67.188  1.00  0.00    -0.090 C  
HETATM    2  S   UNL     1      -7.697  11.115  68.746  1.00  0.00    -0.135 SA 
HETATM    3  CG2 UNL     1      -7.403   9.622  69.715  1.00  0.00    -0.104 C  
HETATM    4  CB  UNL     1      -8.019   8.349  69.143  1.00  0.00    -0.110 C  
HETATM    5  CA  UNL     1      -7.832  10.991  65.908  1.00  0.00    -0.034 C  
HETATM    6  CA  UNL     1      -8.341   8.183  67.825  1.00  0.00    -0.128 C  
HETATM    7  N   UNL     1      -8.102   9.200  66.937  1.00  0.00    -0.111 N  
HETATM    8  O   UNL     1      -9.246   9.045  64.928  1.00  0.00    -0.151 OA 
HETATM    9  C   UNL     1      -8.936   6.873  67.339  1.00  0.00    -0.116 C  
HETATM   10  C   UNL     1      -8.499   9.588  65.708  1.00  0.00    -0.134 C  
HETATM   11  O   UNL     1      -9.641   6.897  66.193  1.00  0.00    -0.085 OA 
HETATM   12  OXT UNL     1      -8.787   5.807  67.924  1.00  0.00    -0.111 OA 
ENDROOT
BRANCH   4  13
HETATM   13  CG1 UNL     1      -8.320   7.362  70.191  1.00  0.00    -0.136 C  
HETATM   14  CD1 UNL     1      -7.522   7.020  71.212  1.00  0.00    -0.081 C  
ENDBRANCH   4  13
BRANCH   5  15
HETATM   15  N   UNL     1      -8.797  12.096  66.137  1.00  0.00    -0.402 N  
HETATM   16  H   UNL     1      -8.428  13.035  66.286  1.00  0.00     0.000 HD 
HETATM   17  C   UNL     1     -10.157  11.924  66.158  1.00  0.00    -0.228 C  
HETATM   18  O   UNL     1     -10.707  10.843  65.999  1.00  0.00    -0.224 OA 
BRANCH  17  19
HETATM   19  C   UNL     1     -10.978  13.188  66.451  1.00  0.00    -0.288 C  
BRANCH  19  20
HETATM   20  N   UNL     1     -12.249  13.321  66.165  1.00  0.00    -0.420 NA 
HETATM   21  H   UNL     1     -13.461  13.456  64.591  1.00  0.00     0.000 HD 
HETATM   22  O   UNL     1     -12.539  13.360  64.799  1.00  0.00    -0.578 OA 
HETATM   23  H   UNL     1     -12.970  13.391  66.883  1.00  0.00     0.000 HD 
ENDBRANCH  19  20
BRANCH  19  24
HETATM   24  C   UNL     1     -10.324  14.352  67.054  1.00  0.00    -0.263 A  
HETATM   25  S   UNL     1      -9.523  16.718  67.564  1.00  0.00    -0.239 SA 
HETATM   26  C   UNL     1     -10.419  15.647  66.573  1.00  0.00    -0.302 A  
HETATM   27  C   UNL     1      -9.073  15.401  68.566  1.00  0.00    -0.197 A  
HETATM   28  N   UNL     1      -9.551  14.237  68.210  1.00  0.00    -0.215 NA 
HETATM   29  N   UNL     1      -8.272  15.572  69.628  1.00  0.00    -0.195 NA 
HETATM   30  H1  UNL     1      -8.004  14.789  70.224  1.00  0.00     0.000 HD 
HETATM   31  H2  UNL     1      -7.922  16.506  69.843  1.00  0.00     0.000 HD 
ENDBRANCH  19  24
ENDBRANCH  17  19
ENDBRANCH   5  15
TORSDOF 5
ENDMDL
MODEL      175
REMARK 921   NORMALIZED FREE ENERGY PREDICTED BY IDOCK:   -2.78 KCAL/MOL
REMARK 922        TOTAL FREE ENERGY PREDICTED BY IDOCK:   -4.46 KCAL/MOL
REMARK 923 INTER-LIGAND FREE ENERGY PREDICTED BY IDOCK:   -3.94 KCAL/MOL
REMARK 924 INTRA-LIGAND FREE ENERGY PREDICTED BY IDOCK:   -0.51 KCAL/MOL
REMARK 927      BINDING AFFINITY PREDICTED BY RF-SCORE:    0.00 PKD
ROOT
HETATM    1  C   UNL     1      -6.822  12.035  67.516  1.00  0.00    -0.128 C  
HETATM    2  S   UNL     1      -7.523  12.538  69.103  1.00  0.00     0.287 SA 
HETATM    3  CG2 UNL     1      -6.278  11.650  70.061  1.00  0.00    -0.140 C  
HETATM    4  CB  UNL     1      -6.028  10.211  69.618  1.00  0.00    -0.044 C  
HETATM    5  CA  UNL     1      -7.826  12.045  66.319  1.00  0.00     0.375 C  
HETATM    6  CA  UNL     1      -6.304   9.740  68.365  1.00  0.00    -0.054 C  
HETATM    7  N   UNL     1      -6.831  10.587  67.425  1.00  0.00    -0.075 N  
HETATM    8  O   UNL     1      -7.822   9.548  65.605  1.00  0.00    -0.098 OA 
HETATM    9  C   UNL     1      -6.006   8.295  68.005  1.00  0.00    -0.043 C  
HETATM   10  C   UNL     1      -7.499  10.514  66.255  1.00  0.00    -0.133 C  
HETATM   11  O   UNL     1      -6.682   7.758  66.973  1.00  0.00    -0.064 OA 
HETATM   12  OXT UNL     1      -5.175   7.612  68.592  1.00  0.00    -0.024 OA 
ENDROOT
BRANCH   4  13
HETATM   13  CG1 UNL     1      -5.552   9.368  70.724  1.00  0.00    -0.046 C  
HETATM   14  CD1 UNL     1      -6.291   8.900  71.740  1.00  0.00    -0.070 C  
ENDBRANCH   4  13
BRANCH   5  15
HETATM   15  N   UNL     1      -9.239  12.353  66.653  1.00  0.00    -0.218 N  
HETATM   16  H   UNL     1      -9.550  12.205  67.613  1.00  0.00     0.000 HD 
HETATM   17  C   UNL     1     -10.149  12.824  65.742  1.00  0.00    -0.286 C  
HETATM   18  O   UNL     1      -9.887  13.029  64.565  1.00  0.00    -0.161 OA 
BRANCH  17  19
HETATM   19  C   UNL     1     -11.571  13.040  66.281  1.00  0.00    -0.360 C  
BRANCH  19  20
HETATM   20  N   UNL     1     -12.608  13.308  65.529  1.00  0.00    -0.473 NA 
HETATM   21  H   UNL     1     -13.483  12.697  63.848  1.00  0.00     0.000 HD 
HETATM   22  O   UNL     1     -12.730  12.502  64.394  1.00  0.00    -0.656 OA 
HETATM   23  H   UNL     1     -13.274  14.048  65.753  1.00  0.00     0.000 HD 
ENDBRANCH  19  20
BRANCH  19  24
HETATM   24  C   UNL     1     -11.814  12.984  67.725  1.00  0.00    -0.347 A  
HETATM   25  S   UNL     1     -12.270  12.181  70.101  1.00  0.00    -0.172 SA 
HETATM   26  C   UNL     1     -12.048  11.822  68.441  1.00  0.00    -0.029 A  
HETATM   27  C   UNL     1     -12.038  13.846  69.764  1.00  0.00    -0.345 A  
HETATM   28  N   UNL     1     -11.803  14.137  68.511  1.00  0.00    -0.348 NA 
HETATM   29  N   UNL     1     -12.113  14.772  70.732  1.00  0.00    -0.288 NA 
HETATM   30  H1  UNL     1     -11.975  15.763  70.532  1.00  0.00     0.000 HD 
HETATM   31  H2  UNL     1     -12.313  14.479  71.688  1.00  0.00     0.000 HD 
ENDBRANCH  19  24
ENDBRANCH  17  19
ENDBRANCH   5  15
TORSDOF 5
ENDMDL
MODEL      176
REMARK 921   NORMALIZED FREE ENERGY PREDICTED BY IDOCK:   -2.63 KCAL/MOL
REMARK 922        TOTAL FREE ENERGY PREDICTED BY IDOCK:   -4.25 KCAL/MOL
REMARK 923 INTER-LIGAND FREE ENERGY PREDICTED BY IDOCK:   -3.26 KCAL/MOL
REMARK 924 INTRA-LIGAND FREE ENERGY PREDICTED BY IDOCK:   -0.99 KCAL/MOL
REMARK 927      BINDING AFFINITY PREDICTED BY RF-SCORE:    0.00 PKD
ROOT
HETATM    1  C   UNL     1      -5.801   7.477  66.287  1.00  0.00    -0.037 C  
HETATM    2  S   UNL     1      -6.137   7.600  68.057  1.00  0.00    -0.042 SA 
HETATM    3  CG2 UNL     1      -6.112   5.813  68.300  1.00  0.00    -0.018 C  
HETATM    4  CB  UNL     1      -6.937   5.013  67.296  1.00  0.00    -0.065 C  
HETATM    5  CA  UNL     1      -6.275   8.700  65.439  1.00  0.00    -0.049 C  
HETATM    6  CA  UNL     1      -7.274   5.469  66.052  1.00  0.00    -0.076 C  
HETATM    7  N   UNL     1      -6.858   6.712  65.651  1.00  0.00    -0.047 N  
HETATM    8  O   UNL     1      -7.999   7.598  63.839  1.00  0.00    -0.131 OA 
HETATM    9  C   UNL     1      -8.085   4.597  65.109  1.00  0.00    -0.104 C  
HETATM   10  C   UNL     1      -7.174   7.636  64.722  1.00  0.00    -0.067 C  
HETATM   11  O   UNL     1      -8.769   5.211  64.126  1.00  0.00    -0.134 OA 
HETATM   12  OXT UNL     1      -8.127   3.375  65.190  1.00  0.00    -0.092 OA 
ENDROOT
BRANCH   4  13
HETATM   13  CG1 UNL     1      -7.410   3.741  67.859  1.00  0.00    -0.062 C  
HETATM   14  CD1 UNL     1      -8.358   3.590  68.795  1.00  0.00    -0.090 C  
ENDBRANCH   4  13
BRANCH   5  15
HETATM   15  N   UNL     1      -7.034   9.747  66.168  1.00  0.00    -0.092 N  
HETATM   16  H   UNL     1      -7.940   9.497  66.564  1.00  0.00     0.000 HD 
HETATM   17  C   UNL     1      -6.584  11.030  66.339  1.00  0.00    -0.126 C  
HETATM   18  O   UNL     1      -5.518  11.440  65.901  1.00  0.00    -0.243 OA 
BRANCH  17  19
HETATM   19  C   UNL     1      -7.539  11.971  67.089  1.00  0.00    -0.146 C  
BRANCH  19  20
HETATM   20  N   UNL     1      -7.164  12.805  68.026  1.00  0.00    -0.101 NA 
HETATM   21  H   UNL     1      -6.095  12.845  69.705  1.00  0.00     0.000 HD 
HETATM   22  O   UNL     1      -6.368  12.239  69.025  1.00  0.00    -0.074 OA 
HETATM   23  H   UNL     1      -7.431  13.789  68.026  1.00  0.00     0.000 HD 
ENDBRANCH  19  20
BRANCH  19  24
HETATM   24  C   UNL     1      -8.973  11.935  66.789  1.00  0.00    -0.196 A  
HETATM   25  S   UNL     1     -11.513  11.857  66.987  1.00  0.00    -0.284 SA 
HETATM   26  C   UNL     1      -9.976  11.865  67.742  1.00  0.00    -0.186 A  
HETATM   27  C   UNL     1     -10.753  11.952  65.453  1.00  0.00    -0.283 A  
HETATM   28  N   UNL     1      -9.446  11.994  65.478  1.00  0.00    -0.164 NA 
HETATM   29  N   UNL     1     -11.467  11.963  64.318  1.00  0.00    -0.355 NA 
HETATM   30  H1  UNL     1     -11.015  12.020  63.406  1.00  0.00     0.000 HD 
HETATM   31  H2  UNL     1     -12.485  11.914  64.369  1.00  0.00     0.000 HD 
ENDBRANCH  19  24
ENDBRANCH  17  19
ENDBRANCH   5  15
TORSDOF 5
ENDMDL
MODEL      177
REMARK 921   NORMALIZED FREE ENERGY PREDICTED BY IDOCK:   -2.49 KCAL/MOL
REMARK 922        TOTAL FREE ENERGY PREDICTED BY IDOCK:   -4.08 KCAL/MOL
REMARK 923 INTER-LIGAND FREE ENERGY PREDICTED BY IDOCK:   -4.78 KCAL/MOL
REMARK 924 INTRA-LIGAND FREE ENERGY PREDICTED BY IDOCK:    0.71 KCAL/MOL
REMARK 927      BINDING AFFINITY PREDICTED BY RF-SCORE:    0.00 PKD
ROOT
HETATM    1  C   UNL     1      -8.277  10.637  68.422  1.00  0.00    -0.125 C  
HETATM    2  S   UNL     1      -7.403   9.101  68.796  1.00  0.00    -0.076 SA 
HETATM    3  CG2 UNL     1      -6.392   9.182  67.304  1.00  0.00    -0.059 C  
HETATM    4  CB  UNL     1      -7.161   9.474  66.018  1.00  0.00    -0.092 C  
HETATM    5  CA  UNL     1      -9.683  10.775  69.088  1.00  0.00    -0.163 C  
HETATM    6  CA  UNL     1      -8.378  10.096  65.982  1.00  0.00    -0.130 C  
HETATM    7  N   UNL     1      -8.966  10.500  67.152  1.00  0.00    -0.140 N  
HETATM    8  O   UNL     1     -11.237  10.942  67.014  1.00  0.00    -0.303 OA 
HETATM    9  C   UNL     1      -9.064  10.362  64.653  1.00  0.00    -0.222 C  
HETATM   10  C   UNL     1     -10.188  10.843  67.607  1.00  0.00    -0.183 C  
HETATM   11  O   UNL     1     -10.398  10.540  64.667  1.00  0.00    -0.344 OA 
HETATM   12  OXT UNL     1      -8.464  10.440  63.589  1.00  0.00    -0.170 OA 
ENDROOT
BRANCH   4  13
HETATM   13  CG1 UNL     1      -6.489   8.917  64.835  1.00  0.00    -0.066 C  
HETATM   14  CD1 UNL     1      -6.395   7.620  64.512  1.00  0.00    -0.044 C  
ENDBRANCH   4  13
BRANCH   5  15
HETATM   15  N   UNL     1     -10.168   9.593  69.844  1.00  0.00    -0.228 N  
HETATM   16  H   UNL     1     -10.168   9.639  70.863  1.00  0.00     0.000 HD 
HETATM   17  C   UNL     1     -10.614   8.442  69.246  1.00  0.00    -0.182 C  
HETATM   18  O   UNL     1     -10.649   8.275  68.035  1.00  0.00    -0.201 OA 
BRANCH  17  19
HETATM   19  C   UNL     1     -11.034   7.320  70.207  1.00  0.00    -0.260 C  
BRANCH  19  20
HETATM   20  N   UNL     1     -12.205   7.251  70.789  1.00  0.00    -0.533 NA 
HETATM   21  H   UNL     1     -13.058   7.563  72.561  1.00  0.00     0.000 HD 
HETATM   22  O   UNL     1     -12.208   7.613  72.139  1.00  0.00    -0.296 OA 
HETATM   23  H   UNL     1     -13.048   6.956  70.297  1.00  0.00     0.000 HD 
ENDBRANCH  19  20
BRANCH  19  24
HETATM   24  C   UNL     1     -10.079   6.262  70.546  1.00  0.00    -0.189 A  
HETATM   25  S   UNL     1      -8.068   4.974  71.439  1.00  0.00    -0.114 SA 
HETATM   26  C   UNL     1      -8.892   6.461  71.231  1.00  0.00    -0.138 A  
HETATM   27  C   UNL     1      -9.336   4.165  70.614  1.00  0.00    -0.148 A  
HETATM   28  N   UNL     1     -10.318   4.928  70.210  1.00  0.00    -0.232 NA 
HETATM   29  N   UNL     1      -9.295   2.843  70.395  1.00  0.00    -0.145 NA 
HETATM   30  H1  UNL     1     -10.049   2.362  69.904  1.00  0.00     0.000 HD 
HETATM   31  H2  UNL     1      -8.493   2.307  70.726  1.00  0.00     0.000 HD 
ENDBRANCH  19  24
ENDBRANCH  17  19
ENDBRANCH   5  15
TORSDOF 5
ENDMDL
MODEL      178
REMARK 921   NORMALIZED FREE ENERGY PREDICTED BY IDOCK:   -2.48 KCAL/MOL
REMARK 922        TOTAL FREE ENERGY PREDICTED BY IDOCK:   -4.06 KCAL/MOL
REMARK 923 INTER-LIGAND FREE ENERGY PREDICTED BY IDOCK:   -4.91 KCAL/MOL
REMARK 924 INTRA-LIGAND FREE ENERGY PREDICTED BY IDOCK:    0.84 KCAL/MOL
REMARK 927      BINDING AFFINITY PREDICTED BY RF-SCORE:    0.00 PKD
ROOT
HETATM    1  C   UNL     1     -11.555  15.159  66.247  1.00  0.00    -0.080 C  
HETATM    2  S   UNL     1     -12.515  13.663  66.571  1.00  0.00    -0.180 SA 
HETATM    3  CG2 UNL     1     -12.631  13.987  68.343  1.00  0.00     0.571 C  
HETATM    4  CB  UNL     1     -11.314  14.358  69.019  1.00  0.00    -0.297 C  
HETATM    5  CA  UNL     1     -10.678  15.113  64.956  1.00  0.00    -0.430 C  
HETATM    6  CA  UNL     1     -10.240  14.884  68.358  1.00  0.00    -0.231 C  
HETATM    7  N   UNL     1     -10.320  15.109  67.008  1.00  0.00    -0.266 N  
HETATM    8  O   UNL     1      -8.286  15.387  65.932  1.00  0.00     0.310 OA 
HETATM    9  C   UNL     1      -8.973  15.242  69.115  1.00  0.00    -0.233 C  
HETATM   10  C   UNL     1      -9.492  15.304  65.962  1.00  0.00    -0.337 C  
HETATM   11  O   UNL     1      -7.827  15.313  68.413  1.00  0.00    -0.116 OA 
HETATM   12  OXT UNL     1      -8.951  15.483  70.316  1.00  0.00     0.279 OA 
ENDROOT
BRANCH   4  13
HETATM   13  CG1 UNL     1     -11.302  13.990  70.442  1.00  0.00     0.006 C  
HETATM   14  CD1 UNL     1     -12.055  14.532  71.409  1.00  0.00    -0.420 C  
ENDBRANCH   4  13
BRANCH   5  15
HETATM   15  N   UNL     1     -10.655  13.820  64.227  1.00  0.00    -0.573 N  
HETATM   16  H   UNL     1     -11.085  13.780  63.303  1.00  0.00     0.000 HD 
HETATM   17  C   UNL     1     -10.087  12.677  64.727  1.00  0.00    -0.217 C  
HETATM   18  O   UNL     1      -9.551  12.609  65.825  1.00  0.00    -0.215 OA 
BRANCH  17  19
HETATM   19  C   UNL     1     -10.205  11.434  63.832  1.00  0.00    -0.363 C  
BRANCH  19  20
HETATM   20  N   UNL     1     -11.140  11.265  62.931  1.00  0.00    -0.766 NA 
HETATM   21  H   UNL     1     -13.051  11.712  62.601  1.00  0.00     0.000 HD 
HETATM   22  O   UNL     1     -12.373  11.835  63.256  1.00  0.00    -0.518 OA 
HETATM   23  H   UNL     1     -10.980  10.757  62.061  1.00  0.00     0.000 HD 
ENDBRANCH  19  20
BRANCH  19  24
HETATM   24  C   UNL     1      -9.252  10.333  63.992  1.00  0.00    -0.271 A  
HETATM   25  S   UNL     1      -8.069   8.215  64.773  1.00  0.00    -0.137 SA 
HETATM   26  C   UNL     1      -9.381   9.307  64.913  1.00  0.00    -0.073 A  
HETATM   27  C   UNL     1      -7.421   9.167  63.503  1.00  0.00    -0.102 A  
HETATM   28  N   UNL     1      -8.119  10.225  63.184  1.00  0.00    -0.156 NA 
HETATM   29  N   UNL     1      -6.266   8.840  62.904  1.00  0.00    -0.090 NA 
HETATM   30  H1  UNL     1      -5.881   9.407  62.148  1.00  0.00     0.000 HD 
HETATM   31  H2  UNL     1      -5.763   8.008  63.210  1.00  0.00     0.000 HD 
ENDBRANCH  19  24
ENDBRANCH  17  19
ENDBRANCH   5  15
TORSDOF 5
ENDMDL
MODEL      179
REMARK 921   NORMALIZED FREE ENERGY PREDICTED BY IDOCK:   -2.47 KCAL/MOL
REMARK 922        TOTAL FREE ENERGY PREDICTED BY IDOCK:   -4.06 KCAL/MOL
REMARK 923 INTER-LIGAND FREE ENERGY PREDICTED BY IDOCK:   -3.08 KCAL/MOL
REMARK 924 INTRA-LIGAND FREE ENERGY PREDICTED BY IDOCK:   -0.98 KCAL/MOL
REMARK 927      BINDING AFFINITY PREDICTED BY RF-SCORE:    0.00 PKD
ROOT
HETATM    1  C   UNL     1      -5.798   8.813  67.244  1.00  0.00    -0.043 C  
HETATM    2  S   UNL     1      -7.283   9.114  66.261  1.00  0.00    -0.092 SA 
HETATM    3  CG2 UNL     1      -7.174  10.906  66.441  1.00  0.00    -0.140 C  
HETATM    4  CB  UNL     1      -6.940  11.399  67.866  1.00  0.00    -0.073 C  
HETATM    5  CA  UNL     1      -5.721   7.400  67.906  1.00  0.00    -0.030 C  
HETATM    6  CA  UNL     1      -6.380  10.638  68.854  1.00  0.00    -0.045 C  
HETATM    7  N   UNL     1      -5.989   9.353  68.578  1.00  0.00    -0.044 N  
HETATM    8  O   UNL     1      -5.663   8.002  70.432  1.00  0.00    -0.026 OA 
HETATM    9  C   UNL     1      -6.169  11.217  70.242  1.00  0.00    -0.134 C  
HETATM   10  C   UNL     1      -5.701   8.216  69.243  1.00  0.00    -0.031 C  
HETATM   11  O   UNL     1      -6.057  10.351  71.266  1.00  0.00    -0.322 OA 
HETATM   12  OXT UNL     1      -6.077  12.417  70.464  1.00  0.00    -0.189 OA 
ENDROOT
BRANCH   4  13
HETATM   13  CG1 UNL     1      -7.480  12.750  68.078  1.00  0.00    -0.122 C  
HETATM   14  CD1 UNL     1      -8.750  13.137  67.889  1.00  0.00    -0.192 C  
ENDBRANCH   4  13
BRANCH   5  15
HETATM   15  N   UNL     1      -6.914   6.534  67.739  1.00  0.00    -0.080 N  
HETATM   16  H   UNL     1      -7.663   6.858  67.127  1.00  0.00     0.000 HD 
HETATM   17  C   UNL     1      -7.065   5.322  68.362  1.00  0.00    -0.062 C  
HETATM   18  O   UNL     1      -6.236   4.841  69.122  1.00  0.00    -0.028 OA 
BRANCH  17  19
HETATM   19  C   UNL     1      -8.393   4.600  68.089  1.00  0.00    -0.094 C  
BRANCH  19  20
HETATM   20  N   UNL     1      -9.281   4.321  69.011  1.00  0.00    -0.132 NA 
HETATM   21  H   UNL     1     -10.734   5.194  70.055  1.00  0.00     0.000 HD 
HETATM   22  O   UNL     1     -10.089   5.396  69.386  1.00  0.00    -0.191 OA 
HETATM   23  H   UNL     1      -9.373   3.392  69.422  1.00  0.00     0.000 HD 
ENDBRANCH  19  20
BRANCH  19  24
HETATM   24  C   UNL     1      -8.705   4.149  66.731  1.00  0.00    -0.114 A  
HETATM   25  S   UNL     1      -9.347   2.736  64.708  1.00  0.00    -0.123 SA 
HETATM   26  C   UNL     1      -9.043   2.850  66.389  1.00  0.00    -0.135 A  
HETATM   27  C   UNL     1      -9.016   4.411  64.543  1.00  0.00    -0.151 A  
HETATM   28  N   UNL     1      -8.706   5.033  65.651  1.00  0.00    -0.134 NA 
HETATM   29  N   UNL     1      -9.062   5.018  63.347  1.00  0.00    -0.349 NA 
HETATM   30  H1  UNL     1      -8.865   6.014  63.249  1.00  0.00     0.000 HD 
HETATM   31  H2  UNL     1      -9.298   4.472  62.519  1.00  0.00     0.000 HD 
ENDBRANCH  19  24
ENDBRANCH  17  19
ENDBRANCH   5  15
TORSDOF 5
ENDMDL
MODEL      180
REMARK 921   NORMALIZED FREE ENERGY PREDICTED BY IDOCK:   -2.47 KCAL/MOL
REMARK 922        TOTAL FREE ENERGY PREDICTED BY IDOCK:   -4.05 KCAL/MOL
REMARK 923 INTER-LIGAND FREE ENERGY PREDICTED BY IDOCK:   -4.94 KCAL/MOL
REMARK 924 INTRA-LIGAND FREE ENERGY PREDICTED BY IDOCK:    0.90 KCAL/MOL
REMARK 927      BINDING AFFINITY PREDICTED BY RF-SCORE:    0.00 PKD
ROOT
HETATM    1  C   UNL     1      -5.826   8.582  65.828  1.00  0.00    -0.047 C  
HETATM    2  S   UNL     1      -6.298   9.023  67.515  1.00  0.00    -0.064 SA 
HETATM    3  CG2 UNL     1      -6.121   7.334  68.126  1.00  0.00    -0.031 C  
HETATM    4  CB  UNL     1      -6.793   6.265  67.269  1.00  0.00    -0.066 C  
HETATM    5  CA  UNL     1      -6.351   9.550  64.721  1.00  0.00    -0.083 C  
HETATM    6  CA  UNL     1      -7.082   6.421  65.942  1.00  0.00    -0.066 C  
HETATM    7  N   UNL     1      -6.757   7.595  65.313  1.00  0.00    -0.044 N  
HETATM    8  O   UNL     1      -7.844   7.969  63.301  1.00  0.00    -0.136 OA 
HETATM    9  C   UNL     1      -7.737   5.295  65.162  1.00  0.00    -0.085 C  
HETATM   10  C   UNL     1      -7.092   8.273  64.197  1.00  0.00    -0.083 C  
HETATM   11  O   UNL     1      -8.404   5.621  64.039  1.00  0.00    -0.127 OA 
HETATM   12  OXT UNL     1      -7.669   4.118  65.493  1.00  0.00    -0.084 OA 
ENDROOT
BRANCH   4  13
HETATM   13  CG1 UNL     1      -7.183   5.089  68.061  1.00  0.00    -0.067 C  
HETATM   14  CD1 UNL     1      -8.233   5.002  68.890  1.00  0.00    -0.084 C  
ENDBRANCH   4  13
BRANCH   5  15
HETATM   15  N   UNL     1      -7.257  10.635  65.177  1.00  0.00    -0.342 N  
HETATM   16  H   UNL     1      -6.864  11.567  65.307  1.00  0.00     0.000 HD 
HETATM   17  C   UNL     1      -8.591  10.451  65.434  1.00  0.00    -0.174 C  
HETATM   18  O   UNL     1      -9.163   9.376  65.321  1.00  0.00    -0.224 OA 
BRANCH  17  19
HETATM   19  C   UNL     1      -9.343  11.693  65.936  1.00  0.00    -0.218 C  
BRANCH  19  20
HETATM   20  N   UNL     1      -9.150  12.245  67.108  1.00  0.00    -0.186 NA 
HETATM   21  H   UNL     1      -8.221  11.895  68.833  1.00  0.00     0.000 HD 
HETATM   22  O   UNL     1      -8.361  11.494  67.983  1.00  0.00    -0.132 OA 
HETATM   23  H   UNL     1      -9.544  13.151  67.361  1.00  0.00     0.000 HD 
ENDBRANCH  19  20
BRANCH  19  24
HETATM   24  C   UNL     1     -10.374  12.304  65.093  1.00  0.00    -0.286 A  
HETATM   25  S   UNL     1     -12.316  12.677  63.485  1.00  0.00    -0.434 SA 
HETATM   26  C   UNL     1     -11.266  11.599  64.303  1.00  0.00    -0.319 A  
HETATM   27  C   UNL     1     -11.527  14.002  64.233  1.00  0.00    -0.297 A  
HETATM   28  N   UNL     1     -10.550  13.688  65.045  1.00  0.00    -0.359 NA 
HETATM   29  N   UNL     1     -11.890  15.268  63.976  1.00  0.00    -0.906 NA 
HETATM   30  H1  UNL     1     -11.420  16.056  64.422  1.00  0.00     0.000 HD 
HETATM   31  H2  UNL     1     -12.652  15.445  63.322  1.00  0.00     0.000 HD 
ENDBRANCH  19  24
ENDBRANCH  17  19
ENDBRANCH   5  15
TORSDOF 5
ENDMDL
MODEL      181
REMARK 921   NORMALIZED FREE ENERGY PREDICTED BY IDOCK:   -2.46 KCAL/MOL
REMARK 922        TOTAL FREE ENERGY PREDICTED BY IDOCK:   -4.03 KCAL/MOL
REMARK 923 INTER-LIGAND FREE ENERGY PREDICTED BY IDOCK:   -3.31 KCAL/MOL
REMARK 924 INTRA-LIGAND FREE ENERGY PREDICTED BY IDOCK:   -0.72 KCAL/MOL
REMARK 927      BINDING AFFINITY PREDICTED BY RF-SCORE:    0.00 PKD
ROOT
HETATM    1  C   UNL     1      -8.309  15.287  68.818  1.00  0.00    -0.179 C  
HETATM    2  S   UNL     1      -7.102  15.085  67.490  1.00  0.00    -0.180 SA 
HETATM    3  CG2 UNL     1      -6.799  16.857  67.343  1.00  0.00    -0.153 C  
HETATM    4  CB  UNL     1      -8.053  17.724  67.276  1.00  0.00    -0.223 C  
HETATM    5  CA  UNL     1      -9.335  14.119  68.962  1.00  0.00     0.086 C  
HETATM    6  CA  UNL     1      -9.273  17.337  67.757  1.00  0.00    -0.239 C  
HETATM    7  N   UNL     1      -9.410  16.107  68.345  1.00  0.00    -0.201 N  
HETATM    8  O   UNL     1     -11.588  15.337  68.529  1.00  0.00    -0.328 OA 
HETATM    9  C   UNL     1     -10.466  18.273  67.663  1.00  0.00    -0.411 C  
HETATM   10  C   UNL     1     -10.390  15.237  68.660  1.00  0.00    -0.232 C  
HETATM   11  O   UNL     1     -11.693  17.723  67.712  1.00  0.00     0.757 OA 
HETATM   12  OXT UNL     1     -10.362  19.490  67.567  1.00  0.00    -0.387 OA 
ENDROOT
BRANCH   4  13
HETATM   13  CG1 UNL     1      -7.819  18.977  66.545  1.00  0.00    -0.279 C  
HETATM   14  CD1 UNL     1      -6.823  19.848  66.759  1.00  0.00    -0.232 C  
ENDBRANCH   4  13
BRANCH   5  15
HETATM   15  N   UNL     1      -9.263  13.055  67.929  1.00  0.00    -0.200 N  
HETATM   16  H   UNL     1      -9.635  13.258  67.001  1.00  0.00     0.000 HD 
HETATM   17  C   UNL     1      -8.723  11.815  68.154  1.00  0.00    -0.168 C  
HETATM   18  O   UNL     1      -8.256  11.462  69.228  1.00  0.00     0.032 OA 
BRANCH  17  19
HETATM   19  C   UNL     1      -8.782  10.844  66.965  1.00  0.00    -0.141 C  
BRANCH  19  20
HETATM   20  N   UNL     1      -9.893  10.393  66.439  1.00  0.00    -0.204 NA 
HETATM   21  H   UNL     1     -11.535   9.390  66.951  1.00  0.00     0.000 HD 
HETATM   22  O   UNL     1     -10.728   9.717  67.332  1.00  0.00    -0.268 OA 
HETATM   23  H   UNL     1     -10.130  10.525  65.456  1.00  0.00     0.000 HD 
ENDBRANCH  19  20
BRANCH  19  24
HETATM   24  C   UNL     1      -7.537  10.342  66.379  1.00  0.00    -0.117 A  
HETATM   25  S   UNL     1      -5.337  10.142  65.105  1.00  0.00    -0.092 SA 
HETATM   26  C   UNL     1      -6.688  11.084  65.576  1.00  0.00     0.208 A  
HETATM   27  C   UNL     1      -5.960   8.817  65.998  1.00  0.00    -0.051 A  
HETATM   28  N   UNL     1      -7.091   9.041  66.617  1.00  0.00    -0.081 NA 
HETATM   29  N   UNL     1      -5.325   7.637  66.033  1.00  0.00    -0.028 NA 
HETATM   30  H1  UNL     1      -5.696   6.849  66.564  1.00  0.00     0.000 HD 
HETATM   31  H2  UNL     1      -4.453   7.524  65.517  1.00  0.00     0.000 HD 
ENDBRANCH  19  24
ENDBRANCH  17  19
ENDBRANCH   5  15
TORSDOF 5
ENDMDL
MODEL      182
REMARK 921   NORMALIZED FREE ENERGY PREDICTED BY IDOCK:   -2.45 KCAL/MOL
REMARK 922        TOTAL FREE ENERGY PREDICTED BY IDOCK:   -4.03 KCAL/MOL
REMARK 923 INTER-LIGAND FREE ENERGY PREDICTED BY IDOCK:   -4.02 KCAL/MOL
REMARK 924 INTRA-LIGAND FREE ENERGY PREDICTED BY IDOCK:   -0.01 KCAL/MOL
REMARK 927      BINDING AFFINITY PREDICTED BY RF-SCORE:    0.00 PKD
ROOT
HETATM    1  C   UNL     1      -6.159   7.876  65.667  1.00  0.00    -0.038 C  
HETATM    2  S   UNL     1      -6.978   7.627  67.257  1.00  0.00    -0.086 SA 
HETATM    3  CG2 UNL     1      -6.887   5.828  67.150  1.00  0.00    -0.064 C  
HETATM    4  CB  UNL     1      -7.339   5.237  65.818  1.00  0.00    -0.080 C  
HETATM    5  CA  UNL     1      -6.471   9.238  64.970  1.00  0.00    -0.070 C  
HETATM    6  CA  UNL     1      -7.354   5.932  64.641  1.00  0.00    -0.070 C  
HETATM    7  N   UNL     1      -6.937   7.238  64.622  1.00  0.00    -0.050 N  
HETATM    8  O   UNL     1      -7.597   8.457  62.764  1.00  0.00    -0.106 OA 
HETATM    9  C   UNL     1      -7.804   5.258  63.357  1.00  0.00    -0.087 C  
HETATM   10  C   UNL     1      -7.054   8.328  63.836  1.00  0.00    -0.087 C  
HETATM   11  O   UNL     1      -8.234   6.049  62.356  1.00  0.00    -0.101 OA 
HETATM   12  OXT UNL     1      -7.775   4.046  63.186  1.00  0.00    -0.063 OA 
ENDROOT
BRANCH   4  13
HETATM   13  CG1 UNL     1      -7.853   3.868  65.968  1.00  0.00    -0.090 C  
HETATM   14  CD1 UNL     1      -9.001   3.510  66.560  1.00  0.00    -0.154 C  
ENDBRANCH   4  13
BRANCH   5  15
HETATM   15  N   UNL     1      -7.479  10.099  65.639  1.00  0.00    -0.138 N  
HETATM   16  H   UNL     1      -8.464   9.858  65.533  1.00  0.00     0.000 HD 
HETATM   17  C   UNL     1      -7.157  11.199  66.391  1.00  0.00    -0.091 C  
HETATM   18  O   UNL     1      -6.011  11.583  66.578  1.00  0.00    -0.150 OA 
BRANCH  17  19
HETATM   19  C   UNL     1      -8.351  11.979  66.963  1.00  0.00    -0.178 C  
BRANCH  19  20
HETATM   20  N   UNL     1      -8.618  13.228  66.676  1.00  0.00    -0.431 NA 
HETATM   21  H   UNL     1     -10.173  14.436  66.384  1.00  0.00     0.000 HD 
HETATM   22  O   UNL     1      -9.979  13.529  66.593  1.00  0.00    -0.267 OA 
HETATM   23  H   UNL     1      -7.889  13.926  66.526  1.00  0.00     0.000 HD 
ENDBRANCH  19  20
BRANCH  19  24
HETATM   24  C   UNL     1      -9.248  11.327  67.921  1.00  0.00    -0.157 A  
HETATM   25  S   UNL     1     -10.183   9.996  69.884  1.00  0.00    -0.249 SA 
HETATM   26  C   UNL     1      -8.831  10.570  69.003  1.00  0.00    -0.169 A  
HETATM   27  C   UNL     1     -11.229  10.789  68.781  1.00  0.00    -0.272 A  
HETATM   28  N   UNL     1     -10.635  11.448  67.820  1.00  0.00    -0.187 NA 
HETATM   29  N   UNL     1     -12.562  10.713  68.904  1.00  0.00    -0.583 NA 
HETATM   30  H1  UNL     1     -13.184  11.185  68.248  1.00  0.00     0.000 HD 
HETATM   31  H2  UNL     1     -12.962  10.171  69.670  1.00  0.00     0.000 HD 
ENDBRANCH  19  24
ENDBRANCH  17  19
ENDBRANCH   5  15
TORSDOF 5
ENDMDL
MODEL      183
REMARK 921   NORMALIZED FREE ENERGY PREDICTED BY IDOCK:   -2.40 KCAL/MOL
REMARK 922        TOTAL FREE ENERGY PREDICTED BY IDOCK:   -3.96 KCAL/MOL
REMARK 923 INTER-LIGAND FREE ENERGY PREDICTED BY IDOCK:   -4.57 KCAL/MOL
REMARK 924 INTRA-LIGAND FREE ENERGY PREDICTED BY IDOCK:    0.61 KCAL/MOL
REMARK 927      BINDING AFFINITY PREDICTED BY RF-SCORE:    0.00 PKD
ROOT
HETATM    1  C   UNL     1     -10.940  10.568  67.340  1.00  0.00    -0.288 C  
HETATM    2  S   UNL     1      -9.822  11.001  68.692  1.00  0.00    -0.194 SA 
HETATM    3  CG2 UNL     1     -10.457  12.684  68.828  1.00  0.00    -0.143 C  
HETATM    4  CB  UNL     1     -10.580  13.436  67.505  1.00  0.00    -0.255 C  
HETATM    5  CA  UNL     1     -10.451   9.398  66.429  1.00  0.00    -0.095 C  
HETATM    6  CA  UNL     1     -10.690  12.824  66.288  1.00  0.00    -0.270 C  
HETATM    7  N   UNL     1     -10.698  11.455  66.217  1.00  0.00    -0.268 N  
HETATM    8  O   UNL     1     -10.252  10.573  64.121  1.00  0.00    -0.342 OA 
HETATM    9  C   UNL     1     -10.826  13.653  65.022  1.00  0.00    -0.352 C  
HETATM   10  C   UNL     1     -10.493  10.486  65.302  1.00  0.00    -0.162 C  
HETATM   11  O   UNL     1     -10.478  13.074  63.859  1.00  0.00    -0.392 OA 
HETATM   12  OXT UNL     1     -11.252  14.801  65.012  1.00  0.00    -0.356 OA 
ENDROOT
BRANCH   4  13
HETATM   13  CG1 UNL     1     -10.465  14.890  67.685  1.00  0.00    -0.249 C  
HETATM   14  CD1 UNL     1     -11.358  15.689  68.288  1.00  0.00    -0.357 C  
ENDBRANCH   4  13
BRANCH   5  15
HETATM   15  N   UNL     1      -9.094   8.870  66.715  1.00  0.00    -0.138 N  
HETATM   16  H   UNL     1      -9.014   8.032  67.292  1.00  0.00     0.000 HD 
HETATM   17  C   UNL     1      -7.941   9.446  66.246  1.00  0.00    -0.111 C  
HETATM   18  O   UNL     1      -7.919  10.454  65.554  1.00  0.00    -0.147 OA 
BRANCH  17  19
HETATM   19  C   UNL     1      -6.636   8.767  66.690  1.00  0.00    -0.064 C  
BRANCH  19  20
HETATM   20  N   UNL     1      -5.693   9.365  67.373  1.00  0.00    -0.041 NA 
HETATM   21  H   UNL     1      -5.470  10.688  68.845  1.00  0.00     0.000 HD 
HETATM   22  O   UNL     1      -6.154  10.254  68.348  1.00  0.00    -0.044 OA 
HETATM   23  H   UNL     1      -4.701   9.196  67.207  1.00  0.00     0.000 HD 
ENDBRANCH  19  20
BRANCH  19  24
HETATM   24  C   UNL     1      -6.380   7.375  66.313  1.00  0.00    -0.041 A  
HETATM   25  S   UNL     1      -5.259   5.137  65.828  1.00  0.00    -0.013 SA 
HETATM   26  C   UNL     1      -5.133   6.773  66.320  1.00  0.00    -0.017 A  
HETATM   27  C   UNL     1      -6.953   5.331  65.643  1.00  0.00    -0.066 A  
HETATM   28  N   UNL     1      -7.415   6.521  65.929  1.00  0.00    -0.079 NA 
HETATM   29  N   UNL     1      -7.729   4.324  65.217  1.00  0.00    -0.085 NA 
HETATM   30  H1  UNL     1      -8.737   4.440  65.107  1.00  0.00     0.000 HD 
HETATM   31  H2  UNL     1      -7.303   3.424  64.998  1.00  0.00     0.000 HD 
ENDBRANCH  19  24
ENDBRANCH  17  19
ENDBRANCH   5  15
TORSDOF 5
ENDMDL
MODEL      184
REMARK 921   NORMALIZED FREE ENERGY PREDICTED BY IDOCK:   -2.31 KCAL/MOL
REMARK 922        TOTAL FREE ENERGY PREDICTED BY IDOCK:   -3.85 KCAL/MOL
REMARK 923 INTER-LIGAND FREE ENERGY PREDICTED BY IDOCK:   -3.22 KCAL/MOL
REMARK 924 INTRA-LIGAND FREE ENERGY PREDICTED BY IDOCK:   -0.63 KCAL/MOL
REMARK 927      BINDING AFFINITY PREDICTED BY RF-SCORE:    0.00 PKD
ROOT
HETATM    1  C   UNL     1      -5.502   8.643  69.352  1.00  0.00    -0.034 C  
HETATM    2  S   UNL     1      -6.019  10.146  68.494  1.00  0.00    -0.040 SA 
HETATM    3  CG2 UNL     1      -5.152  11.235  69.643  1.00  0.00    -0.041 C  
HETATM    4  CB  UNL     1      -5.386  10.932  71.120  1.00  0.00    -0.070 C  
HETATM    5  CA  UNL     1      -6.427   7.405  69.131  1.00  0.00    -0.040 C  
HETATM    6  CA  UNL     1      -5.784   9.714  71.595  1.00  0.00    -0.030 C  
HETATM    7  N   UNL     1      -5.988   8.680  70.719  1.00  0.00    -0.032 N  
HETATM    8  O   UNL     1      -7.240   6.915  71.549  1.00  0.00    -0.077 OA 
HETATM    9  C   UNL     1      -5.976   9.498  73.086  1.00  0.00     0.379 C  
HETATM   10  C   UNL     1      -6.625   7.492  70.683  1.00  0.00    -0.043 C  
HETATM   11  O   UNL     1      -6.777   8.486  73.470  1.00  0.00    -0.182 OA 
HETATM   12  OXT UNL     1      -5.428  10.180  73.943  1.00  0.00    -0.334 OA 
ENDROOT
BRANCH   4  13
HETATM   13  CG1 UNL     1      -5.233  12.130  71.959  1.00  0.00     0.224 C  
HETATM   14  CD1 UNL     1      -5.309  13.403  71.548  1.00  0.00    -0.186 C  
ENDBRANCH   4  13
BRANCH   5  15
HETATM   15  N   UNL     1      -7.664   7.646  68.346  1.00  0.00    -0.117 N  
HETATM   16  H   UNL     1      -8.233   8.460  68.580  1.00  0.00     0.000 HD 
HETATM   17  C   UNL     1      -8.083   6.834  67.324  1.00  0.00    -0.118 C  
HETATM   18  O   UNL     1      -7.484   5.830  66.965  1.00  0.00    -0.079 OA 
BRANCH  17  19
HETATM   19  C   UNL     1      -9.412   7.235  66.665  1.00  0.00    -0.177 C  
BRANCH  19  20
HETATM   20  N   UNL     1     -10.327   6.382  66.279  1.00  0.00    -0.438 NA 
HETATM   21  H   UNL     1     -12.131   5.725  66.805  1.00  0.00     0.000 HD 
HETATM   22  O   UNL     1     -11.467   6.344  67.086  1.00  0.00    -0.182 OA 
HETATM   23  H   UNL     1     -10.216   5.792  65.454  1.00  0.00     0.000 HD 
ENDBRANCH  19  20
BRANCH  19  24
HETATM   24  C   UNL     1      -9.692   8.649  66.404  1.00  0.00    -0.263 A  
HETATM   25  S   UNL     1     -10.418  11.083  66.630  1.00  0.00    -0.260 SA 
HETATM   26  C   UNL     1     -10.274   9.518  67.312  1.00  0.00    -0.234 A  
HETATM   27  C   UNL     1      -9.696  10.510  65.184  1.00  0.00    -0.282 A  
HETATM   28  N   UNL     1      -9.358   9.247  65.188  1.00  0.00    -0.219 NA 
HETATM   29  N   UNL     1      -9.516  11.316  64.126  1.00  0.00    -0.342 NA 
HETATM   30  H1  UNL     1      -9.087  10.975  63.266  1.00  0.00     0.000 HD 
HETATM   31  H2  UNL     1      -9.815  12.289  64.184  1.00  0.00     0.000 HD 
ENDBRANCH  19  24
ENDBRANCH  17  19
ENDBRANCH   5  15
TORSDOF 5
ENDMDL
MODEL      185
REMARK 921   NORMALIZED FREE ENERGY PREDICTED BY IDOCK:   -1.90 KCAL/MOL
REMARK 922        TOTAL FREE ENERGY PREDICTED BY IDOCK:   -3.32 KCAL/MOL
REMARK 923 INTER-LIGAND FREE ENERGY PREDICTED BY IDOCK:   -2.55 KCAL/MOL
REMARK 924 INTRA-LIGAND FREE ENERGY PREDICTED BY IDOCK:   -0.77 KCAL/MOL
REMARK 927      BINDING AFFINITY PREDICTED BY RF-SCORE:    0.00 PKD
ROOT
HETATM    1  C   UNL     1      -5.536   8.194  68.308  1.00  0.00    -0.034 C  
HETATM    2  S   UNL     1      -6.219   9.501  67.264  1.00  0.00    -0.065 SA 
HETATM    3  CG2 UNL     1      -5.525  10.825  68.274  1.00  0.00    -0.039 C  
HETATM    4  CB  UNL     1      -5.754  10.680  69.776  1.00  0.00    -0.050 C  
HETATM    5  CA  UNL     1      -6.293   6.830  68.236  1.00  0.00    -0.031 C  
HETATM    6  CA  UNL     1      -6.007   9.488  70.397  1.00  0.00    -0.055 C  
HETATM    7  N   UNL     1      -6.057   8.336  69.655  1.00  0.00    -0.029 N  
HETATM    8  O   UNL     1      -7.096   6.541  70.690  1.00  0.00    -0.065 OA 
HETATM    9  C   UNL     1      -6.206   9.434  71.901  1.00  0.00     0.111 C  
HETATM   10  C   UNL     1      -6.537   7.081  69.763  1.00  0.00    -0.044 C  
HETATM   11  O   UNL     1      -6.882   8.383  72.402  1.00  0.00    -0.091 OA 
HETATM   12  OXT UNL     1      -5.769  10.281  72.670  1.00  0.00    -0.190 OA 
ENDROOT
BRANCH   4  13
HETATM   13  CG1 UNL     1      -5.774  11.981  70.459  1.00  0.00    -0.159 C  
HETATM   14  CD1 UNL     1      -6.222  13.138  69.952  1.00  0.00    -0.094 C  
ENDBRANCH   4  13
BRANCH   5  15
HETATM   15  N   UNL     1      -7.530   6.811  67.417  1.00  0.00    -0.094 N  
HETATM   16  H   UNL     1      -8.181   7.591  67.509  1.00  0.00     0.000 HD 
HETATM   17  C   UNL     1      -7.846   5.802  66.544  1.00  0.00    -0.101 C  
HETATM   18  O   UNL     1      -7.144   4.817  66.361  1.00  0.00    -0.072 OA 
BRANCH  17  19
HETATM   19  C   UNL     1      -9.194   5.953  65.821  1.00  0.00    -0.041 C  
BRANCH  19  20
HETATM   20  N   UNL     1     -10.132   6.790  66.185  1.00  0.00    -0.407 NA 
HETATM   21  H   UNL     1     -11.511   7.028  67.601  1.00  0.00     0.000 HD 
HETATM   22  O   UNL     1     -10.829   6.420  67.337  1.00  0.00    -0.291 OA 
HETATM   23  H   UNL     1     -10.338   7.645  65.667  1.00  0.00     0.000 HD 
ENDBRANCH  19  20
BRANCH  19  24
HETATM   24  C   UNL     1      -9.497   5.097  64.671  1.00  0.00     0.271 A  
HETATM   25  S   UNL     1      -9.594   4.079  62.336  1.00  0.00    -0.122 SA 
HETATM   26  C   UNL     1      -9.024   5.305  63.387  1.00  0.00     0.180 A  
HETATM   27  C   UNL     1     -10.424   3.351  63.648  1.00  0.00    -0.254 A  
HETATM   28  N   UNL     1     -10.294   3.959  64.799  1.00  0.00    -0.201 NA 
HETATM   29  N   UNL     1     -11.165   2.246  63.480  1.00  0.00    -0.580 NA 
HETATM   30  H1  UNL     1     -11.658   1.813  64.261  1.00  0.00     0.000 HD 
HETATM   31  H2  UNL     1     -11.235   1.829  62.552  1.00  0.00     0.000 HD 
ENDBRANCH  19  24
ENDBRANCH  17  19
ENDBRANCH   5  15
TORSDOF 5
ENDMDL
MODEL      186
REMARK 921   NORMALIZED FREE ENERGY PREDICTED BY IDOCK:   -1.84 KCAL/MOL
REMARK 922        TOTAL FREE ENERGY PREDICTED BY IDOCK:   -3.24 KCAL/MOL
REMARK 923 INTER-LIGAND FREE ENERGY PREDICTED BY IDOCK:   -3.89 KCAL/MOL
REMARK 924 INTRA-LIGAND FREE ENERGY PREDICTED BY IDOCK:    0.65 KCAL/MOL
REMARK 927      BINDING AFFINITY PREDICTED BY RF-SCORE:    0.00 PKD
ROOT
HETATM    1  C   UNL     1     -11.781  10.834  67.707  1.00  0.00     0.111 C  
HETATM    2  S   UNL     1     -11.326  11.404  69.359  1.00  0.00    -0.312 SA 
HETATM    3  CG2 UNL     1     -11.719  13.127  68.995  1.00  0.00    -0.321 C  
HETATM    4  CB  UNL     1     -11.144  13.658  67.685  1.00  0.00    -0.293 C  
HETATM    5  CA  UNL     1     -11.106   9.499  67.260  1.00  0.00     0.182 C  
HETATM    6  CA  UNL     1     -10.788  12.863  66.631  1.00  0.00    -0.267 C  
HETATM    7  N   UNL     1     -10.951  11.505  66.723  1.00  0.00    -0.283 N  
HETATM    8  O   UNL     1      -9.752  10.261  65.179  1.00  0.00    -0.254 OA 
HETATM    9  C   UNL     1     -10.239  13.480  65.357  1.00  0.00    -0.302 C  
HETATM   10  C   UNL     1     -10.498  10.387  66.121  1.00  0.00    -0.154 C  
HETATM   11  O   UNL     1      -9.496  12.694  64.555  1.00  0.00     0.172 OA 
HETATM   12  OXT UNL     1     -10.455  14.637  65.021  1.00  0.00    -0.393 OA 
ENDROOT
BRANCH   4  13
HETATM   13  CG1 UNL     1     -10.923  15.110  67.729  1.00  0.00    -0.306 C  
HETATM   14  CD1 UNL     1     -11.844  16.047  67.995  1.00  0.00     0.146 C  
ENDBRANCH   4  13
BRANCH   5  15
HETATM   15  N   UNL     1     -10.099   8.932  68.192  1.00  0.00    -0.181 N  
HETATM   16  H   UNL     1     -10.410   8.239  68.874  1.00  0.00     0.000 HD 
HETATM   17  C   UNL     1      -8.776   9.288  68.188  1.00  0.00    -0.125 C  
HETATM   18  O   UNL     1      -8.297  10.113  67.422  1.00  0.00    -0.118 OA 
BRANCH  17  19
HETATM   19  C   UNL     1      -7.907   8.614  69.261  1.00  0.00    -0.101 C  
BRANCH  19  20
HETATM   20  N   UNL     1      -6.958   9.223  69.927  1.00  0.00    -0.056 NA 
HETATM   21  H   UNL     1      -6.643  10.891  70.967  1.00  0.00     0.000 HD 
HETATM   22  O   UNL     1      -7.331  10.449  70.484  1.00  0.00    -0.240 OA 
HETATM   23  H   UNL     1      -6.021   8.834  70.029  1.00  0.00     0.000 HD 
ENDBRANCH  19  20
BRANCH  19  24
HETATM   24  C   UNL     1      -8.100   7.193  69.561  1.00  0.00    -0.130 A  
HETATM   25  S   UNL     1      -7.797   4.669  69.751  1.00  0.00    -0.061 SA 
HETATM   26  C   UNL     1      -7.217   6.186  69.207  1.00  0.00    -0.082 A  
HETATM   27  C   UNL     1      -9.172   5.443  70.422  1.00  0.00    -0.153 A  
HETATM   28  N   UNL     1      -9.214   6.741  70.269  1.00  0.00    -0.156 NA 
HETATM   29  N   UNL     1     -10.135   4.745  71.041  1.00  0.00    -0.211 NA 
HETATM   30  H1  UNL     1     -10.953   5.205  71.440  1.00  0.00     0.000 HD 
HETATM   31  H2  UNL     1     -10.047   3.731  71.114  1.00  0.00     0.000 HD 
ENDBRANCH  19  24
ENDBRANCH  17  19
ENDBRANCH   5  15
TORSDOF 5
ENDMDL
MODEL      187
REMARK 921   NORMALIZED FREE ENERGY PREDICTED BY IDOCK:   -1.51 KCAL/MOL
REMARK 922        TOTAL FREE ENERGY PREDICTED BY IDOCK:   -2.81 KCAL/MOL
REMARK 923 INTER-LIGAND FREE ENERGY PREDICTED BY IDOCK:   -2.18 KCAL/MOL
REMARK 924 INTRA-LIGAND FREE ENERGY PREDICTED BY IDOCK:   -0.64 KCAL/MOL
REMARK 927      BINDING AFFINITY PREDICTED BY RF-SCORE:    0.00 PKD
ROOT
HETATM    1  C   UNL     1      -7.808  11.224  67.531  1.00  0.00    -0.123 C  
HETATM    2  S   UNL     1      -7.379   9.856  66.432  1.00  0.00    -0.104 SA 
HETATM    3  CG2 UNL     1      -7.542  10.856  64.939  1.00  0.00     0.335 C  
HETATM    4  CB  UNL     1      -8.816  11.692  64.858  1.00  0.00     0.395 C  
HETATM    5  CA  UNL     1      -8.383  10.800  68.919  1.00  0.00    -0.147 C  
HETATM    6  CA  UNL     1      -9.549  12.073  65.947  1.00  0.00    -0.223 C  
HETATM    7  N   UNL     1      -9.138  11.704  67.202  1.00  0.00    -0.167 N  
HETATM    8  O   UNL     1     -10.756  11.855  68.854  1.00  0.00    -0.221 OA 
HETATM    9  C   UNL     1     -10.797  12.921  65.773  1.00  0.00    -0.269 C  
HETATM   10  C   UNL     1      -9.651  11.588  68.443  1.00  0.00    -0.195 C  
HETATM   11  O   UNL     1     -11.712  12.891  66.760  1.00  0.00    -0.346 OA 
HETATM   12  OXT UNL     1     -10.995  13.636  64.799  1.00  0.00    -0.338 OA 
ENDROOT
BRANCH   4  13
HETATM   13  CG1 UNL     1      -9.217  11.951  63.467  1.00  0.00     0.183 C  
HETATM   14  CD1 UNL     1      -8.613  11.483  62.366  1.00  0.00     0.142 C  
ENDBRANCH   4  13
BRANCH   5  15
HETATM   15  N   UNL     1      -8.610   9.346  69.117  1.00  0.00    -0.134 N  
HETATM   16  H   UNL     1      -9.463   8.935  68.739  1.00  0.00     0.000 HD 
HETATM   17  C   UNL     1      -7.734   8.525  69.779  1.00  0.00    -0.092 C  
HETATM   18  O   UNL     1      -6.685   8.911  70.278  1.00  0.00    -0.038 OA 
BRANCH  17  19
HETATM   19  C   UNL     1      -8.173   7.059  69.910  1.00  0.00    -0.130 C  
BRANCH  19  20
HETATM   20  N   UNL     1      -9.044   6.480  69.122  1.00  0.00    -0.136 NA 
HETATM   21  H   UNL     1      -9.126   5.467  67.410  1.00  0.00     0.000 HD 
HETATM   22  O   UNL     1      -8.494   5.887  67.982  1.00  0.00    -0.111 OA 
HETATM   23  H   UNL     1     -10.044   6.464  69.323  1.00  0.00     0.000 HD 
ENDBRANCH  19  20
BRANCH  19  24
HETATM   24  C   UNL     1      -7.633   6.236  70.995  1.00  0.00    -0.090 A  
HETATM   25  S   UNL     1      -6.228   4.610  72.367  1.00  0.00    -0.022 SA 
HETATM   26  C   UNL     1      -6.554   5.377  70.870  1.00  0.00    -0.043 A  
HETATM   27  C   UNL     1      -7.529   5.468  73.081  1.00  0.00    -0.096 A  
HETATM   28  N   UNL     1      -8.172   6.279  72.281  1.00  0.00    -0.109 NA 
HETATM   29  N   UNL     1      -7.860   5.291  74.369  1.00  0.00    -0.095 NA 
HETATM   30  H1  UNL     1      -8.634   5.802  74.794  1.00  0.00     0.000 HD 
HETATM   31  H2  UNL     1      -7.325   4.633  74.935  1.00  0.00     0.000 HD 
ENDBRANCH  19  24
ENDBRANCH  17  19
ENDBRANCH   5  15
TORSDOF 5
ENDMDL
MODEL      188
REMARK 921   NORMALIZED FREE ENERGY PREDICTED BY IDOCK:   -1.45 KCAL/MOL
REMARK 922        TOTAL FREE ENERGY PREDICTED BY IDOCK:   -2.73 KCAL/MOL
REMARK 923 INTER-LIGAND FREE ENERGY PREDICTED BY IDOCK:   -1.90 KCAL/MOL
REMARK 924 INTRA-LIGAND FREE ENERGY PREDICTED BY IDOCK:   -0.84 KCAL/MOL
REMARK 927      BINDING AFFINITY PREDICTED BY RF-SCORE:    0.00 PKD
ROOT
HETATM    1  C   UNL     1      -8.531  14.225  68.800  1.00  0.00    -0.094 C  
HETATM    2  S   UNL     1      -7.288  14.469  67.512  1.00  0.00    -0.163 SA 
HETATM    3  CG2 UNL     1      -8.299  15.657  66.605  1.00  0.00    -0.275 C  
HETATM    4  CB  UNL     1      -9.745  15.229  66.371  1.00  0.00    -0.308 C  
HETATM    5  CA  UNL     1      -8.434  12.865  69.560  1.00  0.00     1.498 C  
HETATM    6  CA  UNL     1     -10.402  14.310  67.141  1.00  0.00    -0.262 C  
HETATM    7  N   UNL     1      -9.753  13.725  68.198  1.00  0.00    -0.222 N  
HETATM    8  O   UNL     1     -10.726  11.780  68.998  1.00  0.00    -0.214 OA 
HETATM    9  C   UNL     1     -11.849  13.956  66.846  1.00  0.00    -0.423 C  
HETATM   10  C   UNL     1      -9.872  12.635  68.983  1.00  0.00     0.297 C  
HETATM   11  O   UNL     1     -12.304  12.772  67.297  1.00  0.00    -0.335 OA 
HETATM   12  OXT UNL     1     -12.615  14.698  66.243  1.00  0.00    -0.151 OA 
ENDROOT
BRANCH   4  13
HETATM   13  CG1 UNL     1     -10.313  15.843  65.163  1.00  0.00    -0.284 C  
HETATM   14  CD1 UNL     1     -10.634  17.135  65.004  1.00  0.00     0.165 C  
ENDBRANCH   4  13
BRANCH   5  15
HETATM   15  N   UNL     1      -7.416  11.906  69.059  1.00  0.00    -0.290 N  
HETATM   16  H   UNL     1      -6.836  12.189  68.270  1.00  0.00     0.000 HD 
HETATM   17  C   UNL     1      -7.215  10.663  69.600  1.00  0.00    -0.139 C  
HETATM   18  O   UNL     1      -7.858  10.219  70.541  1.00  0.00    -0.109 OA 
BRANCH  17  19
HETATM   19  C   UNL     1      -6.140   9.809  68.909  1.00  0.00    -0.041 C  
BRANCH  19  20
HETATM   20  N   UNL     1      -5.133   9.251  69.532  1.00  0.00    -0.035 NA 
HETATM   21  H   UNL     1      -4.753   8.120  71.126  1.00  0.00     0.000 HD 
HETATM   22  O   UNL     1      -5.484   8.525  70.673  1.00  0.00    -0.028 OA 
HETATM   23  H   UNL     1      -4.169   9.339  69.210  1.00  0.00     0.000 HD 
ENDBRANCH  19  20
BRANCH  19  24
HETATM   24  C   UNL     1      -6.193   9.615  67.458  1.00  0.00    -0.056 A  
HETATM   25  S   UNL     1      -5.626   9.008  65.048  1.00  0.00    -0.054 SA 
HETATM   26  C   UNL     1      -5.168   9.081  66.696  1.00  0.00    -0.038 A  
HETATM   27  C   UNL     1      -7.151   9.682  65.450  1.00  0.00    -0.100 A  
HETATM   28  N   UNL     1      -7.330   9.944  66.719  1.00  0.00    -0.094 NA 
HETATM   29  N   UNL     1      -8.075   9.930  64.511  1.00  0.00    -0.142 NA 
HETATM   30  H1  UNL     1      -8.982  10.331  64.750  1.00  0.00     0.000 HD 
HETATM   31  H2  UNL     1      -7.867   9.714  63.536  1.00  0.00     0.000 HD 
ENDBRANCH  19  24
ENDBRANCH  17  19
ENDBRANCH   5  15
TORSDOF 5
ENDMDL
MODEL      189
REMARK 921   NORMALIZED FREE ENERGY PREDICTED BY IDOCK:   -0.90 KCAL/MOL
REMARK 922        TOTAL FREE ENERGY PREDICTED BY IDOCK:   -2.02 KCAL/MOL
REMARK 923 INTER-LIGAND FREE ENERGY PREDICTED BY IDOCK:   -4.23 KCAL/MOL
REMARK 924 INTRA-LIGAND FREE ENERGY PREDICTED BY IDOCK:    2.21 KCAL/MOL
REMARK 927      BINDING AFFINITY PREDICTED BY RF-SCORE:    0.00 PKD
ROOT
HETATM    1  C   UNL     1     -10.487   8.775  68.272  1.00  0.00    -0.187 C  
HETATM    2  S   UNL     1      -9.209   9.388  67.152  1.00  0.00    -0.136 SA 
HETATM    3  CG2 UNL     1      -8.015   8.127  67.644  1.00  0.00    -0.122 C  
HETATM    4  CB  UNL     1      -7.858   7.939  69.150  1.00  0.00    -0.109 C  
HETATM    5  CA  UNL     1     -11.558   9.831  68.691  1.00  0.00     0.353 C  
HETATM    6  CA  UNL     1      -8.812   8.286  70.065  1.00  0.00    -0.134 C  
HETATM    7  N   UNL     1      -9.995   8.831  69.636  1.00  0.00    -0.186 N  
HETATM    8  O   UNL     1     -11.222   9.933  71.264  1.00  0.00    -0.361 OA 
HETATM    9  C   UNL     1      -8.577   8.047  71.547  1.00  0.00    -0.128 C  
HETATM   10  C   UNL     1     -11.019   9.552  70.135  1.00  0.00    -0.262 C  
HETATM   11  O   UNL     1      -9.291   8.785  72.417  1.00  0.00    -0.331 OA 
HETATM   12  OXT UNL     1      -7.793   7.211  71.978  1.00  0.00    -0.091 OA 
ENDROOT
BRANCH   4  13
HETATM   13  CG1 UNL     1      -6.523   7.439  69.507  1.00  0.00    -0.036 C  
HETATM   14  CD1 UNL     1      -5.629   6.893  68.670  1.00  0.00    -0.018 C  
ENDBRANCH   4  13
BRANCH   5  15
HETATM   15  N   UNL     1     -11.331  11.218  68.213  1.00  0.00    -0.262 N  
HETATM   16  H   UNL     1     -11.398  11.978  68.890  1.00  0.00     0.000 HD 
HETATM   17  C   UNL     1     -11.036  11.533  66.912  1.00  0.00    -0.296 C  
HETATM   18  O   UNL     1     -10.939  10.705  66.017  1.00  0.00    -0.050 OA 
BRANCH  17  19
HETATM   19  C   UNL     1     -10.877  13.033  66.616  1.00  0.00    -0.275 C  
BRANCH  19  20
HETATM   20  N   UNL     1     -11.387  13.632  65.570  1.00  0.00    -0.296 NA 
HETATM   21  H   UNL     1     -13.093  13.750  64.550  1.00  0.00     0.000 HD 
HETATM   22  O   UNL     1     -12.722  13.315  65.309  1.00  0.00    -0.563 OA 
HETATM   23  H   UNL     1     -10.852  14.280  64.991  1.00  0.00     0.000 HD 
ENDBRANCH  19  20
BRANCH  19  24
HETATM   24  C   UNL     1     -10.082  13.868  67.519  1.00  0.00    -0.244 A  
HETATM   25  S   UNL     1      -9.135  15.026  69.584  1.00  0.00     0.128 SA 
HETATM   26  C   UNL     1     -10.276  13.955  68.888  1.00  0.00    -0.127 A  
HETATM   27  C   UNL     1      -8.457  15.300  68.032  1.00  0.00    -0.147 A  
HETATM   28  N   UNL     1      -9.021  14.645  67.051  1.00  0.00    -0.228 NA 
HETATM   29  N   UNL     1      -7.431  16.146  67.857  1.00  0.00    -0.124 NA 
HETATM   30  H1  UNL     1      -7.028  16.308  66.934  1.00  0.00     0.000 HD 
HETATM   31  H2  UNL     1      -7.046  16.636  68.664  1.00  0.00     0.000 HD 
ENDBRANCH  19  24
ENDBRANCH  17  19
ENDBRANCH   5  15
TORSDOF 5
ENDMDL
MODEL      190
REMARK 921   NORMALIZED FREE ENERGY PREDICTED BY IDOCK:   -0.09 KCAL/MOL
REMARK 922        TOTAL FREE ENERGY PREDICTED BY IDOCK:   -0.98 KCAL/MOL
REMARK 923 INTER-LIGAND FREE ENERGY PREDICTED BY IDOCK:   -1.71 KCAL/MOL
REMARK 924 INTRA-LIGAND FREE ENERGY PREDICTED BY IDOCK:    0.73 KCAL/MOL
REMARK 927      BINDING AFFINITY PREDICTED BY RF-SCORE:    0.00 PKD
ROOT
HETATM    1  C   UNL     1     -10.310  15.664  66.816  1.00  0.00    -0.287 C  
HETATM    2  S   UNL     1     -11.874  14.908  67.312  1.00  0.00    -0.105 SA 
HETATM    3  CG2 UNL     1     -11.898  15.740  68.913  1.00  0.00    -0.341 C  
HETATM    4  CB  UNL     1     -10.591  15.668  69.697  1.00  0.00    -0.284 C  
HETATM    5  CA  UNL     1      -9.505  14.869  65.739  1.00  0.00    -0.202 C  
HETATM    6  CA  UNL     1      -9.368  15.452  69.124  1.00  0.00    -0.246 C  
HETATM    7  N   UNL     1      -9.277  15.294  67.765  1.00  0.00    -0.186 N  
HETATM    8  O   UNL     1      -7.309  14.326  67.015  1.00  0.00    -0.013 OA 
HETATM    9  C   UNL     1      -8.115  15.413  69.981  1.00  0.00     0.322 C  
HETATM   10  C   UNL     1      -8.412  14.796  66.859  1.00  0.00    -0.198 C  
HETATM   11  O   UNL     1      -7.043  14.769  69.486  1.00  0.00    -0.160 OA 
HETATM   12  OXT UNL     1      -8.032  15.952  71.078  1.00  0.00     2.654 OA 
ENDROOT
BRANCH   4  13
HETATM   13  CG1 UNL     1     -10.812  15.755  71.148  1.00  0.00    -0.041 C  
HETATM   14  CD1 UNL     1     -11.986  15.620  71.781  1.00  0.00    -0.518 C  
ENDBRANCH   4  13
BRANCH   5  15
HETATM   15  N   UNL     1     -10.064  13.551  65.346  1.00  0.00    -0.436 N  
HETATM   16  H   UNL     1     -10.536  13.477  64.445  1.00  0.00     0.000 HD 
HETATM   17  C   UNL     1      -9.980  12.428  66.128  1.00  0.00    -0.253 C  
HETATM   18  O   UNL     1      -9.444  12.405  67.228  1.00  0.00    -0.183 OA 
BRANCH  17  19
HETATM   19  C   UNL     1     -10.658  11.173  65.557  1.00  0.00    -0.225 C  
BRANCH  19  20
HETATM   20  N   UNL     1     -11.422  11.171  64.494  1.00  0.00    -0.002 NA 
HETATM   21  H   UNL     1     -11.316  11.475  62.529  1.00  0.00     0.000 HD 
HETATM   22  O   UNL     1     -10.762  11.477  63.301  1.00  0.00    -0.362 OA 
HETATM   23  H   UNL     1     -12.420  10.964  64.534  1.00  0.00     0.000 HD 
ENDBRANCH  19  20
BRANCH  19  24
HETATM   24  C   UNL     1     -10.490   9.887  66.238  1.00  0.00    -0.101 A  
HETATM   25  S   UNL     1     -10.629   7.966  67.908  1.00  0.00    -0.098 SA 
HETATM   26  C   UNL     1     -11.048   9.566  67.464  1.00  0.00     0.091 A  
HETATM   27  C   UNL     1      -9.743   7.802  66.449  1.00  0.00    -0.149 A  
HETATM   28  N   UNL     1      -9.751   8.850  65.668  1.00  0.00    -0.142 NA 
HETATM   29  N   UNL     1      -9.080   6.673  66.157  1.00  0.00    -0.242 NA 
HETATM   30  H1  UNL     1      -8.553   6.575  65.289  1.00  0.00     0.000 HD 
HETATM   31  H2  UNL     1      -9.104   5.896  66.817  1.00  0.00     0.000 HD 
ENDBRANCH  19  24
ENDBRANCH  17  19
ENDBRANCH   5  15
TORSDOF 5
ENDMDL
MODEL      191
REMARK 921   NORMALIZED FREE ENERGY PREDICTED BY IDOCK:    3.28 KCAL/MOL
REMARK 922        TOTAL FREE ENERGY PREDICTED BY IDOCK:    3.37 KCAL/MOL
REMARK 923 INTER-LIGAND FREE ENERGY PREDICTED BY IDOCK:    2.40 KCAL/MOL
REMARK 924 INTRA-LIGAND FREE ENERGY PREDICTED BY IDOCK:    0.98 KCAL/MOL
REMARK 927      BINDING AFFINITY PREDICTED BY RF-SCORE:    0.00 PKD
ROOT
HETATM    1  C   UNL     1     -10.483  14.788  64.386  1.00  0.00     0.352 C  
HETATM    2  S   UNL     1      -9.079  14.039  65.242  1.00  0.00     1.683 SA 
HETATM    3  CG2 UNL     1      -8.997  12.633  64.114  1.00  0.00     1.803 C  
HETATM    4  CB  UNL     1     -10.333  11.949  63.836  1.00  0.00    -0.426 C  
HETATM    5  CA  UNL     1     -11.353  15.746  65.258  1.00  0.00    -0.093 C  
HETATM    6  CA  UNL     1     -11.547  12.559  63.985  1.00  0.00    -0.413 C  
HETATM    7  N   UNL     1     -11.602  13.864  64.402  1.00  0.00    -0.389 N  
HETATM    8  O   UNL     1     -13.661  14.556  65.209  1.00  0.00    -0.044 OA 
HETATM    9  C   UNL     1     -12.828  11.806  63.668  1.00  0.00    -0.217 C  
HETATM   10  C   UNL     1     -12.493  14.718  64.944  1.00  0.00    -0.182 C  
HETATM   11  O   UNL     1     -13.965  12.245  64.239  1.00  0.00     0.440 OA 
HETATM   12  OXT UNL     1     -12.874  10.845  62.911  1.00  0.00     1.057 OA 
ENDROOT
BRANCH   4  13
HETATM   13  CG1 UNL     1     -10.164  10.531  63.488  1.00  0.00    -0.073 C  
HETATM   14  CD1 UNL     1      -9.230   9.700  63.972  1.00  0.00    -0.202 C  
ENDBRANCH   4  13
BRANCH   5  15
HETATM   15  N   UNL     1     -10.990  15.833  66.695  1.00  0.00    -0.241 N  
HETATM   16  H   UNL     1     -10.643  16.723  67.052  1.00  0.00     0.000 HD 
HETATM   17  C   UNL     1     -11.097  14.782  67.569  1.00  0.00    -0.319 C  
HETATM   18  O   UNL     1     -11.494  13.669  67.249  1.00  0.00    -0.311 OA 
BRANCH  17  19
HETATM   19  C   UNL     1     -10.632  15.067  69.005  1.00  0.00    -0.245 C  
BRANCH  19  20
HETATM   20  N   UNL     1     -11.433  15.128  70.038  1.00  0.00    -0.266 NA 
HETATM   21  H   UNL     1     -13.120  14.319  70.721  1.00  0.00     0.000 HD 
HETATM   22  O   UNL     1     -12.538  14.275  69.970  1.00  0.00    -0.335 OA 
HETATM   23  H   UNL     1     -11.265  15.749  70.830  1.00  0.00     0.000 HD 
ENDBRANCH  19  20
BRANCH  19  24
HETATM   24  C   UNL     1      -9.214  15.327  69.267  1.00  0.00    -0.233 A  
HETATM   25  S   UNL     1      -6.897  15.413  70.326  1.00  0.00     0.263 SA 
HETATM   26  C   UNL     1      -8.538  14.929  70.408  1.00  0.00     1.258 A  
HETATM   27  C   UNL     1      -7.187  16.111  68.787  1.00  0.00    -0.170 A  
HETATM   28  N   UNL     1      -8.412  15.998  68.343  1.00  0.00    -0.173 NA 
HETATM   29  N   UNL     1      -6.216  16.741  68.110  1.00  0.00    -0.129 NA 
HETATM   30  H1  UNL     1      -6.389  17.156  67.195  1.00  0.00     0.000 HD 
HETATM   31  H2  UNL     1      -5.284  16.805  68.520  1.00  0.00     0.000 HD 
ENDBRANCH  19  24
ENDBRANCH  17  19
ENDBRANCH   5  15
TORSDOF 5
ENDMDL
MODEL      192
REMARK 921   NORMALIZED FREE ENERGY PREDICTED BY IDOCK:    3.61 KCAL/MOL
REMARK 922        TOTAL FREE ENERGY PREDICTED BY IDOCK:    3.81 KCAL/MOL
REMARK 923 INTER-LIGAND FREE ENERGY PREDICTED BY IDOCK:    1.44 KCAL/MOL
REMARK 924 INTRA-LIGAND FREE ENERGY PREDICTED BY IDOCK:    2.37 KCAL/MOL
REMARK 927      BINDING AFFINITY PREDICTED BY RF-SCORE:    0.00 PKD
ROOT
HETATM    1  C   UNL     1     -10.483  14.788  64.386  1.00  0.00     0.352 C  
HETATM    2  S   UNL     1      -9.079  14.039  65.242  1.00  0.00     1.683 SA 
HETATM    3  CG2 UNL     1      -8.997  12.633  64.114  1.00  0.00     1.803 C  
HETATM    4  CB  UNL     1     -10.333  11.949  63.836  1.00  0.00    -0.426 C  
HETATM    5  CA  UNL     1     -11.353  15.746  65.258  1.00  0.00    -0.093 C  
HETATM    6  CA  UNL     1     -11.547  12.559  63.985  1.00  0.00    -0.413 C  
HETATM    7  N   UNL     1     -11.602  13.864  64.402  1.00  0.00    -0.389 N  
HETATM    8  O   UNL     1     -13.661  14.556  65.209  1.00  0.00    -0.044 OA 
HETATM    9  C   UNL     1     -12.828  11.806  63.668  1.00  0.00    -0.217 C  
HETATM   10  C   UNL     1     -12.493  14.718  64.944  1.00  0.00    -0.182 C  
HETATM   11  O   UNL     1     -13.965  12.245  64.239  1.00  0.00     0.440 OA 
HETATM   12  OXT UNL     1     -12.874  10.845  62.911  1.00  0.00     1.057 OA 
ENDROOT
BRANCH   4  13
HETATM   13  CG1 UNL     1     -10.164  10.531  63.488  1.00  0.00    -0.073 C  
HETATM   14  CD1 UNL     1      -9.007   9.913  63.211  1.00  0.00    -0.276 C  
ENDBRANCH   4  13
BRANCH   5  15
HETATM   15  N   UNL     1     -10.990  15.833  66.695  1.00  0.00    -0.241 N  
HETATM   16  H   UNL     1     -10.643  16.723  67.052  1.00  0.00     0.000 HD 
HETATM   17  C   UNL     1     -11.097  14.782  67.569  1.00  0.00    -0.319 C  
HETATM   18  O   UNL     1     -11.494  13.669  67.249  1.00  0.00    -0.311 OA 
BRANCH  17  19
HETATM   19  C   UNL     1     -10.632  15.067  69.005  1.00  0.00    -0.245 C  
BRANCH  19  20
HETATM   20  N   UNL     1      -9.583  15.790  69.307  1.00  0.00    -0.255 NA 
HETATM   21  H   UNL     1      -9.004  17.187  70.602  1.00  0.00     0.000 HD 
HETATM   22  O   UNL     1      -9.766  16.662  70.383  1.00  0.00     1.025 OA 
HETATM   23  H   UNL     1      -8.703  15.723  68.796  1.00  0.00     0.000 HD 
ENDBRANCH  19  20
BRANCH  19  24
HETATM   24  C   UNL     1     -11.361  14.480  70.132  1.00  0.00    -0.197 A  
HETATM   25  S   UNL     1     -12.469  14.095  72.395  1.00  0.00    -0.037 SA 
HETATM   26  C   UNL     1     -11.558  15.103  71.353  1.00  0.00    -0.373 A  
HETATM   27  C   UNL     1     -12.548  12.905  71.163  1.00  0.00    -0.281 A  
HETATM   28  N   UNL     1     -11.950  13.218  70.043  1.00  0.00    -0.339 NA 
HETATM   29  N   UNL     1     -13.169  11.733  71.361  1.00  0.00    -0.213 NA 
HETATM   30  H1  UNL     1     -13.216  11.025  70.627  1.00  0.00     0.000 HD 
HETATM   31  H2  UNL     1     -13.605  11.546  72.264  1.00  0.00     0.000 HD 
ENDBRANCH  19  24
ENDBRANCH  17  19
ENDBRANCH   5  15
TORSDOF 5
ENDMDL
MODEL      193
REMARK 921   NORMALIZED FREE ENERGY PREDICTED BY IDOCK:    5.10 KCAL/MOL
REMARK 922        TOTAL FREE ENERGY PREDICTED BY IDOCK:    5.74 KCAL/MOL
REMARK 923 INTER-LIGAND FREE ENERGY PREDICTED BY IDOCK:    5.83 KCAL/MOL
REMARK 924 INTRA-LIGAND FREE ENERGY PREDICTED BY IDOCK:   -0.09 KCAL/MOL
REMARK 927      BINDING AFFINITY PREDICTED BY RF-SCORE:    0.00 PKD
ROOT
HETATM    1  C   UNL     1      -9.176  16.096  65.624  1.00  0.00     0.013 C  
HETATM    2  S   UNL     1     -10.688  16.770  66.345  1.00  0.00    -0.019 SA 
HETATM    3  CG2 UNL     1     -10.505  18.364  65.519  1.00  0.00     0.071 C  
HETATM    4  CB  UNL     1      -9.117  18.990  65.625  1.00  0.00     0.622 C  
HETATM    5  CA  UNL     1      -8.521  14.931  66.433  1.00  0.00     0.134 C  
HETATM    6  CA  UNL     1      -7.975  18.278  65.866  1.00  0.00    -0.001 C  
HETATM    7  N   UNL     1      -8.047  16.917  66.021  1.00  0.00    -0.243 N  
HETATM    8  O   UNL     1      -6.204  15.941  67.032  1.00  0.00    -0.319 OA 
HETATM    9  C   UNL     1      -6.632  18.982  65.937  1.00  0.00    -0.237 C  
HETATM   10  C   UNL     1      -7.306  15.915  66.536  1.00  0.00     0.212 C  
HETATM   11  O   UNL     1      -5.640  18.365  66.605  1.00  0.00    -0.139 OA 
HETATM   12  OXT UNL     1      -6.408  20.062  65.405  1.00  0.00    -0.217 OA 
ENDROOT
BRANCH   4  13
HETATM   13  CG1 UNL     1      -9.165  20.457  65.538  1.00  0.00     0.421 C  
HETATM   14  CD1 UNL     1     -10.271  21.214  65.504  1.00  0.00     2.367 C  
ENDBRANCH   4  13
BRANCH   5  15
HETATM   15  N   UNL     1      -9.152  14.605  67.736  1.00  0.00    -0.187 N  
HETATM   16  H   UNL     1      -8.823  15.096  68.568  1.00  0.00     0.000 HD 
HETATM   17  C   UNL     1     -10.154  13.681  67.884  1.00  0.00    -0.244 C  
HETATM   18  O   UNL     1     -10.619  13.030  66.958  1.00  0.00    -0.254 OA 
BRANCH  17  19
HETATM   19  C   UNL     1     -10.643  13.461  69.323  1.00  0.00     0.092 C  
BRANCH  19  20
HETATM   20  N   UNL     1     -10.227  14.154  70.354  1.00  0.00     0.612 NA 
HETATM   21  H   UNL     1      -9.080  15.723  70.785  1.00  0.00     0.000 HD 
HETATM   22  O   UNL     1      -9.382  15.220  70.037  1.00  0.00    -0.112 OA 
HETATM   23  H   UNL     1     -10.499  13.932  71.312  1.00  0.00     0.000 HD 
ENDBRANCH  19  20
BRANCH  19  24
HETATM   24  C   UNL     1     -11.609  12.396  69.605  1.00  0.00    -0.260 A  
HETATM   25  S   UNL     1     -13.730  11.106  70.182  1.00  0.00     2.724 SA 
HETATM   26  C   UNL     1     -12.934  12.604  69.949  1.00  0.00     0.913 A  
HETATM   27  C   UNL     1     -12.273  10.282  69.808  1.00  0.00    -0.006 A  
HETATM   28  N   UNL     1     -11.254  11.049  69.519  1.00  0.00    -0.258 NA 
HETATM   29  N   UNL     1     -12.202   8.943  69.832  1.00  0.00     0.141 NA 
HETATM   30  H1  UNL     1     -11.335   8.453  69.609  1.00  0.00     0.000 HD 
HETATM   31  H2  UNL     1     -13.031   8.403  70.077  1.00  0.00     0.000 HD 
ENDBRANCH  19  24
ENDBRANCH  17  19
ENDBRANCH   5  15
TORSDOF 5
ENDMDL
MODEL      194
REMARK 921   NORMALIZED FREE ENERGY PREDICTED BY IDOCK:    5.30 KCAL/MOL
REMARK 922        TOTAL FREE ENERGY PREDICTED BY IDOCK:    5.99 KCAL/MOL
REMARK 923 INTER-LIGAND FREE ENERGY PREDICTED BY IDOCK:    4.25 KCAL/MOL
REMARK 924 INTRA-LIGAND FREE ENERGY PREDICTED BY IDOCK:    1.74 KCAL/MOL
REMARK 927      BINDING AFFINITY PREDICTED BY RF-SCORE:    0.00 PKD
ROOT
HETATM    1  C   UNL     1     -12.710  13.588  68.643  1.00  0.00     0.978 C  
HETATM    2  S   UNL     1     -10.988  13.296  68.184  1.00  0.00    -0.267 SA 
HETATM    3  CG2 UNL     1     -11.004  11.588  68.766  1.00  0.00    -0.222 C  
HETATM    4  CB  UNL     1     -11.596  11.387  70.158  1.00  0.00    -0.368 C  
HETATM    5  CA  UNL     1     -13.083  15.083  68.892  1.00  0.00     1.590 C  
HETATM    6  CA  UNL     1     -12.472  12.255  70.747  1.00  0.00    -0.265 C  
HETATM    7  N   UNL     1     -12.867  13.380  70.071  1.00  0.00     0.123 N  
HETATM    8  O   UNL     1     -13.813  15.039  71.384  1.00  0.00    -0.421 OA 
HETATM    9  C   UNL     1     -13.026  11.965  72.131  1.00  0.00    -0.132 C  
HETATM   10  C   UNL     1     -13.421  14.581  70.337  1.00  0.00     0.301 C  
HETATM   11  O   UNL     1     -13.493  13.006  72.846  1.00  0.00    -0.483 OA 
HETATM   12  OXT UNL     1     -13.084  10.840  72.612  1.00  0.00     0.152 OA 
ENDROOT
BRANCH   4  13
HETATM   13  CG1 UNL     1     -11.037  10.205  70.829  1.00  0.00    -0.372 C  
HETATM   14  CD1 UNL     1      -9.921   9.548  70.482  1.00  0.00    -0.335 C  
ENDBRANCH   4  13
BRANCH   5  15
HETATM   15  N   UNL     1     -11.962  16.055  68.832  1.00  0.00    -0.430 N  
HETATM   16  H   UNL     1     -11.667  16.395  67.916  1.00  0.00     0.000 HD 
HETATM   17  C   UNL     1     -11.302  16.521  69.939  1.00  0.00    -0.046 C  
HETATM   18  O   UNL     1     -11.566  16.175  71.083  1.00  0.00    -0.419 OA 
BRANCH  17  19
HETATM   19  C   UNL     1     -10.144  17.490  69.659  1.00  0.00     0.205 C  
BRANCH  19  20
HETATM   20  N   UNL     1      -9.142  17.694  70.476  1.00  0.00     3.470 NA 
HETATM   21  H   UNL     1      -7.691  16.693  71.403  1.00  0.00     0.000 HD 
HETATM   22  O   UNL     1      -8.419  16.545  70.809  1.00  0.00     3.216 OA 
HETATM   23  H   UNL     1      -8.908  18.617  70.842  1.00  0.00     0.000 HD 
ENDBRANCH  19  20
BRANCH  19  24
HETATM   24  C   UNL     1     -10.145  18.280  68.425  1.00  0.00    -0.391 A  
HETATM   25  S   UNL     1     -10.496  19.076  66.029  1.00  0.00    -0.380 SA 
HETATM   26  C   UNL     1     -10.683  17.860  67.220  1.00  0.00    -0.267 A  
HETATM   27  C   UNL     1      -9.722  20.079  67.185  1.00  0.00    -0.411 A  
HETATM   28  N   UNL     1      -9.606  19.567  68.382  1.00  0.00    -0.370 NA 
HETATM   29  N   UNL     1      -9.260  21.295  66.857  1.00  0.00    -0.203 NA 
HETATM   30  H1  UNL     1      -8.799  21.891  67.545  1.00  0.00     0.000 HD 
HETATM   31  H2  UNL     1      -9.371  21.630  65.900  1.00  0.00     0.000 HD 
ENDBRANCH  19  24
ENDBRANCH  17  19
ENDBRANCH   5  15
TORSDOF 5
ENDMDL
MODEL      195
REMARK 921   NORMALIZED FREE ENERGY PREDICTED BY IDOCK:    5.87 KCAL/MOL
REMARK 922        TOTAL FREE ENERGY PREDICTED BY IDOCK:    6.73 KCAL/MOL
REMARK 923 INTER-LIGAND FREE ENERGY PREDICTED BY IDOCK:    4.76 KCAL/MOL
REMARK 924 INTRA-LIGAND FREE ENERGY PREDICTED BY IDOCK:    1.97 KCAL/MOL
REMARK 927      BINDING AFFINITY PREDICTED BY RF-SCORE:    0.00 PKD
ROOT
HETATM    1  C   UNL     1      -6.710  13.056  68.175  1.00  0.00    -0.103 C  
HETATM    2  S   UNL     1      -7.209  13.899  69.693  1.00  0.00     0.342 SA 
HETATM    3  CG2 UNL     1      -6.003  13.021  70.709  1.00  0.00     0.019 C  
HETATM    4  CB  UNL     1      -5.966  11.509  70.506  1.00  0.00    -0.093 C  
HETATM    5  CA  UNL     1      -7.803  13.004  67.061  1.00  0.00     0.028 C  
HETATM    6  CA  UNL     1      -6.401  10.881  69.373  1.00  0.00    -0.070 C  
HETATM    7  N   UNL     1      -6.901  11.626  68.336  1.00  0.00    -0.066 N  
HETATM    8  O   UNL     1      -8.160  10.446  66.789  1.00  0.00    -0.116 OA 
HETATM    9  C   UNL     1      -6.311   9.370  69.250  1.00  0.00    -0.044 C  
HETATM   10  C   UNL     1      -7.669  11.454  67.241  1.00  0.00    -0.145 C  
HETATM   11  O   UNL     1      -7.131   8.767  68.370  1.00  0.00    -0.074 OA 
HETATM   12  OXT UNL     1      -5.522   8.688  69.892  1.00  0.00    -0.029 OA 
ENDROOT
BRANCH   4  13
HETATM   13  CG1 UNL     1      -5.503  10.803  71.709  1.00  0.00     0.233 C  
HETATM   14  CD1 UNL     1      -5.287   9.484  71.822  1.00  0.00    -0.076 C  
ENDBRANCH   4  13
BRANCH   5  15
HETATM   15  N   UNL     1      -9.136  13.546  67.426  1.00  0.00    -0.209 N  
HETATM   16  H   UNL     1      -9.257  13.940  68.359  1.00  0.00     0.000 HD 
HETATM   17  C   UNL     1     -10.213  13.547  66.577  1.00  0.00    -0.283 C  
HETATM   18  O   UNL     1     -10.183  13.094  65.441  1.00  0.00    -0.295 OA 
BRANCH  17  19
HETATM   19  C   UNL     1     -11.513  14.118  67.162  1.00  0.00    -0.353 C  
BRANCH  19  20
HETATM   20  N   UNL     1     -12.651  13.471  67.192  1.00  0.00    -0.183 NA 
HETATM   21  H   UNL     1     -13.480  11.862  68.023  1.00  0.00     0.000 HD 
HETATM   22  O   UNL     1     -12.654  12.332  68.002  1.00  0.00     0.200 OA 
HETATM   23  H   UNL     1     -13.471  13.773  66.665  1.00  0.00     0.000 HD 
ENDBRANCH  19  20
BRANCH  19  24
HETATM   24  C   UNL     1     -11.529  15.481  67.697  1.00  0.00    -0.209 A  
HETATM   25  S   UNL     1     -11.316  18.008  67.966  1.00  0.00     1.012 SA 
HETATM   26  C   UNL     1     -11.135  16.608  66.995  1.00  0.00     0.145 A  
HETATM   27  C   UNL     1     -11.907  17.033  69.247  1.00  0.00     1.404 A  
HETATM   28  N   UNL     1     -11.980  15.753  68.990  1.00  0.00    -0.352 NA 
HETATM   29  N   UNL     1     -12.249  17.566  70.429  1.00  0.00     4.075 NA 
HETATM   30  H1  UNL     1     -12.601  16.986  71.192  1.00  0.00     0.000 HD 
HETATM   31  H2  UNL     1     -12.156  18.572  70.569  1.00  0.00     0.000 HD 
ENDBRANCH  19  24
ENDBRANCH  17  19
ENDBRANCH   5  15
TORSDOF 5
ENDMDL
MODEL      196
REMARK 921   NORMALIZED FREE ENERGY PREDICTED BY IDOCK:    6.29 KCAL/MOL
REMARK 922        TOTAL FREE ENERGY PREDICTED BY IDOCK:    7.27 KCAL/MOL
REMARK 923 INTER-LIGAND FREE ENERGY PREDICTED BY IDOCK:    7.73 KCAL/MOL
REMARK 924 INTRA-LIGAND FREE ENERGY PREDICTED BY IDOCK:   -0.46 KCAL/MOL
REMARK 927      BINDING AFFINITY PREDICTED BY RF-SCORE:    0.00 PKD
ROOT
HETATM    1  C   UNL     1      -8.200  16.574  66.120  1.00  0.00    -0.244 C  
HETATM    2  S   UNL     1      -9.843  16.734  66.854  1.00  0.00    -0.277 SA 
HETATM    3  CG2 UNL     1     -10.337  18.059  65.734  1.00  0.00    -0.175 C  
HETATM    4  CB  UNL     1      -9.321  19.188  65.580  1.00  0.00     0.520 C  
HETATM    5  CA  UNL     1      -7.115  15.959  67.059  1.00  0.00    -0.172 C  
HETATM    6  CA  UNL     1      -7.984  19.050  65.832  1.00  0.00    -0.075 C  
HETATM    7  N   UNL     1      -7.495  17.836  66.242  1.00  0.00    -0.276 N  
HETATM    8  O   UNL     1      -5.396  17.900  67.223  1.00  0.00    -0.126 OA 
HETATM    9  C   UNL     1      -7.041  20.224  65.635  1.00  0.00    -0.259 C  
HETATM   10  C   UNL     1      -6.402  17.339  66.855  1.00  0.00    -0.190 C  
HETATM   11  O   UNL     1      -5.872  20.201  66.301  1.00  0.00    -0.171 OA 
HETATM   12  OXT UNL     1      -7.285  21.167  64.893  1.00  0.00     0.300 OA 
ENDROOT
BRANCH   4  13
HETATM   13  CG1 UNL     1      -9.962  20.463  65.230  1.00  0.00     0.451 C  
HETATM   14  CD1 UNL     1     -10.939  21.076  65.914  1.00  0.00     2.740 C  
ENDBRANCH   4  13
BRANCH   5  15
HETATM   15  N   UNL     1      -7.535  15.692  68.457  1.00  0.00    -0.119 N  
HETATM   16  H   UNL     1      -7.223  16.335  69.185  1.00  0.00     0.000 HD 
HETATM   17  C   UNL     1      -8.320  14.629  68.824  1.00  0.00    -0.163 C  
HETATM   18  O   UNL     1      -8.743  13.794  68.037  1.00  0.00    -0.163 OA 
BRANCH  17  19
HETATM   19  C   UNL     1      -8.608  14.509  70.328  1.00  0.00     1.488 C  
BRANCH  19  20
HETATM   20  N   UNL     1      -7.724  14.134  71.217  1.00  0.00     2.392 NA 
HETATM   21  H   UNL     1      -5.845  13.486  71.333  1.00  0.00     0.000 HD 
HETATM   22  O   UNL     1      -6.487  13.758  70.687  1.00  0.00    -0.005 OA 
HETATM   23  H   UNL     1      -7.922  14.116  72.218  1.00  0.00     0.000 HD 
ENDBRANCH  19  20
BRANCH  19  24
HETATM   24  C   UNL     1      -9.955  14.790  70.831  1.00  0.00     1.479 A  
HETATM   25  S   UNL     1     -11.925  15.529  72.271  1.00  0.00    -0.499 SA 
HETATM   26  C   UNL     1     -10.234  15.350  72.066  1.00  0.00     2.250 A  
HETATM   27  C   UNL     1     -12.176  14.860  70.711  1.00  0.00    -0.325 A  
HETATM   28  N   UNL     1     -11.090  14.527  70.063  1.00  0.00    -0.180 NA 
HETATM   29  N   UNL     1     -13.410  14.685  70.216  1.00  0.00    -0.466 NA 
HETATM   30  H1  UNL     1     -13.559  14.287  69.289  1.00  0.00     0.000 HD 
HETATM   31  H2  UNL     1     -14.216  14.955  70.779  1.00  0.00     0.000 HD 
ENDBRANCH  19  24
ENDBRANCH  17  19
ENDBRANCH   5  15
TORSDOF 5
ENDMDL
MODEL      197
REMARK 921   NORMALIZED FREE ENERGY PREDICTED BY IDOCK:    7.15 KCAL/MOL
REMARK 922        TOTAL FREE ENERGY PREDICTED BY IDOCK:    8.39 KCAL/MOL
REMARK 923 INTER-LIGAND FREE ENERGY PREDICTED BY IDOCK:    6.89 KCAL/MOL
REMARK 924 INTRA-LIGAND FREE ENERGY PREDICTED BY IDOCK:    1.49 KCAL/MOL
REMARK 927      BINDING AFFINITY PREDICTED BY RF-SCORE:    0.00 PKD
ROOT
HETATM    1  C   UNL     1      -9.006  15.516  67.520  1.00  0.00    -0.189 C  
HETATM    2  S   UNL     1     -10.742  15.042  67.679  1.00  0.00    -0.281 SA 
HETATM    3  CG2 UNL     1     -10.882  15.693  69.356  1.00  0.00    -0.264 C  
HETATM    4  CB  UNL     1      -9.761  15.280  70.305  1.00  0.00     0.273 C  
HETATM    5  CA  UNL     1      -8.190  14.691  66.475  1.00  0.00     0.359 C  
HETATM    6  CA  UNL     1      -8.519  14.884  69.892  1.00  0.00     0.345 C  
HETATM    7  N   UNL     1      -8.231  14.851  68.552  1.00  0.00    -0.146 N  
HETATM    8  O   UNL     1      -6.375  13.590  67.972  1.00  0.00    -0.104 OA 
HETATM    9  C   UNL     1      -7.456  14.506  70.908  1.00  0.00     1.714 C  
HETATM   10  C   UNL     1      -7.332  14.285  67.722  1.00  0.00    -0.174 C  
HETATM   11  O   UNL     1      -6.451  13.714  70.492  1.00  0.00    -0.001 OA 
HETATM   12  OXT UNL     1      -7.462  14.901  72.067  1.00  0.00     2.588 OA 
ENDROOT
BRANCH   4  13
HETATM   13  CG1 UNL     1     -10.203  15.260  71.707  1.00  0.00     1.714 C  
HETATM   14  CD1 UNL     1     -11.358  14.759  72.168  1.00  0.00     0.159 C  
ENDBRANCH   4  13
BRANCH   5  15
HETATM   15  N   UNL     1      -8.905  13.560  65.834  1.00  0.00    -0.034 N  
HETATM   16  H   UNL     1      -9.447  13.748  64.991  1.00  0.00     0.000 HD 
HETATM   17  C   UNL     1      -8.875  12.275  66.312  1.00  0.00    -0.007 C  
HETATM   18  O   UNL     1      -8.264  11.938  67.317  1.00  0.00    -0.154 OA 
BRANCH  17  19
HETATM   19  C   UNL     1      -9.715  11.258  65.524  1.00  0.00    -0.229 C  
BRANCH  19  20
HETATM   20  N   UNL     1      -9.512   9.965  65.545  1.00  0.00    -0.231 NA 
HETATM   21  H   UNL     1      -9.538   8.429  66.811  1.00  0.00     0.000 HD 
HETATM   22  O   UNL     1      -9.686   9.367  66.796  1.00  0.00    -0.170 OA 
HETATM   23  H   UNL     1      -9.248   9.436  64.714  1.00  0.00     0.000 HD 
ENDBRANCH  19  20
BRANCH  19  24
HETATM   24  C   UNL     1     -10.797  11.731  64.657  1.00  0.00    -0.307 A  
HETATM   25  S   UNL     1     -12.144  12.939  62.861  1.00  0.00     0.767 SA 
HETATM   26  C   UNL     1     -10.648  12.669  63.650  1.00  0.00    -0.342 A  
HETATM   27  C   UNL     1     -12.888  11.794  63.898  1.00  0.00    -0.139 A  
HETATM   28  N   UNL     1     -12.096  11.233  64.774  1.00  0.00     0.378 NA 
HETATM   29  N   UNL     1     -14.199  11.521  63.811  1.00  0.00     1.366 NA 
HETATM   30  H1  UNL     1     -14.641  10.840  64.428  1.00  0.00     0.000 HD 
HETATM   31  H2  UNL     1     -14.764  12.004  63.113  1.00  0.00     0.000 HD 
ENDBRANCH  19  24
ENDBRANCH  17  19
ENDBRANCH   5  15
TORSDOF 5
ENDMDL
MODEL      198
REMARK 921   NORMALIZED FREE ENERGY PREDICTED BY IDOCK:   15.65 KCAL/MOL
REMARK 922        TOTAL FREE ENERGY PREDICTED BY IDOCK:   19.36 KCAL/MOL
REMARK 923 INTER-LIGAND FREE ENERGY PREDICTED BY IDOCK:   17.71 KCAL/MOL
REMARK 924 INTRA-LIGAND FREE ENERGY PREDICTED BY IDOCK:    1.65 KCAL/MOL
REMARK 927      BINDING AFFINITY PREDICTED BY RF-SCORE:    0.00 PKD
ROOT
HETATM    1  C   UNL     1      -9.762  16.066  70.064  1.00  0.00     0.226 C  
HETATM    2  S   UNL     1     -10.522  14.514  70.591  1.00  0.00     1.080 SA 
HETATM    3  CG2 UNL     1      -9.076  13.999  71.540  1.00  0.00     7.846 C  
HETATM    4  CB  UNL     1      -7.743  14.129  70.808  1.00  0.00     2.433 C  
HETATM    5  CA  UNL     1     -10.345  16.673  68.749  1.00  0.00    -0.301 C  
HETATM    6  CA  UNL     1      -7.530  14.979  69.758  1.00  0.00    -0.102 C  
HETATM    7  N   UNL     1      -8.552  15.778  69.316  1.00  0.00    -0.254 N  
HETATM    8  O   UNL     1      -8.264  16.667  67.196  1.00  0.00    -0.163 OA 
HETATM    9  C   UNL     1      -6.164  15.056  69.100  1.00  0.00    -0.105 C  
HETATM   10  C   UNL     1      -8.884  16.486  68.218  1.00  0.00    -0.210 C  
HETATM   11  O   UNL     1      -6.106  15.525  67.839  1.00  0.00    -0.124 OA 
HETATM   12  OXT UNL     1      -5.125  14.735  69.663  1.00  0.00    -0.089 OA 
ENDROOT
BRANCH   4  13
HETATM   13  CG1 UNL     1      -6.749  13.164  71.298  1.00  0.00     2.541 C  
HETATM   14  CD1 UNL     1      -6.061  12.286  70.554  1.00  0.00     0.075 C  
ENDBRANCH   4  13
BRANCH   5  15
HETATM   15  N   UNL     1     -11.360  15.851  68.043  1.00  0.00    -0.322 N  
HETATM   16  H   UNL     1     -12.288  15.769  68.459  1.00  0.00     0.000 HD 
HETATM   17  C   UNL     1     -11.118  15.195  66.864  1.00  0.00    -0.314 C  
HETATM   18  O   UNL     1     -10.041  15.218  66.283  1.00  0.00    -0.254 OA 
BRANCH  17  19
HETATM   19  C   UNL     1     -12.289  14.365  66.318  1.00  0.00    -0.301 C  
BRANCH  19  20
HETATM   20  N   UNL     1     -13.345  14.035  67.019  1.00  0.00     1.427 NA 
HETATM   21  H   UNL     1     -13.831  13.180  68.750  1.00  0.00     0.000 HD 
HETATM   22  O   UNL     1     -13.064  13.419  68.241  1.00  0.00     1.598 OA 
HETATM   23  H   UNL     1     -14.296  14.213  66.697  1.00  0.00     0.000 HD 
ENDBRANCH  19  20
BRANCH  19  24
HETATM   24  C   UNL     1     -12.241  13.863  64.943  1.00  0.00    -0.422 A  
HETATM   25  S   UNL     1     -12.512  13.603  62.421  1.00  0.00     4.069 SA 
HETATM   26  C   UNL     1     -12.796  14.505  63.849  1.00  0.00     0.756 A  
HETATM   27  C   UNL     1     -11.670  12.426  63.341  1.00  0.00    -0.472 A  
HETATM   28  N   UNL     1     -11.588  12.671  64.623  1.00  0.00    -0.326 NA 
HETATM   29  N   UNL     1     -11.153  11.329  62.768  1.00  0.00    -0.576 NA 
HETATM   30  H1  UNL     1     -10.652  10.629  63.316  1.00  0.00     0.000 HD 
HETATM   31  H2  UNL     1     -11.264  11.192  61.764  1.00  0.00     0.000 HD 
ENDBRANCH  19  24
ENDBRANCH  17  19
ENDBRANCH   5  15
TORSDOF 5
ENDMDL
MODEL      199
REMARK 921   NORMALIZED FREE ENERGY PREDICTED BY IDOCK:   18.38 KCAL/MOL
REMARK 922        TOTAL FREE ENERGY PREDICTED BY IDOCK:   22.90 KCAL/MOL
REMARK 923 INTER-LIGAND FREE ENERGY PREDICTED BY IDOCK:   19.85 KCAL/MOL
REMARK 924 INTRA-LIGAND FREE ENERGY PREDICTED BY IDOCK:    3.04 KCAL/MOL
REMARK 927      BINDING AFFINITY PREDICTED BY RF-SCORE:    0.00 PKD
ROOT
HETATM    1  C   UNL     1     -11.765  11.559  71.386  1.00  0.00     1.119 C  
HETATM    2  S   UNL     1     -13.173  11.648  70.259  1.00  0.00     1.115 SA 
HETATM    3  CG2 UNL     1     -13.953  10.169  70.937  1.00  0.00     0.642 C  
HETATM    4  CB  UNL     1     -13.026   8.968  71.104  1.00  0.00    -0.194 C  
HETATM    5  CA  UNL     1     -10.469  12.269  70.880  1.00  0.00     5.039 C  
HETATM    6  CA  UNL     1     -11.667   9.065  71.216  1.00  0.00    -0.313 C  
HETATM    7  N   UNL     1     -11.071  10.299  71.188  1.00  0.00    -0.097 N  
HETATM    8  O   UNL     1      -8.795  10.288  70.752  1.00  0.00     0.478 OA 
HETATM    9  C   UNL     1     -10.821   7.816  71.397  1.00  0.00    -0.228 C  
HETATM   10  C   UNL     1      -9.852  10.832  70.971  1.00  0.00     3.327 C  
HETATM   11  O   UNL     1      -9.522   7.889  71.052  1.00  0.00    -0.154 OA 
HETATM   12  OXT UNL     1     -11.258   6.767  71.854  1.00  0.00    -0.242 OA 
ENDROOT
BRANCH   4  13
HETATM   13  CG1 UNL     1     -13.754   7.694  71.026  1.00  0.00    -0.091 C  
HETATM   14  CD1 UNL     1     -13.385   6.609  70.331  1.00  0.00     1.744 C  
ENDBRANCH   4  13
BRANCH   5  15
HETATM   15  N   UNL     1     -10.522  12.824  69.504  1.00  0.00    -0.189 N  
HETATM   16  H   UNL     1     -11.172  13.588  69.317  1.00  0.00     0.000 HD 
HETATM   17  C   UNL     1      -9.746  12.365  68.471  1.00  0.00    -0.136 C  
HETATM   18  O   UNL     1      -8.941  11.450  68.581  1.00  0.00    -0.172 OA 
BRANCH  17  19
HETATM   19  C   UNL     1      -9.983  13.046  67.115  1.00  0.00    -0.235 C  
BRANCH  19  20
HETATM   20  N   UNL     1     -11.010  12.803  66.340  1.00  0.00    -0.271 NA 
HETATM   21  H   UNL     1     -12.005  13.608  64.815  1.00  0.00     0.000 HD 
HETATM   22  O   UNL     1     -11.260  13.785  65.378  1.00  0.00    -0.296 OA 
HETATM   23  H   UNL     1     -11.581  11.963  66.431  1.00  0.00     0.000 HD 
ENDBRANCH  19  20
BRANCH  19  24
HETATM   24  C   UNL     1      -9.001  14.008  66.608  1.00  0.00    -0.154 A  
HETATM   25  S   UNL     1      -6.843  15.131  65.846  1.00  0.00     6.292 SA 
HETATM   26  C   UNL     1      -7.643  13.762  66.493  1.00  0.00     1.457 A  
HETATM   27  C   UNL     1      -8.344  15.956  65.755  1.00  0.00     0.792 A  
HETATM   28  N   UNL     1      -9.382  15.276  66.166  1.00  0.00    -0.311 NA 
HETATM   29  N   UNL     1      -8.422  17.217  65.307  1.00  0.00     0.929 NA 
HETATM   30  H1  UNL     1      -9.315  17.708  65.253  1.00  0.00     0.000 HD 
HETATM   31  H2  UNL     1      -7.571  17.696  65.013  1.00  0.00     0.000 HD 
ENDBRANCH  19  24
ENDBRANCH  17  19
ENDBRANCH   5  15
TORSDOF 5
ENDMDL
MODEL      200
REMARK 921   NORMALIZED FREE ENERGY PREDICTED BY IDOCK:   26.75 KCAL/MOL
REMARK 922        TOTAL FREE ENERGY PREDICTED BY IDOCK:   33.71 KCAL/MOL
REMARK 923 INTER-LIGAND FREE ENERGY PREDICTED BY IDOCK:   27.32 KCAL/MOL
REMARK 924 INTRA-LIGAND FREE ENERGY PREDICTED BY IDOCK:    6.40 KCAL/MOL
REMARK 927      BINDING AFFINITY PREDICTED BY RF-SCORE:    0.00 PKD
ROOT
HETATM    1  C   UNL     1      -7.536  14.708  70.323  1.00  0.00     0.513 C  
HETATM    2  S   UNL     1      -7.791  13.118  71.142  1.00  0.00     8.163 SA 
HETATM    3  CG2 UNL     1      -6.241  12.426  70.528  1.00  0.00     0.242 C  
HETATM    4  CB  UNL     1      -5.993  12.625  69.035  1.00  0.00    -0.076 C  
HETATM    5  CA  UNL     1      -8.839  15.519  70.037  1.00  0.00     0.366 C  
HETATM    6  CA  UNL     1      -6.573  13.613  68.290  1.00  0.00    -0.108 C  
HETATM    7  N   UNL     1      -7.430  14.498  68.891  1.00  0.00    -0.128 N  
HETATM    8  O   UNL     1      -8.801  15.682  67.445  1.00  0.00    -0.181 OA 
HETATM    9  C   UNL     1      -6.254  13.747  66.811  1.00  0.00     1.998 C  
HETATM   10  C   UNL     1      -8.398  15.369  68.541  1.00  0.00    -0.151 C  
HETATM   11  O   UNL     1      -7.146  14.394  66.038  1.00  0.00     2.928 OA 
HETATM   12  OXT UNL     1      -5.227  13.316  66.302  1.00  0.00     1.784 OA 
ENDROOT
BRANCH   4  13
HETATM   13  CG1 UNL     1      -5.137  11.569  68.474  1.00  0.00    -0.039 C  
HETATM   14  CD1 UNL     1      -5.553  10.431  67.900  1.00  0.00    -0.040 C  
ENDBRANCH   4  13
BRANCH   5  15
HETATM   15  N   UNL     1     -10.117  14.840  70.365  1.00  0.00    -0.218 N  
HETATM   16  H   UNL     1     -10.961  15.409  70.437  1.00  0.00     0.000 HD 
HETATM   17  C   UNL     1     -10.226  13.489  70.577  1.00  0.00     3.162 C  
HETATM   18  O   UNL     1      -9.281  12.715  70.523  1.00  0.00     5.029 OA 
BRANCH  17  19
HETATM   19  C   UNL     1     -11.632  12.990  70.945  1.00  0.00     0.881 C  
BRANCH  19  20
HETATM   20  N   UNL     1     -12.722  13.702  70.811  1.00  0.00    -0.298 NA 
HETATM   21  H   UNL     1     -14.193  14.476  71.907  1.00  0.00     0.000 HD 
HETATM   22  O   UNL     1     -13.401  13.959  72.005  1.00  0.00    -0.365 OA 
HETATM   23  H   UNL     1     -13.050  14.042  69.907  1.00  0.00     0.000 HD 
ENDBRANCH  19  20
BRANCH  19  24
HETATM   24  C   UNL     1     -11.797  11.652  71.518  1.00  0.00     1.135 A  
HETATM   25  S   UNL     1     -12.555   9.674  72.936  1.00  0.00     1.537 SA 
HETATM   26  C   UNL     1     -12.637  11.346  72.575  1.00  0.00     1.722 A  
HETATM   27  C   UNL     1     -11.419   9.464  71.669  1.00  0.00    -0.393 A  
HETATM   28  N   UNL     1     -11.113  10.549  71.006  1.00  0.00     0.086 NA 
HETATM   29  N   UNL     1     -10.880   8.265  71.404  1.00  0.00    -0.231 NA 
HETATM   30  H1  UNL     1     -10.205   8.140  70.650  1.00  0.00     0.000 HD 
HETATM   31  H2  UNL     1     -11.153   7.460  71.968  1.00  0.00     0.000 HD 
ENDBRANCH  19  24
ENDBRANCH  17  19
ENDBRANCH   5  15
TORSDOF 5
ENDMDL
MODEL      201
REMARK 921   NORMALIZED FREE ENERGY PREDICTED BY IDOCK:   49.44 KCAL/MOL
REMARK 922        TOTAL FREE ENERGY PREDICTED BY IDOCK:   63.03 KCAL/MOL
REMARK 923 INTER-LIGAND FREE ENERGY PREDICTED BY IDOCK:   63.91 KCAL/MOL
REMARK 924 INTRA-LIGAND FREE ENERGY PREDICTED BY IDOCK:   -0.88 KCAL/MOL
REMARK 927      BINDING AFFINITY PREDICTED BY RF-SCORE:    0.00 PKD
ROOT
HETATM    1  C   UNL     1      -7.926  11.171  71.016  1.00  0.00     5.018 C  
HETATM    2  S   UNL     1      -6.423  11.779  70.219  1.00  0.00     0.401 SA 
HETATM    3  CG2 UNL     1      -5.950  12.795  71.633  1.00  0.00     1.073 C  
HETATM    4  CB  UNL     1      -7.065  13.667  72.203  1.00  0.00     4.875 C  
HETATM    5  CA  UNL     1      -9.042  10.687  70.037  1.00  0.00     0.675 C  
HETATM    6  CA  UNL     1      -8.397  13.404  72.042  1.00  0.00    13.155 C  
HETATM    7  N   UNL     1      -8.787  12.295  71.336  1.00  0.00    13.509 N  
HETATM    8  O   UNL     1     -10.987  12.312  70.609  1.00  0.00     1.342 OA 
HETATM    9  C   UNL     1      -9.440  14.318  72.661  1.00  0.00     8.675 C  
HETATM   10  C   UNL     1      -9.883  11.830  70.704  1.00  0.00     5.038 C  
HETATM   11  O   UNL     1     -10.674  14.306  72.125  1.00  0.00     2.172 OA 
HETATM   12  OXT UNL     1      -9.216  15.040  73.625  1.00  0.00     7.363 OA 
ENDROOT
BRANCH   4  13
HETATM   13  CG1 UNL     1      -6.541  14.875  72.857  1.00  0.00     2.112 C  
HETATM   14  CD1 UNL     1      -5.254  15.241  72.935  1.00  0.00     0.355 C  
ENDBRANCH   4  13
BRANCH   5  15
HETATM   15  N   UNL     1      -8.777  10.891  68.591  1.00  0.00    -0.149 N  
HETATM   16  H   UNL     1      -8.026  11.527  68.324  1.00  0.00     0.000 HD 
HETATM   17  C   UNL     1      -9.487  10.271  67.595  1.00  0.00    -0.151 C  
HETATM   18  O   UNL     1     -10.412   9.497  67.801  1.00  0.00    -0.224 OA 
BRANCH  17  19
HETATM   19  C   UNL     1      -9.082  10.649  66.162  1.00  0.00    -0.170 C  
BRANCH  19  20
HETATM   20  N   UNL     1      -7.979  10.249  65.581  1.00  0.00    -0.144 NA 
HETATM   21  H   UNL     1      -6.029  10.075  65.946  1.00  0.00     0.000 HD 
HETATM   22  O   UNL     1      -6.830  10.366  66.368  1.00  0.00    -0.098 OA 
HETATM   23  H   UNL     1      -7.960   9.881  64.630  1.00  0.00     0.000 HD 
ENDBRANCH  19  20
BRANCH  19  24
HETATM   24  C   UNL     1      -9.940  11.541  65.379  1.00  0.00    -0.248 A  
HETATM   25  S   UNL     1     -10.800  13.392  63.851  1.00  0.00     0.129 SA 
HETATM   26  C   UNL     1      -9.487  12.610  64.625  1.00  0.00     0.395 A  
HETATM   27  C   UNL     1     -11.879  12.262  64.558  1.00  0.00    -0.369 A  
HETATM   28  N   UNL     1     -11.322  11.354  65.316  1.00  0.00    -0.080 NA 
HETATM   29  N   UNL     1     -13.202  12.334  64.349  1.00  0.00    -0.749 NA 
HETATM   30  H1  UNL     1     -13.844  11.662  64.770  1.00  0.00     0.000 HD 
HETATM   31  H2  UNL     1     -13.574  13.076  63.756  1.00  0.00     0.000 HD 
ENDBRANCH  19  24
ENDBRANCH  17  19
ENDBRANCH   5  15
TORSDOF 5
ENDMDL
MODEL      202
REMARK 921   NORMALIZED FREE ENERGY PREDICTED BY IDOCK:   50.03 KCAL/MOL
REMARK 922        TOTAL FREE ENERGY PREDICTED BY IDOCK:   63.79 KCAL/MOL
REMARK 923 INTER-LIGAND FREE ENERGY PREDICTED BY IDOCK:   64.36 KCAL/MOL
REMARK 924 INTRA-LIGAND FREE ENERGY PREDICTED BY IDOCK:   -0.57 KCAL/MOL
REMARK 927      BINDING AFFINITY PREDICTED BY RF-SCORE:    0.00 PKD
ROOT
HETATM    1  C   UNL     1      -7.559  12.772  68.349  1.00  0.00    -0.133 C  
HETATM    2  S   UNL     1      -9.181  13.408  68.823  1.00  0.00     0.217 SA 
HETATM    3  CG2 UNL     1      -8.597  14.032  70.412  1.00  0.00     2.904 C  
HETATM    4  CB  UNL     1      -7.759  13.047  71.224  1.00  0.00     7.572 C  
HETATM    5  CA  UNL     1      -7.584  11.616  67.299  1.00  0.00    -0.147 C  
HETATM    6  CA  UNL     1      -7.079  11.995  70.678  1.00  0.00     2.592 C  
HETATM    7  N   UNL     1      -7.126  11.787  69.324  1.00  0.00    -0.075 N  
HETATM    8  O   UNL     1      -6.486   9.672  68.626  1.00  0.00    -0.047 OA 
HETATM    9  C   UNL     1      -6.255  11.074  71.561  1.00  0.00     1.204 C  
HETATM   10  C   UNL     1      -6.895  10.794  68.441  1.00  0.00    -0.068 C  
HETATM   11  O   UNL     1      -5.991   9.839  71.096  1.00  0.00    -0.076 OA 
HETATM   12  OXT UNL     1      -5.810  11.407  72.652  1.00  0.00     0.781 OA 
ENDROOT
BRANCH   4  13
HETATM   13  CG1 UNL     1      -7.854  13.303  72.668  1.00  0.00    11.946 C  
HETATM   14  CD1 UNL     1      -8.950  13.173  73.428  1.00  0.00    17.627 C  
ENDBRANCH   4  13
BRANCH   5  15
HETATM   15  N   UNL     1      -8.927  11.114  66.912  1.00  0.00    -0.157 N  
HETATM   16  H   UNL     1      -9.726  11.738  67.026  1.00  0.00     0.000 HD 
HETATM   17  C   UNL     1      -9.151   9.858  66.411  1.00  0.00    -0.150 C  
HETATM   18  O   UNL     1      -8.269   9.027  66.241  1.00  0.00    -0.111 OA 
BRANCH  17  19
HETATM   19  C   UNL     1     -10.619   9.519  66.111  1.00  0.00     0.148 C  
BRANCH  19  20
HETATM   20  N   UNL     1     -11.398   8.848  66.921  1.00  0.00     0.527 NA 
HETATM   21  H   UNL     1     -12.266   9.018  68.705  1.00  0.00     0.000 HD 
HETATM   22  O   UNL     1     -11.701   9.505  68.117  1.00  0.00     0.467 OA 
HETATM   23  H   UNL     1     -11.755   7.919  66.698  1.00  0.00     0.000 HD 
ENDBRANCH  19  20
BRANCH  19  24
HETATM   24  C   UNL     1     -11.208   9.926  64.833  1.00  0.00     3.257 A  
HETATM   25  S   UNL     1     -11.625  10.346  62.353  1.00  0.00     4.392 SA 
HETATM   26  C   UNL     1     -10.609   9.752  63.597  1.00  0.00     2.908 A  
HETATM   27  C   UNL     1     -12.792  10.788  63.529  1.00  0.00     3.556 A  
HETATM   28  N   UNL     1     -12.471  10.516  64.767  1.00  0.00     4.123 NA 
HETATM   29  N   UNL     1     -13.941  11.387  63.182  1.00  0.00     1.105 NA 
HETATM   30  H1  UNL     1     -14.635  11.651  63.881  1.00  0.00     0.000 HD 
HETATM   31  H2  UNL     1     -14.124  11.584  62.198  1.00  0.00     0.000 HD 
ENDBRANCH  19  24
ENDBRANCH  17  19
ENDBRANCH   5  15
TORSDOF 5
ENDMDL
