MODEL        1
REMARK 921   NORMALIZED FREE ENERGY PREDICTED BY IDOCK:   -6.90 KCAL/MOL
REMARK 922        TOTAL FREE ENERGY PREDICTED BY IDOCK:  -11.23 KCAL/MOL
REMARK 923 INTER-LIGAND FREE ENERGY PREDICTED BY IDOCK:   -9.72 KCAL/MOL
REMARK 924 INTRA-LIGAND FREE ENERGY PREDICTED BY IDOCK:   -1.51 KCAL/MOL
REMARK 927      BINDING AFFINITY PREDICTED BY RF-SCORE:    0.00 PKD
ROOT
HETATM    1  C   UNL     1     -11.831  14.054  68.784  1.00  0.00    -0.361 C  
HETATM    2  S   UNL     1     -10.704  14.860  69.913  1.00  0.00    -0.122 SA 
HETATM    3  C   UNL     1     -10.850  16.461  69.138  1.00  0.00    -0.329 C  
HETATM    4  C   UNL     1     -10.891  16.489  67.616  1.00  0.00    -0.269 C  
HETATM    5  CA  UNL     1     -11.562  12.537  68.550  1.00  0.00    -0.321 C  
HETATM    6  CA  UNL     1     -11.157  15.427  66.811  1.00  0.00    -0.244 C  
HETATM    7  OXT UNL     1     -11.871  14.728  64.603  1.00  0.00    -0.420 OA 
HETATM    8  N   UNL     1     -11.421  14.212  67.394  1.00  0.00    -0.326 N  
HETATM    9  C   UNL     1     -11.168  15.456  65.291  1.00  0.00    -0.310 C  
HETATM   10  O   UNL     1     -12.143  12.395  66.053  1.00  0.00    -0.600 OA 
HETATM   11  C   UNL     1     -11.761  12.954  67.049  1.00  0.00    -0.385 C  
HETATM   12  O   UNL     1     -10.337  16.347  64.706  1.00  0.00    -0.532 OA 
ENDROOT
BRANCH   4  13
HETATM   13  C   UNL     1     -10.595  17.850  67.186  1.00  0.00    -0.315 C  
HETATM   14  C   UNL     1      -9.418  18.488  67.117  1.00  0.00    -0.294 C  
BRANCH  14  15
HETATM   15  C   UNL     1      -8.130  17.977  67.440  1.00  0.00    -0.222 A  
HETATM   16  C   UNL     1      -7.184  18.507  68.319  1.00  0.00    -0.264 A  
HETATM   17  N   UNL     1      -5.918  17.947  68.244  1.00  0.00    -0.170 NA 
HETATM   18  S   UNL     1      -7.418  16.618  66.640  1.00  0.00    -0.273 SA 
HETATM   19  C   UNL     1      -7.373  19.618  69.294  1.00  0.00    -0.294 C  
HETATM   20  C   UNL     1      -5.921  16.959  67.383  1.00  0.00    -0.153 A  
ENDBRANCH  14  15
ENDBRANCH   4  13
BRANCH   5  21
HETATM   21  N   UNL     1     -10.269  11.993  69.075  1.00  0.00    -0.420 N  
HETATM   22  C   UNL     1      -9.679  10.741  69.030  1.00  0.00    -0.187 C  
HETATM   23  O   UNL     1      -8.492  10.653  69.348  1.00  0.00    -0.136 OA 
HETATM   24  H   UNL     1      -9.708  12.688  69.569  1.00  0.00     0.000 HD 
BRANCH  22  25
HETATM   25  C   UNL     1     -10.429   9.446  68.784  1.00  0.00    -0.212 C  
BRANCH  25  26
HETATM   26  C   UNL     1     -11.109   8.738  69.900  1.00  0.00    -0.123 A  
HETATM   27  H2  UNL     1     -13.616   8.139  73.312  1.00  0.00     0.000 HD 
HETATM   28  H1  UNL     1     -13.228   9.841  73.053  1.00  0.00     0.000 HD 
HETATM   29  C   UNL     1     -11.225   7.355  69.960  1.00  0.00    -0.180 A  
HETATM   30  N   UNL     1     -11.716   9.383  70.981  1.00  0.00    -0.302 NA 
HETATM   31  S   UNL     1     -12.198   6.878  71.279  1.00  0.00    -0.373 SA 
HETATM   32  N   UNL     1     -13.131   8.862  72.783  1.00  0.00    -0.309 NA 
HETATM   33  C   UNL     1     -12.363   8.523  71.733  1.00  0.00    -0.338 A  
ENDBRANCH  25  26
BRANCH  25  34
HETATM   34  N   UNL     1     -10.664   8.912  67.617  1.00  0.00    -0.459 NA 
HETATM   35  H   UNL     1     -11.090   7.987  67.574  1.00  0.00     0.000 HD 
BRANCH  34  36
HETATM   36  O   UNL     1     -10.348   9.571  66.424  1.00  0.00    -0.240 OA 
HETATM   37  C   UNL     1      -9.264   9.135  65.629  1.00  0.00    -0.234 C  
ENDBRANCH  34  36
ENDBRANCH  25  34
ENDBRANCH  22  25
ENDBRANCH   5  21
TORSDOF 7
ENDMDL
MODEL        2
REMARK 921   NORMALIZED FREE ENERGY PREDICTED BY IDOCK:   -6.87 KCAL/MOL
REMARK 922        TOTAL FREE ENERGY PREDICTED BY IDOCK:  -11.20 KCAL/MOL
REMARK 923 INTER-LIGAND FREE ENERGY PREDICTED BY IDOCK:   -9.81 KCAL/MOL
REMARK 924 INTRA-LIGAND FREE ENERGY PREDICTED BY IDOCK:   -1.39 KCAL/MOL
REMARK 927      BINDING AFFINITY PREDICTED BY RF-SCORE:    0.00 PKD
ROOT
HETATM    1  C   UNL     1     -10.287  10.831  68.868  1.00  0.00    -0.202 C  
HETATM    2  S   UNL     1     -11.691  11.518  69.735  1.00  0.00    -0.366 SA 
HETATM    3  C   UNL     1     -11.711  10.255  70.995  1.00  0.00    -0.370 C  
HETATM    4  C   UNL     1     -11.450   8.824  70.541  1.00  0.00    -0.222 C  
HETATM    5  CA  UNL     1     -10.252  11.111  67.336  1.00  0.00    -0.190 C  
HETATM    6  CA  UNL     1     -10.888   8.458  69.359  1.00  0.00    -0.082 C  
HETATM    7  OXT UNL     1      -9.746   6.690  68.157  1.00  0.00    -0.130 OA 
HETATM    8  N   UNL     1     -10.508   9.443  68.481  1.00  0.00    -0.206 N  
HETATM    9  C   UNL     1     -10.658   7.027  68.901  1.00  0.00    -0.215 C  
HETATM   10  O   UNL     1      -9.292   8.871  66.527  1.00  0.00    -0.165 OA 
HETATM   11  C   UNL     1      -9.908   9.580  67.281  1.00  0.00    -0.177 C  
HETATM   12  O   UNL     1     -11.535   6.105  69.359  1.00  0.00    -0.423 OA 
ENDROOT
BRANCH   4  13
HETATM   13  C   UNL     1     -11.909   7.930  71.596  1.00  0.00    -0.325 C  
HETATM   14  C   UNL     1     -11.202   7.137  72.414  1.00  0.00    -0.309 C  
BRANCH  14  15
HETATM   15  C   UNL     1      -9.788   6.980  72.467  1.00  0.00    -0.154 A  
HETATM   16  C   UNL     1      -9.036   5.831  72.220  1.00  0.00    -0.142 A  
HETATM   17  N   UNL     1      -7.704   5.895  72.597  1.00  0.00    -0.100 NA 
HETATM   18  S   UNL     1      -8.715   8.216  73.024  1.00  0.00    -0.239 SA 
HETATM   19  C   UNL     1      -9.509   4.544  71.633  1.00  0.00    -0.210 C  
HETATM   20  C   UNL     1      -7.429   7.095  73.048  1.00  0.00    -0.072 A  
ENDBRANCH  14  15
ENDBRANCH   4  13
BRANCH   5  21
HETATM   21  N   UNL     1     -11.494  11.685  66.727  1.00  0.00    -0.290 N  
HETATM   22  C   UNL     1     -11.727  12.475  65.614  1.00  0.00    -0.423 C  
HETATM   23  O   UNL     1     -12.891  12.594  65.226  1.00  0.00    -0.656 OA 
HETATM   24  H   UNL     1     -12.344  11.444  67.238  1.00  0.00     0.000 HD 
BRANCH  22  25
HETATM   25  C   UNL     1     -10.681  13.343  64.942  1.00  0.00    -0.369 C  
BRANCH  25  26
HETATM   26  C   UNL     1     -10.320  14.670  65.502  1.00  0.00    -0.362 A  
HETATM   27  H2  UNL     1     -10.385  18.905  66.103  1.00  0.00     0.000 HD 
HETATM   28  H1  UNL     1     -11.146  18.429  64.582  1.00  0.00     0.000 HD 
HETATM   29  C   UNL     1      -9.621  14.826  66.693  1.00  0.00    -0.272 A  
HETATM   30  N   UNL     1     -10.662  15.889  64.910  1.00  0.00    -0.584 NA 
HETATM   31  S   UNL     1      -9.515  16.472  67.132  1.00  0.00    -0.245 SA 
HETATM   32  N   UNL     1     -10.651  18.178  65.438  1.00  0.00    -0.557 NA 
HETATM   33  C   UNL     1     -10.347  16.894  65.693  1.00  0.00    -0.237 A  
ENDBRANCH  25  26
BRANCH  25  34
HETATM   34  N   UNL     1      -9.928  12.986  63.938  1.00  0.00    -0.755 NA 
HETATM   35  H   UNL     1      -9.062  13.496  63.765  1.00  0.00     0.000 HD 
BRANCH  34  36
HETATM   36  O   UNL     1     -10.272  11.926  63.093  1.00  0.00    -0.415 OA 
HETATM   37  C   UNL     1      -9.661  10.661  63.242  1.00  0.00    -0.344 C  
ENDBRANCH  34  36
ENDBRANCH  25  34
ENDBRANCH  22  25
ENDBRANCH   5  21
TORSDOF 7
ENDMDL
MODEL        3
REMARK 921   NORMALIZED FREE ENERGY PREDICTED BY IDOCK:   -6.77 KCAL/MOL
REMARK 922        TOTAL FREE ENERGY PREDICTED BY IDOCK:  -11.05 KCAL/MOL
REMARK 923 INTER-LIGAND FREE ENERGY PREDICTED BY IDOCK:   -9.61 KCAL/MOL
REMARK 924 INTRA-LIGAND FREE ENERGY PREDICTED BY IDOCK:   -1.43 KCAL/MOL
REMARK 927      BINDING AFFINITY PREDICTED BY RF-SCORE:    0.00 PKD
ROOT
HETATM    1  C   UNL     1     -11.387  11.764  68.282  1.00  0.00    -0.282 C  
HETATM    2  S   UNL     1      -9.845  11.104  67.663  1.00  0.00    -0.176 SA 
HETATM    3  C   UNL     1     -10.205   9.426  68.149  1.00  0.00    -0.200 C  
HETATM    4  C   UNL     1     -10.877   9.228  69.502  1.00  0.00    -0.211 C  
HETATM    5  CA  UNL     1     -11.332  13.249  68.750  1.00  0.00    -0.290 C  
HETATM    6  CA  UNL     1     -11.518  10.191  70.216  1.00  0.00    -0.306 C  
HETATM    7  OXT UNL     1     -13.130  10.629  71.972  1.00  0.00    -0.481 OA 
HETATM    8  N   UNL     1     -11.587  11.458  69.694  1.00  0.00    -0.301 N  
HETATM    9  C   UNL     1     -12.161   9.992  71.579  1.00  0.00    -0.405 C  
HETATM   10  O   UNL     1     -12.911  13.105  70.770  1.00  0.00    -0.210 OA 
HETATM   11  C   UNL     1     -12.115  12.666  69.980  1.00  0.00    -0.269 C  
HETATM   12  O   UNL     1     -11.600   9.054  72.373  1.00  0.00    -0.272 OA 
ENDROOT
BRANCH   4  13
HETATM   13  C   UNL     1     -10.707   7.833  69.886  1.00  0.00    -0.245 C  
HETATM   14  C   UNL     1      -9.652   7.221  70.442  1.00  0.00    -0.165 C  
BRANCH  14  15
HETATM   15  C   UNL     1      -8.408   7.801  70.820  1.00  0.00    -0.116 A  
HETATM   16  C   UNL     1      -8.009   8.247  72.080  1.00  0.00    -0.140 A  
HETATM   17  N   UNL     1      -6.848   9.004  72.107  1.00  0.00    -0.309 NA 
HETATM   18  S   UNL     1      -7.167   8.213  69.686  1.00  0.00    -0.066 SA 
HETATM   19  C   UNL     1      -8.703   8.031  73.382  1.00  0.00    -0.323 C  
HETATM   20  C   UNL     1      -6.331   9.066  70.905  1.00  0.00    -0.060 A  
ENDBRANCH  14  15
ENDBRANCH   4  13
BRANCH   5  21
HETATM   21  N   UNL     1      -9.973  13.867  68.873  1.00  0.00    -0.410 N  
HETATM   22  C   UNL     1      -9.524  15.077  69.374  1.00  0.00    -0.127 C  
HETATM   23  O   UNL     1      -8.312  15.209  69.559  1.00  0.00    -0.223 OA 
HETATM   24  H   UNL     1      -9.224  13.274  68.514  1.00  0.00     0.000 HD 
BRANCH  22  25
HETATM   25  C   UNL     1     -10.390  16.310  69.548  1.00  0.00    -0.284 C  
BRANCH  25  26
HETATM   26  C   UNL     1     -10.294  17.446  68.596  1.00  0.00    -0.364 A  
HETATM   27  H2  UNL     1     -10.767  19.680  64.979  1.00  0.00     0.000 HD 
HETATM   28  H1  UNL     1     -10.986  17.945  64.733  1.00  0.00     0.000 HD 
HETATM   29  C   UNL     1     -10.012  18.747  68.996  1.00  0.00    -0.296 A  
HETATM   30  N   UNL     1     -10.496  17.333  67.218  1.00  0.00    -0.335 NA 
HETATM   31  S   UNL     1     -10.136  19.832  67.684  1.00  0.00    -0.440 SA 
HETATM   32  N   UNL     1     -10.772  18.730  65.349  1.00  0.00    -0.510 NA 
HETATM   33  C   UNL     1     -10.496  18.514  66.647  1.00  0.00    -0.398 A  
ENDBRANCH  25  26
BRANCH  25  34
HETATM   34  N   UNL     1     -11.353  16.446  70.417  1.00  0.00    -0.488 NA 
HETATM   35  H   UNL     1     -12.146  17.044  70.186  1.00  0.00     0.000 HD 
BRANCH  34  36
HETATM   36  O   UNL     1     -11.331  15.798  71.656  1.00  0.00    -0.384 OA 
HETATM   37  C   UNL     1     -12.248  16.155  72.670  1.00  0.00    -0.532 C  
ENDBRANCH  34  36
ENDBRANCH  25  34
ENDBRANCH  22  25
ENDBRANCH   5  21
TORSDOF 7
ENDMDL
MODEL        4
REMARK 921   NORMALIZED FREE ENERGY PREDICTED BY IDOCK:   -6.76 KCAL/MOL
REMARK 922        TOTAL FREE ENERGY PREDICTED BY IDOCK:  -11.04 KCAL/MOL
REMARK 923 INTER-LIGAND FREE ENERGY PREDICTED BY IDOCK:   -9.17 KCAL/MOL
REMARK 924 INTRA-LIGAND FREE ENERGY PREDICTED BY IDOCK:   -1.87 KCAL/MOL
REMARK 927      BINDING AFFINITY PREDICTED BY RF-SCORE:    0.00 PKD
ROOT
HETATM    1  C   UNL     1      -9.376  10.334  68.410  1.00  0.00    -0.143 C  
HETATM    2  S   UNL     1      -7.873  10.409  69.376  1.00  0.00    -0.150 SA 
HETATM    3  C   UNL     1      -8.429   9.228  70.593  1.00  0.00    -0.217 C  
HETATM    4  C   UNL     1      -9.882   9.330  71.040  1.00  0.00    -0.355 C  
HETATM    5  CA  UNL     1      -9.732  11.637  67.635  1.00  0.00    -0.180 C  
HETATM    6  CA  UNL     1     -10.868   9.996  70.384  1.00  0.00    -0.318 C  
HETATM    7  OXT UNL     1     -13.262  10.232  70.093  1.00  0.00    -0.058 OA 
HETATM    8  N   UNL     1     -10.557  10.637  69.210  1.00  0.00    -0.220 N  
HETATM    9  C   UNL     1     -12.309  10.118  70.852  1.00  0.00    -0.363 C  
HETATM   10  O   UNL     1     -12.286  11.590  67.896  1.00  0.00    -0.586 OA 
HETATM   11  C   UNL     1     -11.155  11.348  68.233  1.00  0.00    -0.244 C  
HETATM   12  O   UNL     1     -12.505  10.099  72.189  1.00  0.00    -0.278 OA 
ENDROOT
BRANCH   4  13
HETATM   13  C   UNL     1     -10.018   8.591  72.289  1.00  0.00    -0.385 C  
HETATM   14  C   UNL     1      -9.922   7.274  72.518  1.00  0.00    -0.213 C  
BRANCH  14  15
HETATM   15  C   UNL     1      -9.641   6.244  71.576  1.00  0.00    -0.155 A  
HETATM   16  C   UNL     1     -10.446   5.780  70.535  1.00  0.00    -0.263 A  
HETATM   17  N   UNL     1     -10.034   4.597  69.941  1.00  0.00    -0.226 NA 
HETATM   18  S   UNL     1      -8.238   5.236  71.660  1.00  0.00    -0.119 SA 
HETATM   19  C   UNL     1     -11.706   6.389  70.021  1.00  0.00    -0.345 C  
HETATM   20  C   UNL     1      -8.895   4.213  70.464  1.00  0.00    -0.082 A  
ENDBRANCH  14  15
ENDBRANCH   4  13
BRANCH   5  21
HETATM   21  N   UNL     1      -8.942  12.863  67.979  1.00  0.00    -0.190 N  
HETATM   22  C   UNL     1      -9.280  14.083  68.539  1.00  0.00    -0.170 C  
HETATM   23  O   UNL     1      -8.365  14.814  68.922  1.00  0.00    -0.162 OA 
HETATM   24  H   UNL     1      -7.950  12.781  67.753  1.00  0.00     0.000 HD 
BRANCH  22  25
HETATM   25  C   UNL     1     -10.682  14.660  68.558  1.00  0.00    -0.247 C  
BRANCH  25  26
HETATM   26  C   UNL     1     -11.413  14.839  69.839  1.00  0.00    -0.281 A  
HETATM   27  H2  UNL     1     -13.634  13.814  73.347  1.00  0.00     0.000 HD 
HETATM   28  H1  UNL     1     -13.680  12.540  72.126  1.00  0.00     0.000 HD 
HETATM   29  C   UNL     1     -11.308  15.984  70.618  1.00  0.00    -0.399 A  
HETATM   30  N   UNL     1     -12.256  13.875  70.399  1.00  0.00    -0.347 NA 
HETATM   31  S   UNL     1     -12.143  15.800  72.095  1.00  0.00    -0.530 SA 
HETATM   32  N   UNL     1     -13.379  13.468  72.423  1.00  0.00    -0.530 NA 
HETATM   33  C   UNL     1     -12.649  14.239  71.598  1.00  0.00    -0.351 A  
ENDBRANCH  25  26
BRANCH  25  34
HETATM   34  N   UNL     1     -11.312  15.162  67.532  1.00  0.00    -0.333 NA 
HETATM   35  H   UNL     1     -11.932  15.959  67.674  1.00  0.00     0.000 HD 
BRANCH  34  36
HETATM   36  O   UNL     1     -11.162  14.640  66.242  1.00  0.00    -0.331 OA 
HETATM   37  C   UNL     1     -10.380  15.318  65.280  1.00  0.00    -0.401 C  
ENDBRANCH  34  36
ENDBRANCH  25  34
ENDBRANCH  22  25
ENDBRANCH   5  21
TORSDOF 7
ENDMDL
MODEL        5
REMARK 921   NORMALIZED FREE ENERGY PREDICTED BY IDOCK:   -6.75 KCAL/MOL
REMARK 922        TOTAL FREE ENERGY PREDICTED BY IDOCK:  -11.03 KCAL/MOL
REMARK 923 INTER-LIGAND FREE ENERGY PREDICTED BY IDOCK:   -9.60 KCAL/MOL
REMARK 924 INTRA-LIGAND FREE ENERGY PREDICTED BY IDOCK:   -1.43 KCAL/MOL
REMARK 927      BINDING AFFINITY PREDICTED BY RF-SCORE:    0.00 PKD
ROOT
HETATM    1  C   UNL     1     -11.283  11.263  69.194  1.00  0.00    -0.273 C  
HETATM    2  S   UNL     1      -9.675  11.821  68.647  1.00  0.00    -0.070 SA 
HETATM    3  C   UNL     1      -8.919  10.210  68.764  1.00  0.00    -0.147 C  
HETATM    4  C   UNL     1      -9.297   9.356  69.968  1.00  0.00    -0.253 C  
HETATM    5  CA  UNL     1     -12.139  12.332  69.936  1.00  0.00    -0.249 C  
HETATM    6  CA  UNL     1     -10.377   9.551  70.770  1.00  0.00    -0.306 C  
HETATM    7  OXT UNL     1     -11.877   8.530  72.376  1.00  0.00    -0.380 OA 
HETATM    8  N   UNL     1     -11.220  10.597  70.490  1.00  0.00    -0.268 N  
HETATM    9  C   UNL     1     -10.731   8.712  71.987  1.00  0.00    -0.357 C  
HETATM   10  O   UNL     1     -13.250  10.826  71.694  1.00  0.00    -0.413 OA 
HETATM   11  C   UNL     1     -12.371  11.142  70.934  1.00  0.00    -0.399 C  
HETATM   12  O   UNL     1      -9.694   8.156  72.651  1.00  0.00    -0.240 OA 
ENDROOT
BRANCH   4  13
HETATM   13  C   UNL     1      -8.298   8.303  70.101  1.00  0.00    -0.124 C  
HETATM   14  C   UNL     1      -8.148   7.172  69.397  1.00  0.00    -0.130 C  
BRANCH  14  15
HETATM   15  C   UNL     1      -8.940   6.713  68.306  1.00  0.00    -0.122 A  
HETATM   16  C   UNL     1     -10.222   6.163  68.339  1.00  0.00    -0.175 A  
HETATM   17  N   UNL     1     -10.647   5.565  67.162  1.00  0.00    -0.256 NA 
HETATM   18  S   UNL     1      -8.355   6.617  66.682  1.00  0.00    -0.121 SA 
HETATM   19  C   UNL     1     -11.161   6.115  69.497  1.00  0.00    -0.490 C  
HETATM   20  C   UNL     1      -9.740   5.729  66.231  1.00  0.00    -0.117 A  
ENDBRANCH  14  15
ENDBRANCH   4  13
BRANCH   5  21
HETATM   21  N   UNL     1     -11.443  13.598  70.331  1.00  0.00    -0.506 N  
HETATM   22  C   UNL     1     -11.296  14.830  69.717  1.00  0.00    -0.283 C  
HETATM   23  O   UNL     1     -10.865  15.764  70.397  1.00  0.00    -0.312 OA 
HETATM   24  H   UNL     1     -10.981  13.540  71.239  1.00  0.00     0.000 HD 
BRANCH  22  25
HETATM   25  C   UNL     1     -11.462  15.075  68.230  1.00  0.00    -0.332 C  
BRANCH  25  26
HETATM   26  C   UNL     1     -10.443  15.842  67.468  1.00  0.00    -0.298 A  
HETATM   27  H2  UNL     1      -8.519  19.181  65.612  1.00  0.00     0.000 HD 
HETATM   28  H1  UNL     1     -10.225  19.489  65.949  1.00  0.00     0.000 HD 
HETATM   29  C   UNL     1      -9.159  15.367  67.229  1.00  0.00    -0.206 A  
HETATM   30  N   UNL     1     -10.659  17.117  66.937  1.00  0.00    -0.261 NA 
HETATM   31  S   UNL     1      -8.197  16.555  66.471  1.00  0.00    -0.324 SA 
HETATM   32  N   UNL     1      -9.421  18.861  65.964  1.00  0.00    -0.476 NA 
HETATM   33  C   UNL     1      -9.547  17.612  66.446  1.00  0.00    -0.274 A  
ENDBRANCH  25  26
BRANCH  25  34
HETATM   34  N   UNL     1     -12.389  14.557  67.472  1.00  0.00    -0.582 NA 
HETATM   35  H   UNL     1     -13.359  14.832  67.620  1.00  0.00     0.000 HD 
BRANCH  34  36
HETATM   36  O   UNL     1     -12.091  13.634  66.464  1.00  0.00    -0.404 OA 
HETATM   37  C   UNL     1     -12.500  13.870  65.132  1.00  0.00    -0.453 C  
ENDBRANCH  34  36
ENDBRANCH  25  34
ENDBRANCH  22  25
ENDBRANCH   5  21
TORSDOF 7
ENDMDL
MODEL        6
REMARK 921   NORMALIZED FREE ENERGY PREDICTED BY IDOCK:   -6.65 KCAL/MOL
REMARK 922        TOTAL FREE ENERGY PREDICTED BY IDOCK:  -10.89 KCAL/MOL
REMARK 923 INTER-LIGAND FREE ENERGY PREDICTED BY IDOCK:   -8.91 KCAL/MOL
REMARK 924 INTRA-LIGAND FREE ENERGY PREDICTED BY IDOCK:   -1.97 KCAL/MOL
REMARK 927      BINDING AFFINITY PREDICTED BY RF-SCORE:    0.00 PKD
ROOT
HETATM    1  C   UNL     1      -9.361  10.405  68.462  1.00  0.00    -0.160 C  
HETATM    2  S   UNL     1      -7.814  10.597  69.338  1.00  0.00    -0.078 SA 
HETATM    3  C   UNL     1      -8.183   9.341  70.551  1.00  0.00    -0.191 C  
HETATM    4  C   UNL     1      -9.609   9.298  71.087  1.00  0.00    -0.305 C  
HETATM    5  CA  UNL     1      -9.881  11.688  67.748  1.00  0.00    -0.179 C  
HETATM    6  CA  UNL     1     -10.690   9.885  70.510  1.00  0.00    -0.317 C  
HETATM    7  OXT UNL     1     -13.109   9.906  70.370  1.00  0.00    -0.090 OA 
HETATM    8  N   UNL     1     -10.512  10.579  69.339  1.00  0.00    -0.230 N  
HETATM    9  C   UNL     1     -12.104   9.862  71.067  1.00  0.00    -0.358 C  
HETATM   10  O   UNL     1     -12.399  11.399  68.159  1.00  0.00    -0.502 OA 
HETATM   11  C   UNL     1     -11.232  11.255  68.420  1.00  0.00    -0.262 C  
HETATM   12  O   UNL     1     -12.215   9.794  72.412  1.00  0.00    -0.067 OA 
ENDROOT
BRANCH   4  13
HETATM   13  C   UNL     1      -9.599   8.520  72.320  1.00  0.00    -0.377 C  
HETATM   14  C   UNL     1      -9.647   7.192  72.493  1.00  0.00    -0.172 C  
BRANCH  14  15
HETATM   15  C   UNL     1      -9.705   6.184  71.490  1.00  0.00    -0.162 A  
HETATM   16  C   UNL     1      -8.714   5.273  71.121  1.00  0.00    -0.128 A  
HETATM   17  N   UNL     1      -8.946   4.581  69.942  1.00  0.00    -0.089 NA 
HETATM   18  S   UNL     1     -11.033   6.006  70.396  1.00  0.00    -0.320 SA 
HETATM   19  C   UNL     1      -7.432   4.991  71.827  1.00  0.00    -0.095 C  
HETATM   20  C   UNL     1     -10.125   4.899  69.467  1.00  0.00    -0.216 A  
ENDBRANCH  14  15
ENDBRANCH   4  13
BRANCH   5  21
HETATM   21  N   UNL     1      -9.186  12.973  68.079  1.00  0.00    -0.206 N  
HETATM   22  C   UNL     1      -9.615  14.169  68.627  1.00  0.00    -0.179 C  
HETATM   23  O   UNL     1      -8.758  14.971  69.003  1.00  0.00    -0.193 OA 
HETATM   24  H   UNL     1      -8.190  12.964  67.854  1.00  0.00     0.000 HD 
BRANCH  22  25
HETATM   25  C   UNL     1     -11.057  14.640  68.641  1.00  0.00    -0.262 C  
BRANCH  25  26
HETATM   26  C   UNL     1     -11.787  14.813  69.923  1.00  0.00    -0.316 A  
HETATM   27  H2  UNL     1     -13.996  13.774  73.435  1.00  0.00     0.000 HD 
HETATM   28  H1  UNL     1     -14.035  12.499  72.213  1.00  0.00     0.000 HD 
HETATM   29  C   UNL     1     -11.689  15.960  70.702  1.00  0.00    -0.384 A  
HETATM   30  N   UNL     1     -12.623  13.845  70.484  1.00  0.00    -0.331 NA 
HETATM   31  S   UNL     1     -12.521  15.770  72.180  1.00  0.00    -0.483 SA 
HETATM   32  N   UNL     1     -13.740  13.430  72.509  1.00  0.00    -0.698 NA 
HETATM   33  C   UNL     1     -13.016  14.205  71.684  1.00  0.00    -0.347 A  
ENDBRANCH  25  26
BRANCH  25  34
HETATM   34  N   UNL     1     -11.732  15.052  67.604  1.00  0.00    -0.369 NA 
HETATM   35  H   UNL     1     -12.439  15.775  67.730  1.00  0.00     0.000 HD 
BRANCH  34  36
HETATM   36  O   UNL     1     -11.517  14.530  66.324  1.00  0.00    -0.347 OA 
HETATM   37  C   UNL     1     -12.524  13.781  65.675  1.00  0.00    -0.503 C  
ENDBRANCH  34  36
ENDBRANCH  25  34
ENDBRANCH  22  25
ENDBRANCH   5  21
TORSDOF 7
ENDMDL
MODEL        7
REMARK 921   NORMALIZED FREE ENERGY PREDICTED BY IDOCK:   -6.61 KCAL/MOL
REMARK 922        TOTAL FREE ENERGY PREDICTED BY IDOCK:  -10.83 KCAL/MOL
REMARK 923 INTER-LIGAND FREE ENERGY PREDICTED BY IDOCK:   -9.41 KCAL/MOL
REMARK 924 INTRA-LIGAND FREE ENERGY PREDICTED BY IDOCK:   -1.42 KCAL/MOL
REMARK 927      BINDING AFFINITY PREDICTED BY RF-SCORE:    0.00 PKD
ROOT
HETATM    1  C   UNL     1     -11.859  14.000  68.801  1.00  0.00    -0.361 C  
HETATM    2  S   UNL     1     -10.672  14.756  69.904  1.00  0.00    -0.047 SA 
HETATM    3  C   UNL     1     -10.803  16.375  69.164  1.00  0.00    -0.329 C  
HETATM    4  C   UNL     1     -10.896  16.433  67.645  1.00  0.00    -0.280 C  
HETATM    5  CA  UNL     1     -11.638  12.483  68.529  1.00  0.00    -0.321 C  
HETATM    6  CA  UNL     1     -11.217  15.394  66.830  1.00  0.00    -0.214 C  
HETATM    7  OXT UNL     1     -12.025  14.757  64.636  1.00  0.00    -0.434 OA 
HETATM    8  N   UNL     1     -11.493  14.176  67.400  1.00  0.00    -0.326 N  
HETATM    9  C   UNL     1     -11.280  15.453  65.313  1.00  0.00    -0.310 C  
HETATM   10  O   UNL     1     -12.308  12.404  66.051  1.00  0.00    -0.627 OA 
HETATM   11  C   UNL     1     -11.878  12.933  67.044  1.00  0.00    -0.374 C  
HETATM   12  O   UNL     1     -10.447  16.334  64.715  1.00  0.00    -0.607 OA 
ENDROOT
BRANCH   4  13
HETATM   13  C   UNL     1     -10.579  17.794  67.230  1.00  0.00    -0.322 C  
HETATM   14  C   UNL     1      -9.392  18.412  67.159  1.00  0.00    -0.271 C  
BRANCH  14  15
HETATM   15  C   UNL     1      -8.110  17.873  67.463  1.00  0.00    -0.225 A  
HETATM   16  C   UNL     1      -7.140  18.383  68.327  1.00  0.00    -0.259 A  
HETATM   17  N   UNL     1      -5.887  17.797  68.234  1.00  0.00    -0.161 NA 
HETATM   18  S   UNL     1      -7.440  16.499  66.654  1.00  0.00    -0.237 SA 
HETATM   19  C   UNL     1      -7.291  19.499  69.304  1.00  0.00    -0.311 C  
HETATM   20  C   UNL     1      -5.924  16.809  67.374  1.00  0.00    -0.161 A  
ENDBRANCH  14  15
ENDBRANCH   4  13
BRANCH   5  21
HETATM   21  N   UNL     1     -10.342  11.895  68.998  1.00  0.00    -0.404 N  
HETATM   22  C   UNL     1      -9.887  10.595  69.139  1.00  0.00    -0.200 C  
HETATM   23  O   UNL     1      -8.680  10.426  69.327  1.00  0.00    -0.159 OA 
HETATM   24  H   UNL     1      -9.654  12.598  69.271  1.00  0.00     0.000 HD 
BRANCH  22  25
HETATM   25  C   UNL     1     -10.783   9.378  69.252  1.00  0.00    -0.211 C  
BRANCH  25  26
HETATM   26  C   UNL     1     -10.453   8.121  68.531  1.00  0.00    -0.162 A  
HETATM   27  H2  UNL     1      -9.841   3.941  67.864  1.00  0.00     0.000 HD 
HETATM   28  H1  UNL     1      -9.843   4.356  69.580  1.00  0.00     0.000 HD 
HETATM   29  C   UNL     1     -10.413   8.031  67.145  1.00  0.00    -0.338 A  
HETATM   30  N   UNL     1     -10.174   6.907  69.163  1.00  0.00    -0.180 NA 
HETATM   31  S   UNL     1     -10.165   6.419  66.642  1.00  0.00    -0.114 SA 
HETATM   32  N   UNL     1      -9.903   4.641  68.603  1.00  0.00    -0.148 NA 
HETATM   33  C   UNL     1     -10.064   5.938  68.285  1.00  0.00    -0.166 A  
ENDBRANCH  25  26
BRANCH  25  34
HETATM   34  N   UNL     1     -11.807   9.258  70.052  1.00  0.00    -0.450 NA 
HETATM   35  H   UNL     1     -12.527   8.570  69.834  1.00  0.00     0.000 HD 
BRANCH  34  36
HETATM   36  O   UNL     1     -11.946  10.046  71.200  1.00  0.00    -0.332 OA 
HETATM   37  C   UNL     1     -13.133  10.779  71.427  1.00  0.00    -0.369 C  
ENDBRANCH  34  36
ENDBRANCH  25  34
ENDBRANCH  22  25
ENDBRANCH   5  21
TORSDOF 7
ENDMDL
MODEL        8
REMARK 921   NORMALIZED FREE ENERGY PREDICTED BY IDOCK:   -6.61 KCAL/MOL
REMARK 922        TOTAL FREE ENERGY PREDICTED BY IDOCK:  -10.82 KCAL/MOL
REMARK 923 INTER-LIGAND FREE ENERGY PREDICTED BY IDOCK:   -9.36 KCAL/MOL
REMARK 924 INTRA-LIGAND FREE ENERGY PREDICTED BY IDOCK:   -1.47 KCAL/MOL
REMARK 927      BINDING AFFINITY PREDICTED BY RF-SCORE:    0.00 PKD
ROOT
HETATM    1  C   UNL     1     -11.914  11.395  69.053  1.00  0.00    -0.320 C  
HETATM    2  S   UNL     1     -10.320  11.130  68.288  1.00  0.00    -0.189 SA 
HETATM    3  C   UNL     1     -10.356   9.358  68.497  1.00  0.00    -0.209 C  
HETATM    4  C   UNL     1     -10.905   8.831  69.817  1.00  0.00    -0.196 C  
HETATM    5  CA  UNL     1     -12.089  12.771  69.761  1.00  0.00    -0.237 C  
HETATM    6  CA  UNL     1     -11.659   9.536  70.700  1.00  0.00    -0.283 C  
HETATM    7  OXT UNL     1     -13.217   9.393  72.551  1.00  0.00    -0.426 OA 
HETATM    8  N   UNL     1     -11.975  10.837  70.399  1.00  0.00    -0.326 N  
HETATM    9  C   UNL     1     -12.178   9.011  72.029  1.00  0.00    -0.375 C  
HETATM   10  O   UNL     1     -13.499  12.027  71.773  1.00  0.00    -0.315 OA 
HETATM   11  C   UNL     1     -12.686  11.869  70.898  1.00  0.00    -0.209 C  
HETATM   12  O   UNL     1     -11.418   8.075  72.638  1.00  0.00    -0.381 OA 
ENDROOT
BRANCH   4  13
HETATM   13  C   UNL     1     -10.474   7.445  69.957  1.00  0.00    -0.233 C  
HETATM   14  C   UNL     1      -9.296   6.953  70.364  1.00  0.00    -0.159 C  
BRANCH  14  15
HETATM   15  C   UNL     1      -8.147   7.680  70.786  1.00  0.00    -0.103 A  
HETATM   16  C   UNL     1      -7.698   7.909  72.087  1.00  0.00    -0.101 A  
HETATM   17  N   UNL     1      -6.702   8.865  72.217  1.00  0.00    -0.288 NA 
HETATM   18  S   UNL     1      -7.139   8.578  69.704  1.00  0.00    -0.052 SA 
HETATM   19  C   UNL     1      -8.190   7.273  73.343  1.00  0.00    -0.139 C  
HETATM   20  C   UNL     1      -6.344   9.295  71.032  1.00  0.00    -0.076 A  
ENDBRANCH  14  15
ENDBRANCH   4  13
BRANCH   5  21
HETATM   21  N   UNL     1     -10.852  13.596  69.946  1.00  0.00    -0.335 N  
HETATM   22  C   UNL     1     -10.416  14.789  69.393  1.00  0.00    -0.199 C  
HETATM   23  O   UNL     1      -9.453  15.349  69.920  1.00  0.00    -0.245 OA 
HETATM   24  H   UNL     1     -10.196  13.197  70.617  1.00  0.00     0.000 HD 
BRANCH  22  25
HETATM   25  C   UNL     1     -10.924  15.367  68.087  1.00  0.00    -0.297 C  
BRANCH  25  26
HETATM   26  C   UNL     1     -11.046  14.516  66.875  1.00  0.00    -0.325 A  
HETATM   27  H2  UNL     1     -12.894  12.305  63.715  1.00  0.00     0.000 HD 
HETATM   28  H1  UNL     1     -14.006  12.635  65.046  1.00  0.00     0.000 HD 
HETATM   29  C   UNL     1      -9.997  14.308  65.988  1.00  0.00    -0.319 A  
HETATM   30  N   UNL     1     -12.220  13.863  66.492  1.00  0.00    -0.450 NA 
HETATM   31  S   UNL     1     -10.514  13.419  64.625  1.00  0.00    -0.388 SA 
HETATM   32  N   UNL     1     -13.074  12.701  64.637  1.00  0.00    -0.848 NA 
HETATM   33  C   UNL     1     -12.082  13.308  65.311  1.00  0.00    -0.418 A  
ENDBRANCH  25  26
BRANCH  25  34
HETATM   34  N   UNL     1     -11.411  16.567  67.924  1.00  0.00    -0.147 NA 
HETATM   35  H   UNL     1     -12.418  16.706  68.001  1.00  0.00     0.000 HD 
BRANCH  34  36
HETATM   36  O   UNL     1     -10.593  17.668  67.648  1.00  0.00    -0.369 OA 
HETATM   37  C   UNL     1     -10.395  18.099  66.316  1.00  0.00    -0.397 C  
ENDBRANCH  34  36
ENDBRANCH  25  34
ENDBRANCH  22  25
ENDBRANCH   5  21
TORSDOF 7
ENDMDL
MODEL        9
REMARK 921   NORMALIZED FREE ENERGY PREDICTED BY IDOCK:   -6.60 KCAL/MOL
REMARK 922        TOTAL FREE ENERGY PREDICTED BY IDOCK:  -10.81 KCAL/MOL
REMARK 923 INTER-LIGAND FREE ENERGY PREDICTED BY IDOCK:   -9.32 KCAL/MOL
REMARK 924 INTRA-LIGAND FREE ENERGY PREDICTED BY IDOCK:   -1.49 KCAL/MOL
REMARK 927      BINDING AFFINITY PREDICTED BY RF-SCORE:    0.00 PKD
ROOT
HETATM    1  C   UNL     1     -11.967  14.081  68.777  1.00  0.00    -0.347 C  
HETATM    2  S   UNL     1     -10.788  14.831  69.892  1.00  0.00    -0.102 SA 
HETATM    3  C   UNL     1     -10.905  16.451  69.151  1.00  0.00    -0.329 C  
HETATM    4  C   UNL     1     -10.984  16.509  67.631  1.00  0.00    -0.207 C  
HETATM    5  CA  UNL     1     -11.750  12.562  68.507  1.00  0.00    -0.324 C  
HETATM    6  CA  UNL     1     -11.301  15.472  66.813  1.00  0.00    -0.054 C  
HETATM    7  OXT UNL     1     -12.091  14.838  64.611  1.00  0.00    -0.443 OA 
HETATM    8  N   UNL     1     -11.587  14.254  67.380  1.00  0.00    -0.350 N  
HETATM    9  C   UNL     1     -11.349  15.531  65.295  1.00  0.00    -0.189 C  
HETATM   10  O   UNL     1     -12.397  12.486  66.023  1.00  0.00    -0.615 OA 
HETATM   11  C   UNL     1     -11.974  13.014  67.020  1.00  0.00    -0.347 C  
HETATM   12  O   UNL     1     -10.507  16.409  64.705  1.00  0.00    -0.620 OA 
ENDROOT
BRANCH   4  13
HETATM   13  C   UNL     1     -10.658  17.869  67.219  1.00  0.00    -0.341 C  
HETATM   14  C   UNL     1      -9.466  18.479  67.148  1.00  0.00    -0.294 C  
BRANCH  14  15
HETATM   15  C   UNL     1      -8.188  17.931  67.451  1.00  0.00    -0.219 A  
HETATM   16  C   UNL     1      -7.190  18.463  68.269  1.00  0.00    -0.263 A  
HETATM   17  N   UNL     1      -5.950  17.848  68.177  1.00  0.00    -0.168 NA 
HETATM   18  S   UNL     1      -7.561  16.507  66.696  1.00  0.00    -0.266 SA 
HETATM   19  C   UNL     1      -7.299  19.627  69.193  1.00  0.00    -0.339 C  
HETATM   20  C   UNL     1      -6.025  16.821  67.368  1.00  0.00    -0.161 A  
ENDBRANCH  14  15
ENDBRANCH   4  13
BRANCH   5  21
HETATM   21  N   UNL     1     -10.461  11.969  68.989  1.00  0.00    -0.405 N  
HETATM   22  C   UNL     1      -9.679  10.915  68.548  1.00  0.00    -0.183 C  
HETATM   23  O   UNL     1      -8.541  10.811  69.009  1.00  0.00    -0.163 OA 
HETATM   24  H   UNL     1     -10.082  12.439  69.812  1.00  0.00     0.000 HD 
BRANCH  22  25
HETATM   25  C   UNL     1     -10.178   9.782  67.673  1.00  0.00    -0.213 C  
BRANCH  25  26
HETATM   26  C   UNL     1      -9.665   9.608  66.290  1.00  0.00    -0.240 A  
HETATM   27  H2  UNL     1      -8.648  10.587  62.252  1.00  0.00     0.000 HD 
HETATM   28  H1  UNL     1      -9.799  11.729  62.953  1.00  0.00     0.000 HD 
HETATM   29  C   UNL     1      -8.827   8.563  65.919  1.00  0.00    -0.182 A  
HETATM   30  N   UNL     1      -9.949  10.478  65.234  1.00  0.00    -0.279 NA 
HETATM   31  S   UNL     1      -8.294   8.746  64.308  1.00  0.00    -0.116 SA 
HETATM   32  N   UNL     1      -9.231  10.885  63.034  1.00  0.00    -0.285 NA 
HETATM   33  C   UNL     1      -9.248  10.165  64.169  1.00  0.00    -0.270 A  
ENDBRANCH  25  26
BRANCH  25  34
HETATM   34  N   UNL     1     -10.961   8.812  68.057  1.00  0.00    -0.480 NA 
HETATM   35  H   UNL     1     -11.921   8.787  67.713  1.00  0.00     0.000 HD 
BRANCH  34  36
HETATM   36  O   UNL     1     -10.525   7.808  68.928  1.00  0.00    -0.213 OA 
HETATM   37  C   UNL     1     -10.905   6.462  68.719  1.00  0.00    -0.317 C  
ENDBRANCH  34  36
ENDBRANCH  25  34
ENDBRANCH  22  25
ENDBRANCH   5  21
TORSDOF 7
ENDMDL
MODEL       10
REMARK 921   NORMALIZED FREE ENERGY PREDICTED BY IDOCK:   -6.60 KCAL/MOL
REMARK 922        TOTAL FREE ENERGY PREDICTED BY IDOCK:  -10.81 KCAL/MOL
REMARK 923 INTER-LIGAND FREE ENERGY PREDICTED BY IDOCK:   -9.44 KCAL/MOL
REMARK 924 INTRA-LIGAND FREE ENERGY PREDICTED BY IDOCK:   -1.37 KCAL/MOL
REMARK 927      BINDING AFFINITY PREDICTED BY RF-SCORE:    0.00 PKD
ROOT
HETATM    1  C   UNL     1     -11.193  13.030  66.774  1.00  0.00    -0.298 C  
HETATM    2  S   UNL     1     -10.024  13.145  68.122  1.00  0.00    -0.236 SA 
HETATM    3  C   UNL     1     -10.504  14.800  68.584  1.00  0.00    -0.250 C  
HETATM    4  C   UNL     1     -10.785  15.779  67.451  1.00  0.00    -0.317 C  
HETATM    5  CA  UNL     1     -10.760  12.104  65.599  1.00  0.00    -0.275 C  
HETATM    6  CA  UNL     1     -11.026  15.443  66.156  1.00  0.00    -0.279 C  
HETATM    7  OXT UNL     1     -11.972  16.178  64.050  1.00  0.00    -0.897 OA 
HETATM    8  N   UNL     1     -11.029  14.114  65.813  1.00  0.00    -0.296 N  
HETATM    9  C   UNL     1     -11.277  16.428  65.025  1.00  0.00    -0.134 C  
HETATM   10  O   UNL     1     -11.697  13.463  63.633  1.00  0.00    -0.411 OA 
HETATM   11  C   UNL     1     -11.245  13.326  64.741  1.00  0.00    -0.331 C  
HETATM   12  O   UNL     1     -10.675  17.633  65.139  1.00  0.00    -0.658 OA 
ENDROOT
BRANCH   4  13
HETATM   13  C   UNL     1     -10.747  17.126  68.004  1.00  0.00    -0.372 C  
HETATM   14  C   UNL     1      -9.702  17.946  68.191  1.00  0.00    -0.320 C  
BRANCH  14  15
HETATM   15  C   UNL     1      -8.337  17.702  67.870  1.00  0.00    -0.235 A  
HETATM   16  C   UNL     1      -7.575  18.266  66.846  1.00  0.00    -0.217 A  
HETATM   17  N   UNL     1      -6.353  17.656  66.604  1.00  0.00    -0.179 NA 
HETATM   18  S   UNL     1      -7.380  16.488  68.646  1.00  0.00    -0.207 SA 
HETATM   19  C   UNL     1      -7.939  19.416  65.971  1.00  0.00    -0.280 C  
HETATM   20  C   UNL     1      -6.155  16.700  67.478  1.00  0.00    -0.154 A  
ENDBRANCH  14  15
ENDBRANCH   4  13
BRANCH   5  21
HETATM   21  N   UNL     1      -9.340  11.628  65.603  1.00  0.00    -0.316 N  
HETATM   22  C   UNL     1      -8.753  10.397  65.842  1.00  0.00    -0.158 C  
HETATM   23  O   UNL     1      -7.566  10.257  65.539  1.00  0.00    -0.140 OA 
HETATM   24  H   UNL     1      -8.666  12.363  65.385  1.00  0.00     0.000 HD 
BRANCH  22  25
HETATM   25  C   UNL     1      -9.410   9.265  66.608  1.00  0.00    -0.170 C  
BRANCH  25  26
HETATM   26  C   UNL     1      -9.662   9.380  68.067  1.00  0.00    -0.145 A  
HETATM   27  H2  UNL     1     -11.844   9.715  71.731  1.00  0.00     0.000 HD 
HETATM   28  H1  UNL     1     -12.822  10.142  70.324  1.00  0.00     0.000 HD 
HETATM   29  C   UNL     1      -8.704   9.078  69.028  1.00  0.00    -0.138 A  
HETATM   30  N   UNL     1     -10.882   9.778  68.622  1.00  0.00    -0.213 NA 
HETATM   31  S   UNL     1      -9.364   9.159  70.599  1.00  0.00    -0.271 SA 
HETATM   32  N   UNL     1     -11.929   9.851  70.724  1.00  0.00    -0.307 NA 
HETATM   33  C   UNL     1     -10.865   9.647  69.928  1.00  0.00    -0.256 A  
ENDBRANCH  25  26
BRANCH  25  34
HETATM   34  N   UNL     1      -9.922   8.187  66.081  1.00  0.00    -0.467 NA 
HETATM   35  H   UNL     1     -10.433   8.261  65.202  1.00  0.00     0.000 HD 
BRANCH  34  36
HETATM   36  O   UNL     1      -9.790   6.932  66.685  1.00  0.00    -0.181 OA 
HETATM   37  C   UNL     1     -10.933   6.160  66.994  1.00  0.00    -0.330 C  
ENDBRANCH  34  36
ENDBRANCH  25  34
ENDBRANCH  22  25
ENDBRANCH   5  21
TORSDOF 7
ENDMDL
MODEL       11
REMARK 921   NORMALIZED FREE ENERGY PREDICTED BY IDOCK:   -6.53 KCAL/MOL
REMARK 922        TOTAL FREE ENERGY PREDICTED BY IDOCK:  -10.72 KCAL/MOL
REMARK 923 INTER-LIGAND FREE ENERGY PREDICTED BY IDOCK:   -9.96 KCAL/MOL
REMARK 924 INTRA-LIGAND FREE ENERGY PREDICTED BY IDOCK:   -0.76 KCAL/MOL
REMARK 927      BINDING AFFINITY PREDICTED BY RF-SCORE:    0.00 PKD
ROOT
HETATM    1  C   UNL     1     -12.113  13.725  68.560  1.00  0.00    -0.292 C  
HETATM    2  S   UNL     1     -11.082  14.344  69.882  1.00  0.00    -0.052 SA 
HETATM    3  C   UNL     1     -11.128  16.036  69.317  1.00  0.00    -0.331 C  
HETATM    4  C   UNL     1     -11.029  16.264  67.814  1.00  0.00    -0.281 C  
HETATM    5  CA  UNL     1     -11.850  12.245  68.151  1.00  0.00    -0.311 C  
HETATM    6  CA  UNL     1     -11.237  15.324  66.855  1.00  0.00    -0.256 C  
HETATM    7  OXT UNL     1     -11.756  14.942  64.518  1.00  0.00    -0.412 OA 
HETATM    8  N   UNL     1     -11.574  14.052  67.245  1.00  0.00    -0.348 N  
HETATM    9  C   UNL     1     -11.107  15.553  65.357  1.00  0.00    -0.298 C  
HETATM   10  O   UNL     1     -12.200  12.448  65.615  1.00  0.00    -0.599 OA 
HETATM   11  C   UNL     1     -11.902  12.860  66.707  1.00  0.00    -0.385 C  
HETATM   12  O   UNL     1     -10.211  16.488  64.972  1.00  0.00    -0.564 OA 
ENDROOT
BRANCH   4  13
HETATM   13  C   UNL     1     -10.671  17.660  67.597  1.00  0.00    -0.318 C  
HETATM   14  C   UNL     1      -9.461  18.229  67.507  1.00  0.00    -0.267 C  
BRANCH  14  15
HETATM   15  C   UNL     1      -8.190  17.591  67.587  1.00  0.00    -0.215 A  
HETATM   16  C   UNL     1      -7.148  17.620  66.660  1.00  0.00    -0.223 A  
HETATM   17  N   UNL     1      -6.132  16.702  66.873  1.00  0.00    -0.256 NA 
HETATM   18  S   UNL     1      -7.757  16.491  68.849  1.00  0.00    -0.232 SA 
HETATM   19  C   UNL     1      -7.025  18.495  65.459  1.00  0.00    -0.187 C  
HETATM   20  C   UNL     1      -6.356  16.044  67.984  1.00  0.00    -0.131 A  
ENDBRANCH  14  15
ENDBRANCH   4  13
BRANCH   5  21
HETATM   21  N   UNL     1     -10.620  11.599  68.712  1.00  0.00    -0.211 N  
HETATM   22  C   UNL     1     -10.411  10.468  69.482  1.00  0.00    -0.235 C  
HETATM   23  O   UNL     1      -9.256  10.052  69.593  1.00  0.00    -0.210 OA 
HETATM   24  H   UNL     1      -9.760  12.096  68.479  1.00  0.00     0.000 HD 
BRANCH  22  25
HETATM   25  C   UNL     1     -11.472   9.803  70.339  1.00  0.00    -0.280 C  
BRANCH  25  26
HETATM   26  C   UNL     1     -11.145   8.612  71.164  1.00  0.00    -0.266 A  
HETATM   27  H2  UNL     1      -9.859   6.319  74.538  1.00  0.00     0.000 HD 
HETATM   28  H1  UNL     1      -9.325   8.000  74.623  1.00  0.00     0.000 HD 
HETATM   29  C   UNL     1     -11.600   7.334  70.862  1.00  0.00    -0.300 A  
HETATM   30  N   UNL     1     -10.376   8.654  72.330  1.00  0.00    -0.328 NA 
HETATM   31  S   UNL     1     -11.183   6.228  72.093  1.00  0.00    -0.296 SA 
HETATM   32  N   UNL     1      -9.807   7.250  74.126  1.00  0.00    -0.219 NA 
HETATM   33  C   UNL     1     -10.373   7.487  72.930  1.00  0.00    -0.296 A  
ENDBRANCH  25  26
BRANCH  25  34
HETATM   34  N   UNL     1     -12.678  10.256  70.543  1.00  0.00    -0.505 NA 
HETATM   35  H   UNL     1     -13.346  10.245  69.773  1.00  0.00     0.000 HD 
BRANCH  34  36
HETATM   36  O   UNL     1     -13.083  10.755  71.786  1.00  0.00    -0.458 OA 
HETATM   37  C   UNL     1     -13.171  12.148  72.006  1.00  0.00    -0.391 C  
ENDBRANCH  34  36
ENDBRANCH  25  34
ENDBRANCH  22  25
ENDBRANCH   5  21
TORSDOF 7
ENDMDL
MODEL       12
REMARK 921   NORMALIZED FREE ENERGY PREDICTED BY IDOCK:   -6.52 KCAL/MOL
REMARK 922        TOTAL FREE ENERGY PREDICTED BY IDOCK:  -10.69 KCAL/MOL
REMARK 923 INTER-LIGAND FREE ENERGY PREDICTED BY IDOCK:   -9.16 KCAL/MOL
REMARK 924 INTRA-LIGAND FREE ENERGY PREDICTED BY IDOCK:   -1.54 KCAL/MOL
REMARK 927      BINDING AFFINITY PREDICTED BY RF-SCORE:    0.00 PKD
ROOT
HETATM    1  C   UNL     1     -11.826  14.326  68.691  1.00  0.00    -0.344 C  
HETATM    2  S   UNL     1     -10.565  15.064  69.721  1.00  0.00    -0.177 SA 
HETATM    3  C   UNL     1     -10.632  16.652  68.910  1.00  0.00    -0.337 C  
HETATM    4  C   UNL     1     -10.772  16.647  67.393  1.00  0.00    -0.253 C  
HETATM    5  CA  UNL     1     -11.697  12.788  68.484  1.00  0.00    -0.333 C  
HETATM    6  CA  UNL     1     -11.175  15.591  66.638  1.00  0.00    -0.118 C  
HETATM    7  OXT UNL     1     -12.087  14.900  64.502  1.00  0.00    -0.458 OA 
HETATM    8  N   UNL     1     -11.497  14.417  67.273  1.00  0.00    -0.342 N  
HETATM    9  C   UNL     1     -11.284  15.584  65.122  1.00  0.00    -0.318 C  
HETATM   10  O   UNL     1     -12.451  12.633  66.034  1.00  0.00    -0.555 OA 
HETATM   11  C   UNL     1     -11.960  13.183  66.988  1.00  0.00    -0.355 C  
HETATM   12  O   UNL     1     -10.424  16.389  64.459  1.00  0.00    -0.368 OA 
ENDROOT
BRANCH   4  13
HETATM   13  C   UNL     1     -10.396  17.967  66.905  1.00  0.00    -0.377 C  
HETATM   14  C   UNL     1      -9.189  18.549  66.854  1.00  0.00    -0.290 C  
BRANCH  14  15
HETATM   15  C   UNL     1      -7.940  18.000  67.259  1.00  0.00    -0.212 A  
HETATM   16  C   UNL     1      -7.064  18.473  68.237  1.00  0.00    -0.256 A  
HETATM   17  N   UNL     1      -5.804  17.894  68.242  1.00  0.00    -0.166 NA 
HETATM   18  S   UNL     1      -7.184  16.664  66.461  1.00  0.00    -0.132 SA 
HETATM   19  C   UNL     1      -7.317  19.544  69.242  1.00  0.00    -0.311 C  
HETATM   20  C   UNL     1      -5.749  16.944  67.340  1.00  0.00    -0.154 A  
ENDBRANCH  14  15
ENDBRANCH   4  13
BRANCH   5  21
HETATM   21  N   UNL     1     -10.421  12.151  68.942  1.00  0.00    -0.385 N  
HETATM   22  C   UNL     1      -9.586  11.196  68.388  1.00  0.00    -0.192 C  
HETATM   23  O   UNL     1      -8.472  11.042  68.893  1.00  0.00    -0.157 OA 
HETATM   24  H   UNL     1     -10.101  12.492  69.849  1.00  0.00     0.000 HD 
BRANCH  22  25
HETATM   25  C   UNL     1     -10.004  10.206  67.318  1.00  0.00    -0.195 C  
BRANCH  25  26
HETATM   26  C   UNL     1     -10.266   8.784  67.659  1.00  0.00    -0.239 A  
HETATM   27  H2  UNL     1     -11.516   5.387  69.938  1.00  0.00     0.000 HD 
HETATM   28  H1  UNL     1     -11.278   6.820  70.941  1.00  0.00     0.000 HD 
HETATM   29  C   UNL     1     -10.320   7.774  66.706  1.00  0.00    -0.277 A  
HETATM   30  N   UNL     1     -10.507   8.321  68.956  1.00  0.00    -0.217 NA 
HETATM   31  S   UNL     1     -10.800   6.293  67.407  1.00  0.00    -0.368 SA 
HETATM   32  N   UNL     1     -11.247   6.366  70.028  1.00  0.00    -0.379 NA 
HETATM   33  C   UNL     1     -10.853   7.055  68.943  1.00  0.00    -0.167 A  
ENDBRANCH  25  26
BRANCH  25  34
HETATM   34  N   UNL     1     -10.295  10.500  66.081  1.00  0.00    -0.233 NA 
HETATM   35  H   UNL     1     -11.272  10.508  65.792  1.00  0.00     0.000 HD 
BRANCH  34  36
HETATM   36  O   UNL     1      -9.306  10.805  65.139  1.00  0.00    -0.195 OA 
HETATM   37  C   UNL     1      -9.511  10.530  63.768  1.00  0.00    -0.298 C  
ENDBRANCH  34  36
ENDBRANCH  25  34
ENDBRANCH  22  25
ENDBRANCH   5  21
TORSDOF 7
ENDMDL
MODEL       13
REMARK 921   NORMALIZED FREE ENERGY PREDICTED BY IDOCK:   -6.49 KCAL/MOL
REMARK 922        TOTAL FREE ENERGY PREDICTED BY IDOCK:  -10.65 KCAL/MOL
REMARK 923 INTER-LIGAND FREE ENERGY PREDICTED BY IDOCK:   -9.32 KCAL/MOL
REMARK 924 INTRA-LIGAND FREE ENERGY PREDICTED BY IDOCK:   -1.33 KCAL/MOL
REMARK 927      BINDING AFFINITY PREDICTED BY RF-SCORE:    0.00 PKD
ROOT
HETATM    1  C   UNL     1     -10.394  15.821  69.857  1.00  0.00    -0.309 C  
HETATM    2  S   UNL     1     -12.097  15.680  69.333  1.00  0.00    -0.168 SA 
HETATM    3  C   UNL     1     -12.050  13.904  69.173  1.00  0.00    -0.338 C  
HETATM    4  C   UNL     1     -10.790  13.299  68.566  1.00  0.00    -0.286 C  
HETATM    5  CA  UNL     1      -9.692  17.159  69.479  1.00  0.00     0.182 C  
HETATM    6  CA  UNL     1      -9.591  13.927  68.441  1.00  0.00    -0.215 C  
HETATM    7  OXT UNL     1      -7.206  13.625  68.136  1.00  0.00    -0.090 OA 
HETATM    8  N   UNL     1      -9.475  15.215  68.900  1.00  0.00    -0.204 N  
HETATM    9  C   UNL     1      -8.346  13.326  67.808  1.00  0.00    -0.171 C  
HETATM   10  O   UNL     1      -7.347  16.261  68.944  1.00  0.00    -0.172 OA 
HETATM   11  C   UNL     1      -8.546  16.184  69.033  1.00  0.00    -0.251 C  
HETATM   12  O   UNL     1      -8.554  12.419  66.828  1.00  0.00    -0.190 OA 
ENDROOT
BRANCH   4  13
HETATM   13  C   UNL     1     -11.104  11.939  68.147  1.00  0.00    -0.294 C  
HETATM   14  C   UNL     1     -11.534  11.488  66.960  1.00  0.00    -0.290 C  
BRANCH  14  15
HETATM   15  C   UNL     1     -11.780  12.242  65.778  1.00  0.00    -0.385 A  
HETATM   16  C   UNL     1     -11.216  12.077  64.513  1.00  0.00    -0.332 A  
HETATM   17  N   UNL     1     -11.440  13.112  63.617  1.00  0.00    -0.381 NA 
HETATM   18  S   UNL     1     -12.763  13.665  65.747  1.00  0.00    -0.325 SA 
HETATM   19  C   UNL     1     -10.380  10.940  64.033  1.00  0.00    -0.417 C  
HETATM   20  C   UNL     1     -12.225  14.007  64.164  1.00  0.00    -0.396 A  
ENDBRANCH  14  15
ENDBRANCH   4  13
BRANCH   5  21
HETATM   21  N   UNL     1     -10.416  18.052  68.519  1.00  0.00    -0.337 N  
HETATM   22  C   UNL     1     -10.114  18.528  67.254  1.00  0.00    -0.352 C  
HETATM   23  O   UNL     1     -11.019  19.060  66.608  1.00  0.00    -0.293 OA 
HETATM   24  H   UNL     1     -11.318  18.376  68.869  1.00  0.00     0.000 HD 
BRANCH  22  25
HETATM   25  C   UNL     1      -8.714  18.601  66.676  1.00  0.00    -0.302 C  
BRANCH  25  26
HETATM   26  C   UNL     1      -7.710  19.543  67.231  1.00  0.00    -0.255 A  
HETATM   27  H2  UNL     1      -5.010  21.306  70.042  1.00  0.00     0.000 HD 
HETATM   28  H1  UNL     1      -6.181  20.234  70.814  1.00  0.00     0.000 HD 
HETATM   29  C   UNL     1      -6.942  20.388  66.437  1.00  0.00    -0.246 A  
HETATM   30  N   UNL     1      -7.417  19.663  68.592  1.00  0.00    -0.339 NA 
HETATM   31  S   UNL     1      -5.779  21.217  67.370  1.00  0.00    -0.363 SA 
HETATM   32  N   UNL     1      -5.815  20.684  69.975  1.00  0.00    -0.449 NA 
HETATM   33  C   UNL     1      -6.392  20.460  68.782  1.00  0.00    -0.303 A  
ENDBRANCH  25  26
BRANCH  25  34
HETATM   34  N   UNL     1      -8.222  17.798  65.772  1.00  0.00    -0.521 NA 
HETATM   35  H   UNL     1      -7.663  18.190  65.015  1.00  0.00     0.000 HD 
BRANCH  34  36
HETATM   36  O   UNL     1      -8.438  16.416  65.811  1.00  0.00    -0.346 OA 
HETATM   37  C   UNL     1      -9.700  15.877  65.473  1.00  0.00    -0.180 C  
ENDBRANCH  34  36
ENDBRANCH  25  34
ENDBRANCH  22  25
ENDBRANCH   5  21
TORSDOF 7
ENDMDL
MODEL       14
REMARK 921   NORMALIZED FREE ENERGY PREDICTED BY IDOCK:   -6.41 KCAL/MOL
REMARK 922        TOTAL FREE ENERGY PREDICTED BY IDOCK:  -10.55 KCAL/MOL
REMARK 923 INTER-LIGAND FREE ENERGY PREDICTED BY IDOCK:   -9.11 KCAL/MOL
REMARK 924 INTRA-LIGAND FREE ENERGY PREDICTED BY IDOCK:   -1.44 KCAL/MOL
REMARK 927      BINDING AFFINITY PREDICTED BY RF-SCORE:    0.00 PKD
ROOT
HETATM    1  C   UNL     1     -11.290  11.817  68.406  1.00  0.00    -0.270 C  
HETATM    2  S   UNL     1      -9.752  11.105  67.836  1.00  0.00    -0.179 SA 
HETATM    3  C   UNL     1     -10.213   9.430  68.245  1.00  0.00    -0.196 C  
HETATM    4  C   UNL     1     -10.957   9.220  69.557  1.00  0.00    -0.169 C  
HETATM    5  CA  UNL     1     -11.188  13.281  68.928  1.00  0.00    -0.277 C  
HETATM    6  CA  UNL     1     -11.586  10.188  70.275  1.00  0.00    -0.302 C  
HETATM    7  OXT UNL     1     -13.257  10.645  71.969  1.00  0.00    -0.473 OA 
HETATM    8  N   UNL     1     -11.570  11.474  69.795  1.00  0.00    -0.314 N  
HETATM    9  C   UNL     1     -12.301   9.976  71.599  1.00  0.00    -0.394 C  
HETATM   10  O   UNL     1     -12.866  13.146  70.868  1.00  0.00    -0.257 OA 
HETATM   11  C   UNL     1     -12.055  12.695  70.099  1.00  0.00    -0.294 C  
HETATM   12  O   UNL     1     -11.822   8.986  72.384  1.00  0.00    -0.302 OA 
ENDROOT
BRANCH   4  13
HETATM   13  C   UNL     1     -10.870   7.806  69.899  1.00  0.00    -0.228 C  
HETATM   14  C   UNL     1      -9.883   7.131  70.504  1.00  0.00    -0.181 C  
BRANCH  14  15
HETATM   15  C   UNL     1      -8.647   7.645  70.991  1.00  0.00    -0.131 A  
HETATM   16  C   UNL     1      -8.317   8.011  72.297  1.00  0.00    -0.144 A  
HETATM   17  N   UNL     1      -7.136   8.723  72.438  1.00  0.00    -0.314 NA 
HETATM   18  S   UNL     1      -7.322   8.067  69.963  1.00  0.00    -0.063 SA 
HETATM   19  C   UNL     1      -9.103   7.755  73.538  1.00  0.00    -0.342 C  
HETATM   20  C   UNL     1      -6.539   8.826  71.276  1.00  0.00    -0.075 A  
ENDBRANCH  14  15
ENDBRANCH   4  13
BRANCH   5  21
HETATM   21  N   UNL     1      -9.809  13.829  69.136  1.00  0.00    -0.407 N  
HETATM   22  C   UNL     1      -9.111  14.879  68.565  1.00  0.00    -0.191 C  
HETATM   23  O   UNL     1      -8.067  15.240  69.111  1.00  0.00    -0.193 OA 
HETATM   24  H   UNL     1      -9.275  13.324  69.843  1.00  0.00     0.000 HD 
BRANCH  22  25
HETATM   25  C   UNL     1      -9.442  15.503  67.223  1.00  0.00    -0.213 C  
BRANCH  25  26
HETATM   26  C   UNL     1      -9.857  16.926  67.129  1.00  0.00    -0.270 A  
HETATM   27  H2  UNL     1     -10.545  20.975  68.323  1.00  0.00     0.000 HD 
HETATM   28  H1  UNL     1     -10.335  19.893  69.702  1.00  0.00     0.000 HD 
HETATM   29  C   UNL     1     -10.065  17.576  65.918  1.00  0.00    -0.185 A  
HETATM   30  N   UNL     1     -10.058  17.758  68.233  1.00  0.00    -0.349 NA 
HETATM   31  S   UNL     1     -10.373  19.238  66.158  1.00  0.00    -0.489 SA 
HETATM   32  N   UNL     1     -10.394  20.038  68.694  1.00  0.00    -0.377 NA 
HETATM   33  C   UNL     1     -10.273  18.996  67.853  1.00  0.00    -0.401 A  
ENDBRANCH  25  26
BRANCH  25  34
HETATM   34  N   UNL     1      -9.279  14.937  66.059  1.00  0.00    -0.491 NA 
HETATM   35  H   UNL     1      -8.555  15.291  65.435  1.00  0.00     0.000 HD 
BRANCH  34  36
HETATM   36  O   UNL     1     -10.067  13.858  65.643  1.00  0.00    -0.310 OA 
HETATM   37  C   UNL     1     -11.376  14.072  65.154  1.00  0.00    -0.328 C  
ENDBRANCH  34  36
ENDBRANCH  25  34
ENDBRANCH  22  25
ENDBRANCH   5  21
TORSDOF 7
ENDMDL
MODEL       15
REMARK 921   NORMALIZED FREE ENERGY PREDICTED BY IDOCK:   -6.39 KCAL/MOL
REMARK 922        TOTAL FREE ENERGY PREDICTED BY IDOCK:  -10.51 KCAL/MOL
REMARK 923 INTER-LIGAND FREE ENERGY PREDICTED BY IDOCK:   -8.80 KCAL/MOL
REMARK 924 INTRA-LIGAND FREE ENERGY PREDICTED BY IDOCK:   -1.71 KCAL/MOL
REMARK 927      BINDING AFFINITY PREDICTED BY RF-SCORE:    0.00 PKD
ROOT
HETATM    1  C   UNL     1     -10.019  11.370  67.967  1.00  0.00    -0.182 C  
HETATM    2  S   UNL     1      -8.261  11.437  67.651  1.00  0.00    -0.134 SA 
HETATM    3  C   UNL     1      -7.969   9.740  68.119  1.00  0.00    -0.100 C  
HETATM    4  C   UNL     1      -8.721   9.222  69.338  1.00  0.00    -0.148 C  
HETATM    5  CA  UNL     1     -10.669  12.721  68.390  1.00  0.00    -0.250 C  
HETATM    6  CA  UNL     1      -9.817   9.799  69.898  1.00  0.00    -0.243 C  
HETATM    7  OXT UNL     1     -11.742   9.451  71.328  1.00  0.00    -0.304 OA 
HETATM    8  N   UNL     1     -10.314  10.946  69.331  1.00  0.00    -0.188 N  
HETATM    9  C   UNL     1     -10.544   9.291  71.132  1.00  0.00    -0.332 C  
HETATM   10  O   UNL     1     -12.368  11.846  70.105  1.00  0.00    -0.248 OA 
HETATM   11  C   UNL     1     -11.338  11.812  69.481  1.00  0.00    -0.248 C  
HETATM   12  O   UNL     1      -9.789   8.636  72.042  1.00  0.00    -0.280 OA 
ENDROOT
BRANCH   4  13
HETATM   13  C   UNL     1      -8.055   8.007  69.791  1.00  0.00    -0.115 C  
HETATM   14  C   UNL     1      -8.157   6.753  69.328  1.00  0.00    -0.120 C  
BRANCH  14  15
HETATM   15  C   UNL     1      -8.949   6.287  68.241  1.00  0.00    -0.115 A  
HETATM   16  C   UNL     1     -10.306   5.960  68.238  1.00  0.00    -0.214 A  
HETATM   17  N   UNL     1     -10.756   5.287  67.112  1.00  0.00    -0.151 NA 
HETATM   18  S   UNL     1      -8.294   5.882  66.692  1.00  0.00    -0.111 SA 
HETATM   19  C   UNL     1     -11.305   6.219  69.313  1.00  0.00    -0.411 C  
HETATM   20  C   UNL     1      -9.781   5.177  66.243  1.00  0.00    -0.174 A  
ENDBRANCH  14  15
ENDBRANCH   4  13
BRANCH   5  21
HETATM   21  N   UNL     1      -9.734  13.841  68.730  1.00  0.00    -0.400 N  
HETATM   22  C   UNL     1      -9.904  15.056  69.372  1.00  0.00    -0.164 C  
HETATM   23  O   UNL     1      -8.893  15.670  69.719  1.00  0.00    -0.208 OA 
HETATM   24  H   UNL     1      -8.774  13.674  68.426  1.00  0.00     0.000 HD 
BRANCH  22  25
HETATM   25  C   UNL     1     -11.233  15.769  69.525  1.00  0.00    -0.317 C  
BRANCH  25  26
HETATM   26  C   UNL     1     -12.051  15.598  70.753  1.00  0.00    -0.412 A  
HETATM   27  H2  UNL     1     -13.288  16.045  74.823  1.00  0.00     0.000 HD 
HETATM   28  H1  UNL     1     -11.600  16.502  74.578  1.00  0.00     0.000 HD 
HETATM   29  C   UNL     1     -13.357  15.123  70.734  1.00  0.00    -0.341 A  
HETATM   30  N   UNL     1     -11.606  15.914  72.040  1.00  0.00    -0.441 NA 
HETATM   31  S   UNL     1     -14.061  15.202  72.287  1.00  0.00    -0.529 SA 
HETATM   32  N   UNL     1     -12.481  16.145  74.208  1.00  0.00    -0.703 NA 
HETATM   33  C   UNL     1     -12.581  15.804  72.911  1.00  0.00    -0.466 A  
ENDBRANCH  25  26
BRANCH  25  34
HETATM   34  N   UNL     1     -11.715  16.664  68.706  1.00  0.00    -0.028 NA 
HETATM   35  H   UNL     1     -12.709  16.889  68.750  1.00  0.00     0.000 HD 
BRANCH  34  36
HETATM   36  O   UNL     1     -10.910  17.323  67.771  1.00  0.00    -0.351 OA 
HETATM   37  C   UNL     1     -10.371  18.597  68.060  1.00  0.00    -0.377 C  
ENDBRANCH  34  36
ENDBRANCH  25  34
ENDBRANCH  22  25
ENDBRANCH   5  21
TORSDOF 7
ENDMDL
MODEL       16
REMARK 921   NORMALIZED FREE ENERGY PREDICTED BY IDOCK:   -6.34 KCAL/MOL
REMARK 922        TOTAL FREE ENERGY PREDICTED BY IDOCK:  -10.45 KCAL/MOL
REMARK 923 INTER-LIGAND FREE ENERGY PREDICTED BY IDOCK:   -9.31 KCAL/MOL
REMARK 924 INTRA-LIGAND FREE ENERGY PREDICTED BY IDOCK:   -1.14 KCAL/MOL
REMARK 927      BINDING AFFINITY PREDICTED BY RF-SCORE:    0.00 PKD
ROOT
HETATM    1  C   UNL     1     -10.686   9.774  69.529  1.00  0.00    -0.233 C  
HETATM    2  S   UNL     1      -9.149  10.577  69.095  1.00  0.00    -0.131 SA 
HETATM    3  C   UNL     1      -8.121   9.258  69.718  1.00  0.00    -0.120 C  
HETATM    4  C   UNL     1      -8.547   8.612  71.030  1.00  0.00    -0.211 C  
HETATM    5  CA  UNL     1     -11.868  10.736  69.849  1.00  0.00    -0.335 C  
HETATM    6  CA  UNL     1      -9.780   8.705  71.595  1.00  0.00    -0.278 C  
HETATM    7  OXT UNL     1     -11.329   7.714  73.174  1.00  0.00    -0.360 OA 
HETATM    8  N   UNL     1     -10.745   9.432  70.945  1.00  0.00    -0.296 N  
HETATM    9  C   UNL     1     -10.189   8.081  72.920  1.00  0.00    -0.314 C  
HETATM   10  O   UNL     1     -12.976   9.412  71.751  1.00  0.00    -0.345 OA 
HETATM   11  C   UNL     1     -12.047   9.764  71.069  1.00  0.00    -0.346 C  
HETATM   12  O   UNL     1      -9.211   7.946  73.843  1.00  0.00    -0.267 OA 
ENDROOT
BRANCH   4  13
HETATM   13  C   UNL     1      -7.402   7.885  71.563  1.00  0.00    -0.068 C  
HETATM   14  C   UNL     1      -7.154   6.567  71.572  1.00  0.00    -0.077 C  
BRANCH  14  15
HETATM   15  C   UNL     1      -7.962   5.525  71.035  1.00  0.00    -0.106 A  
HETATM   16  C   UNL     1      -8.193   5.214  69.694  1.00  0.00    -0.093 A  
HETATM   17  N   UNL     1      -9.224   4.317  69.457  1.00  0.00    -0.124 NA 
HETATM   18  S   UNL     1      -8.967   4.505  72.005  1.00  0.00    -0.127 SA 
HETATM   19  C   UNL     1      -7.486   5.759  68.500  1.00  0.00    -0.085 C  
HETATM   20  C   UNL     1      -9.713   3.894  70.597  1.00  0.00    -0.178 A  
ENDBRANCH  14  15
ENDBRANCH   4  13
BRANCH   5  21
HETATM   21  N   UNL     1     -11.533  12.187  70.011  1.00  0.00    -0.526 N  
HETATM   22  C   UNL     1     -11.555  13.267  69.145  1.00  0.00    -0.319 C  
HETATM   23  O   UNL     1     -11.450  14.395  69.630  1.00  0.00    -0.260 OA 
HETATM   24  H   UNL     1     -11.224  12.428  70.953  1.00  0.00     0.000 HD 
BRANCH  22  25
HETATM   25  C   UNL     1     -11.525  13.158  67.633  1.00  0.00    -0.324 C  
BRANCH  25  26
HETATM   26  C   UNL     1     -10.883  14.212  66.807  1.00  0.00    -0.296 A  
HETATM   27  H2  UNL     1     -10.530  17.537  64.140  1.00  0.00     0.000 HD 
HETATM   28  H1  UNL     1     -12.119  16.771  64.054  1.00  0.00     0.000 HD 
HETATM   29  C   UNL     1      -9.562  14.609  66.979  1.00  0.00    -0.240 A  
HETATM   30  N   UNL     1     -11.537  14.923  65.798  1.00  0.00    -0.288 NA 
HETATM   31  S   UNL     1      -9.189  15.946  65.985  1.00  0.00    -0.302 SA 
HETATM   32  N   UNL     1     -11.175  16.805  64.439  1.00  0.00    -1.107 NA 
HETATM   33  C   UNL     1     -10.776  15.889  65.338  1.00  0.00    -0.399 A  
ENDBRANCH  25  26
BRANCH  25  34
HETATM   34  N   UNL     1     -11.914  12.125  66.937  1.00  0.00    -0.609 NA 
HETATM   35  H   UNL     1     -12.665  11.538  67.301  1.00  0.00     0.000 HD 
BRANCH  34  36
HETATM   36  O   UNL     1     -11.331  11.797  65.708  1.00  0.00    -0.318 OA 
HETATM   37  C   UNL     1     -10.350  10.783  65.627  1.00  0.00    -0.230 C  
ENDBRANCH  34  36
ENDBRANCH  25  34
ENDBRANCH  22  25
ENDBRANCH   5  21
TORSDOF 7
ENDMDL
MODEL       17
REMARK 921   NORMALIZED FREE ENERGY PREDICTED BY IDOCK:   -6.29 KCAL/MOL
REMARK 922        TOTAL FREE ENERGY PREDICTED BY IDOCK:  -10.37 KCAL/MOL
REMARK 923 INTER-LIGAND FREE ENERGY PREDICTED BY IDOCK:   -8.76 KCAL/MOL
REMARK 924 INTRA-LIGAND FREE ENERGY PREDICTED BY IDOCK:   -1.62 KCAL/MOL
REMARK 927      BINDING AFFINITY PREDICTED BY RF-SCORE:    0.00 PKD
ROOT
HETATM    1  C   UNL     1     -11.388  10.504  68.417  1.00  0.00    -0.262 C  
HETATM    2  S   UNL     1     -10.021   9.553  67.768  1.00  0.00    -0.186 SA 
HETATM    3  C   UNL     1     -10.585   8.006  68.457  1.00  0.00    -0.103 C  
HETATM    4  C   UNL     1     -11.161   8.049  69.867  1.00  0.00    -0.108 C  
HETATM    5  CA  UNL     1     -11.073  11.999  68.716  1.00  0.00    -0.249 C  
HETATM    6  CA  UNL     1     -11.588   9.165  70.515  1.00  0.00    -0.197 C  
HETATM    7  OXT UNL     1     -12.960  10.019  72.320  1.00  0.00    -0.389 OA 
HETATM    8  N   UNL     1     -11.510  10.371  69.864  1.00  0.00    -0.277 N  
HETATM    9  C   UNL     1     -12.134   9.203  71.933  1.00  0.00    -0.378 C  
HETATM   10  O   UNL     1     -12.477  12.301  70.845  1.00  0.00    -0.371 OA 
HETATM   11  C   UNL     1     -11.826  11.668  70.053  1.00  0.00    -0.355 C  
HETATM   12  O   UNL     1     -11.653   8.269  72.783  1.00  0.00    -0.395 OA 
ENDROOT
BRANCH   4  13
HETATM   13  C   UNL     1     -11.169   6.688  70.387  1.00  0.00    -0.398 C  
HETATM   14  C   UNL     1     -10.141   5.887  70.704  1.00  0.00    -0.252 C  
BRANCH  14  15
HETATM   15  C   UNL     1      -8.751   6.181  70.623  1.00  0.00    -0.139 A  
HETATM   16  C   UNL     1      -7.993   7.011  71.449  1.00  0.00    -0.103 A  
HETATM   17  N   UNL     1      -6.723   7.318  70.985  1.00  0.00    -0.047 NA 
HETATM   18  S   UNL     1      -7.740   5.646  69.324  1.00  0.00    -0.089 SA 
HETATM   19  C   UNL     1      -8.405   7.625  72.743  1.00  0.00    -0.167 C  
HETATM   20  C   UNL     1      -6.490   6.671  69.870  1.00  0.00    -0.044 A  
ENDBRANCH  14  15
ENDBRANCH   4  13
BRANCH   5  21
HETATM   21  N   UNL     1      -9.631  12.405  68.676  1.00  0.00    -0.394 N  
HETATM   22  C   UNL     1      -8.959  13.459  68.082  1.00  0.00    -0.188 C  
HETATM   23  O   UNL     1      -7.793  13.665  68.424  1.00  0.00    -0.129 OA 
HETATM   24  H   UNL     1      -9.019  11.774  69.194  1.00  0.00     0.000 HD 
BRANCH  22  25
HETATM   25  C   UNL     1      -9.492  14.271  66.918  1.00  0.00    -0.263 C  
BRANCH  25  26
HETATM   26  C   UNL     1      -9.768  15.723  67.066  1.00  0.00    -0.228 A  
HETATM   27  H2  UNL     1     -10.858  19.714  65.983  1.00  0.00     0.000 HD 
HETATM   28  H1  UNL     1     -10.437  18.728  64.581  1.00  0.00     0.000 HD 
HETATM   29  C   UNL     1      -9.983  16.331  68.298  1.00  0.00    -0.236 A  
HETATM   30  N   UNL     1      -9.862  16.616  65.996  1.00  0.00    -0.414 NA 
HETATM   31  S   UNL     1     -10.431  17.967  68.104  1.00  0.00    -0.340 SA 
HETATM   32  N   UNL     1     -10.540  18.829  65.591  1.00  0.00    -0.578 NA 
HETATM   33  C   UNL     1     -10.258  17.798  66.406  1.00  0.00    -0.365 A  
ENDBRANCH  25  26
BRANCH  25  34
HETATM   34  N   UNL     1      -9.630  13.844  65.693  1.00  0.00    -0.525 NA 
HETATM   35  H   UNL     1      -9.508  14.502  64.923  1.00  0.00     0.000 HD 
BRANCH  34  36
HETATM   36  O   UNL     1      -9.941  12.511  65.403  1.00  0.00    -0.265 OA 
HETATM   37  C   UNL     1     -11.240  12.154  64.975  1.00  0.00    -0.322 C  
ENDBRANCH  34  36
ENDBRANCH  25  34
ENDBRANCH  22  25
ENDBRANCH   5  21
TORSDOF 7
ENDMDL
MODEL       18
REMARK 921   NORMALIZED FREE ENERGY PREDICTED BY IDOCK:   -6.27 KCAL/MOL
REMARK 922        TOTAL FREE ENERGY PREDICTED BY IDOCK:  -10.34 KCAL/MOL
REMARK 923 INTER-LIGAND FREE ENERGY PREDICTED BY IDOCK:   -9.34 KCAL/MOL
REMARK 924 INTRA-LIGAND FREE ENERGY PREDICTED BY IDOCK:   -1.00 KCAL/MOL
REMARK 927      BINDING AFFINITY PREDICTED BY RF-SCORE:    0.00 PKD
ROOT
HETATM    1  C   UNL     1     -11.190  15.554  67.962  1.00  0.00    -0.332 C  
HETATM    2  S   UNL     1     -10.021  14.727  66.892  1.00  0.00    -0.249 SA 
HETATM    3  C   UNL     1     -10.943  13.200  66.829  1.00  0.00    -0.279 C  
HETATM    4  C   UNL     1     -11.580  12.725  68.129  1.00  0.00    -0.380 C  
HETATM    5  CA  UNL     1     -10.580  16.643  68.893  1.00  0.00    -0.337 C  
HETATM    6  CA  UNL     1     -11.796  13.491  69.231  1.00  0.00    -0.341 C  
HETATM    7  OXT UNL     1     -13.059  13.712  71.287  1.00  0.00    -0.328 OA 
HETATM    8  N   UNL     1     -11.423  14.811  69.195  1.00  0.00    -0.282 N  
HETATM    9  C   UNL     1     -12.406  13.001  70.535  1.00  0.00    -0.287 C  
HETATM   10  O   UNL     1     -12.011  16.248  70.988  1.00  0.00    -0.339 OA 
HETATM   11  C   UNL     1     -11.465  15.916  69.967  1.00  0.00    -0.354 C  
HETATM   12  O   UNL     1     -12.187  11.705  70.846  1.00  0.00    -0.364 OA 
ENDROOT
BRANCH   4  13
HETATM   13  C   UNL     1     -11.910  11.314  67.975  1.00  0.00    -0.244 C  
HETATM   14  C   UNL     1     -11.099  10.252  67.868  1.00  0.00    -0.341 C  
BRANCH  14  15
HETATM   15  C   UNL     1      -9.675  10.238  67.895  1.00  0.00    -0.145 A  
HETATM   16  C   UNL     1      -8.791  10.137  66.820  1.00  0.00    -0.132 A  
HETATM   17  N   UNL     1      -7.469   9.885  67.155  1.00  0.00    -0.091 NA 
HETATM   18  S   UNL     1      -8.753  10.189  69.357  1.00  0.00    -0.162 SA 
HETATM   19  C   UNL     1      -9.112  10.234  65.368  1.00  0.00    -0.221 C  
HETATM   20  C   UNL     1      -7.337   9.874  68.458  1.00  0.00    -0.078 A  
ENDBRANCH  14  15
ENDBRANCH   4  13
BRANCH   5  21
HETATM   21  N   UNL     1      -9.085  16.699  68.977  1.00  0.00    -0.243 N  
HETATM   22  C   UNL     1      -8.164  17.720  68.821  1.00  0.00    -0.226 C  
HETATM   23  O   UNL     1      -7.005  17.511  69.187  1.00  0.00    -0.246 OA 
HETATM   24  H   UNL     1      -8.658  15.798  69.194  1.00  0.00     0.000 HD 
BRANCH  22  25
HETATM   25  C   UNL     1      -8.432  19.013  68.076  1.00  0.00    -0.301 C  
BRANCH  25  26
HETATM   26  C   UNL     1      -7.461  19.533  67.080  1.00  0.00    -0.231 A  
HETATM   27  H2  UNL     1      -5.411  19.973  63.352  1.00  0.00     0.000 HD 
HETATM   28  H1  UNL     1      -6.301  18.452  63.455  1.00  0.00     0.000 HD 
HETATM   29  C   UNL     1      -6.781  20.735  67.240  1.00  0.00    -0.333 A  
HETATM   30  N   UNL     1      -7.148  18.887  65.881  1.00  0.00    -0.302 NA 
HETATM   31  S   UNL     1      -5.871  21.114  65.847  1.00  0.00    -0.224 SA 
HETATM   32  N   UNL     1      -6.000  19.329  63.879  1.00  0.00    -0.437 NA 
HETATM   33  C   UNL     1      -6.377  19.640  65.132  1.00  0.00    -0.271 A  
ENDBRANCH  25  26
BRANCH  25  34
HETATM   34  N   UNL     1      -9.540  19.702  68.122  1.00  0.00    -0.360 NA 
HETATM   35  H   UNL     1      -9.568  20.555  68.680  1.00  0.00     0.000 HD 
BRANCH  34  36
HETATM   36  O   UNL     1     -10.689  19.304  67.430  1.00  0.00    -0.463 OA 
HETATM   37  C   UNL     1     -10.755  19.422  66.023  1.00  0.00    -0.417 C  
ENDBRANCH  34  36
ENDBRANCH  25  34
ENDBRANCH  22  25
ENDBRANCH   5  21
TORSDOF 7
ENDMDL
MODEL       19
REMARK 921   NORMALIZED FREE ENERGY PREDICTED BY IDOCK:   -6.25 KCAL/MOL
REMARK 922        TOTAL FREE ENERGY PREDICTED BY IDOCK:  -10.32 KCAL/MOL
REMARK 923 INTER-LIGAND FREE ENERGY PREDICTED BY IDOCK:   -8.98 KCAL/MOL
REMARK 924 INTRA-LIGAND FREE ENERGY PREDICTED BY IDOCK:   -1.34 KCAL/MOL
REMARK 927      BINDING AFFINITY PREDICTED BY RF-SCORE:    0.00 PKD
ROOT
HETATM    1  C   UNL     1      -9.261  14.623  69.023  1.00  0.00    -0.108 C  
HETATM    2  S   UNL     1      -8.219  13.579  68.012  1.00  0.00    -0.176 SA 
HETATM    3  C   UNL     1      -7.306  14.937  67.300  1.00  0.00    -0.140 C  
HETATM    4  C   UNL     1      -8.103  16.179  66.922  1.00  0.00    -0.275 C  
HETATM    5  CA  UNL     1     -10.678  14.051  69.325  1.00  0.00    -0.115 C  
HETATM    6  CA  UNL     1      -9.351  16.485  67.362  1.00  0.00    -0.222 C  
HETATM    7  OXT UNL     1     -10.975  18.256  67.680  1.00  0.00    -0.333 OA 
HETATM    8  N   UNL     1      -9.970  15.620  68.230  1.00  0.00    -0.212 N  
HETATM    9  C   UNL     1     -10.151  17.713  66.956  1.00  0.00    -0.330 C  
HETATM   10  O   UNL     1     -12.033  16.230  69.229  1.00  0.00    -0.191 OA 
HETATM   11  C   UNL     1     -11.113  15.508  68.936  1.00  0.00    -0.282 C  
HETATM   12  O   UNL     1      -9.912  18.198  65.718  1.00  0.00    -0.547 OA 
ENDROOT
BRANCH   4  13
HETATM   13  C   UNL     1      -7.288  16.971  66.008  1.00  0.00    -0.087 C  
HETATM   14  C   UNL     1      -6.542  18.058  66.250  1.00  0.00    -0.276 C  
BRANCH  14  15
HETATM   15  C   UNL     1      -6.342  18.718  67.496  1.00  0.00    -0.192 A  
HETATM   16  C   UNL     1      -6.821  19.964  67.901  1.00  0.00    -0.261 A  
HETATM   17  N   UNL     1      -6.259  20.472  69.063  1.00  0.00    -0.323 NA 
HETATM   18  S   UNL     1      -5.290  18.119  68.731  1.00  0.00    -0.173 SA 
HETATM   19  C   UNL     1      -7.833  20.816  67.213  1.00  0.00    -0.296 C  
HETATM   20  C   UNL     1      -5.430  19.596  69.573  1.00  0.00    -0.204 A  
ENDBRANCH  14  15
ENDBRANCH   4  13
BRANCH   5  21
HETATM   21  N   UNL     1     -11.098  12.844  68.544  1.00  0.00    -0.252 N  
HETATM   22  C   UNL     1     -11.798  11.696  68.876  1.00  0.00    -0.329 C  
HETATM   23  O   UNL     1     -12.201  10.981  67.956  1.00  0.00    -0.520 OA 
HETATM   24  H   UNL     1     -10.809  12.874  67.565  1.00  0.00     0.000 HD 
BRANCH  22  25
HETATM   25  C   UNL     1     -11.956  11.164  70.286  1.00  0.00    -0.373 C  
BRANCH  25  26
HETATM   26  C   UNL     1     -11.286   9.905  70.703  1.00  0.00    -0.344 A  
HETATM   27  H2  UNL     1     -10.846   5.852  71.995  1.00  0.00     0.000 HD 
HETATM   28  H1  UNL     1     -12.474   6.475  72.276  1.00  0.00     0.000 HD 
HETATM   29  C   UNL     1      -9.941   9.647  70.463  1.00  0.00    -0.254 A  
HETATM   30  N   UNL     1     -11.934   8.851  71.352  1.00  0.00    -0.295 NA 
HETATM   31  S   UNL     1      -9.531   8.055  70.920  1.00  0.00    -0.163 SA 
HETATM   32  N   UNL     1     -11.518   6.618  71.951  1.00  0.00    -0.276 NA 
HETATM   33  C   UNL     1     -11.139   7.813  71.466  1.00  0.00    -0.236 A  
ENDBRANCH  25  26
BRANCH  25  34
HETATM   34  N   UNL     1     -12.547  11.782  71.271  1.00  0.00    -0.346 NA 
HETATM   35  H   UNL     1     -12.864  11.241  72.076  1.00  0.00     0.000 HD 
BRANCH  34  36
HETATM   36  O   UNL     1     -12.761  13.165  71.257  1.00  0.00    -0.363 OA 
HETATM   37  C   UNL     1     -13.758  13.746  72.073  1.00  0.00    -0.482 C  
ENDBRANCH  34  36
ENDBRANCH  25  34
ENDBRANCH  22  25
ENDBRANCH   5  21
TORSDOF 7
ENDMDL
MODEL       20
REMARK 921   NORMALIZED FREE ENERGY PREDICTED BY IDOCK:   -6.24 KCAL/MOL
REMARK 922        TOTAL FREE ENERGY PREDICTED BY IDOCK:  -10.31 KCAL/MOL
REMARK 923 INTER-LIGAND FREE ENERGY PREDICTED BY IDOCK:   -9.04 KCAL/MOL
REMARK 924 INTRA-LIGAND FREE ENERGY PREDICTED BY IDOCK:   -1.27 KCAL/MOL
REMARK 927      BINDING AFFINITY PREDICTED BY RF-SCORE:    0.00 PKD
ROOT
HETATM    1  C   UNL     1     -10.548  11.384  68.546  1.00  0.00    -0.198 C  
HETATM    2  S   UNL     1      -8.825  11.719  68.208  1.00  0.00    -0.162 SA 
HETATM    3  C   UNL     1      -8.290  10.048  68.536  1.00  0.00    -0.113 C  
HETATM    4  C   UNL     1      -8.930   9.339  69.722  1.00  0.00    -0.180 C  
HETATM    5  CA  UNL     1     -11.365  12.595  69.086  1.00  0.00    -0.282 C  
HETATM    6  CA  UNL     1     -10.080   9.714  70.343  1.00  0.00    -0.276 C  
HETATM    7  OXT UNL     1     -11.899   8.994  71.772  1.00  0.00    -0.325 OA 
HETATM    8  N   UNL     1     -10.745  10.820  69.877  1.00  0.00    -0.202 N  
HETATM    9  C   UNL     1     -10.697   9.017  71.545  1.00  0.00    -0.351 C  
HETATM   10  O   UNL     1     -12.881  11.364  70.753  1.00  0.00    -0.265 OA 
HETATM   11  C   UNL     1     -11.873  11.521  70.112  1.00  0.00    -0.356 C  
HETATM   12  O   UNL     1      -9.835   8.406  72.387  1.00  0.00    -0.273 OA 
ENDROOT
BRANCH   4  13
HETATM   13  C   UNL     1      -8.092   8.198  70.066  1.00  0.00    -0.114 C  
HETATM   14  C   UNL     1      -8.041   6.976  69.515  1.00  0.00    -0.130 C  
BRANCH  14  15
HETATM   15  C   UNL     1      -8.803   6.484  68.417  1.00  0.00    -0.123 A  
HETATM   16  C   UNL     1     -10.116   6.013  68.418  1.00  0.00    -0.164 A  
HETATM   17  N   UNL     1     -10.516   5.354  67.265  1.00  0.00    -0.224 NA 
HETATM   18  S   UNL     1      -8.142   6.231  66.839  1.00  0.00    -0.110 SA 
HETATM   19  C   UNL     1     -11.115   6.109  69.521  1.00  0.00    -0.490 C  
HETATM   20  C   UNL     1      -9.554   5.393  66.377  1.00  0.00    -0.159 A  
ENDBRANCH  14  15
ENDBRANCH   4  13
BRANCH   5  21
HETATM   21  N   UNL     1     -10.584  13.805  69.498  1.00  0.00    -0.439 N  
HETATM   22  C   UNL     1     -10.526  15.104  69.022  1.00  0.00    -0.248 C  
HETATM   23  O   UNL     1      -9.961  15.948  69.720  1.00  0.00    -0.267 OA 
HETATM   24  H   UNL     1      -9.968  13.637  70.294  1.00  0.00     0.000 HD 
BRANCH  22  25
HETATM   25  C   UNL     1     -10.952  15.529  67.630  1.00  0.00    -0.315 C  
BRANCH  25  26
HETATM   26  C   UNL     1     -11.114  14.526  66.546  1.00  0.00    -0.332 A  
HETATM   27  H2  UNL     1     -13.067  11.989  63.710  1.00  0.00     0.000 HD 
HETATM   28  H1  UNL     1     -14.161  12.548  64.979  1.00  0.00     0.000 HD 
HETATM   29  C   UNL     1     -10.077  14.150  65.700  1.00  0.00    -0.328 A  
HETATM   30  N   UNL     1     -12.318  13.880  66.251  1.00  0.00    -0.460 NA 
HETATM   31  S   UNL     1     -10.637  13.108  64.470  1.00  0.00    -0.411 SA 
HETATM   32  N   UNL     1     -13.227  12.515  64.569  1.00  0.00    -0.779 NA 
HETATM   33  C   UNL     1     -12.207  13.163  65.158  1.00  0.00    -0.450 A  
ENDBRANCH  25  26
BRANCH  25  34
HETATM   34  N   UNL     1     -11.332  16.728  67.284  1.00  0.00     0.223 NA 
HETATM   35  H   UNL     1     -12.324  16.905  67.126  1.00  0.00     0.000 HD 
BRANCH  34  36
HETATM   36  O   UNL     1     -10.421  17.777  67.122  1.00  0.00    -0.350 OA 
HETATM   37  C   UNL     1     -10.531  18.950  67.902  1.00  0.00    -0.388 C  
ENDBRANCH  34  36
ENDBRANCH  25  34
ENDBRANCH  22  25
ENDBRANCH   5  21
TORSDOF 7
ENDMDL
MODEL       21
REMARK 921   NORMALIZED FREE ENERGY PREDICTED BY IDOCK:   -6.24 KCAL/MOL
REMARK 922        TOTAL FREE ENERGY PREDICTED BY IDOCK:  -10.30 KCAL/MOL
REMARK 923 INTER-LIGAND FREE ENERGY PREDICTED BY IDOCK:   -8.88 KCAL/MOL
REMARK 924 INTRA-LIGAND FREE ENERGY PREDICTED BY IDOCK:   -1.42 KCAL/MOL
REMARK 927      BINDING AFFINITY PREDICTED BY RF-SCORE:    0.00 PKD
ROOT
HETATM    1  C   UNL     1     -11.573  11.074  68.363  1.00  0.00    -0.302 C  
HETATM    2  S   UNL     1     -10.091  10.759  67.414  1.00  0.00    -0.201 SA 
HETATM    3  C   UNL     1     -10.046   9.017  67.798  1.00  0.00    -0.208 C  
HETATM    4  C   UNL     1     -10.393   8.616  69.226  1.00  0.00    -0.228 C  
HETATM    5  CA  UNL     1     -11.689  12.512  68.951  1.00  0.00    -0.322 C  
HETATM    6  CA  UNL     1     -11.040   9.394  70.132  1.00  0.00    -0.242 C  
HETATM    7  OXT UNL     1     -12.325   9.413  72.186  1.00  0.00    -0.354 OA 
HETATM    8  N   UNL     1     -11.433  10.654  69.752  1.00  0.00    -0.277 N  
HETATM    9  C   UNL     1     -11.357   8.998  71.565  1.00  0.00    -0.346 C  
HETATM   10  O   UNL     1     -12.788  11.951  71.203  1.00  0.00    -0.343 OA 
HETATM   11  C   UNL     1     -12.099  11.719  70.243  1.00  0.00    -0.342 C  
HETATM   12  O   UNL     1     -10.492   8.139  72.151  1.00  0.00    -0.239 OA 
ENDROOT
BRANCH   4  13
HETATM   13  C   UNL     1      -9.906   7.259  69.439  1.00  0.00    -0.163 C  
HETATM   14  C   UNL     1      -8.648   6.801  69.501  1.00  0.00    -0.133 C  
BRANCH  14  15
HETATM   15  C   UNL     1      -7.442   7.549  69.386  1.00  0.00    -0.087 A  
HETATM   16  C   UNL     1      -6.849   8.385  70.333  1.00  0.00    -0.037 A  
HETATM   17  N   UNL     1      -5.822   9.188  69.862  1.00  0.00    -0.034 NA 
HETATM   18  S   UNL     1      -6.536   7.672  67.917  1.00  0.00    -0.060 SA 
HETATM   19  C   UNL     1      -7.217   8.534  71.769  1.00  0.00    -0.112 C  
HETATM   20  C   UNL     1      -5.584   8.910  68.604  1.00  0.00    -0.041 A  
ENDBRANCH  14  15
ENDBRANCH   4  13
BRANCH   5  21
HETATM   21  N   UNL     1     -10.464  13.371  68.881  1.00  0.00    -0.398 N  
HETATM   22  C   UNL     1     -10.181  14.656  69.311  1.00  0.00    -0.147 C  
HETATM   23  O   UNL     1      -9.001  15.012  69.324  1.00  0.00    -0.206 OA 
HETATM   24  H   UNL     1      -9.675  12.914  68.422  1.00  0.00     0.000 HD 
BRANCH  22  25
HETATM   25  C   UNL     1     -11.227  15.715  69.601  1.00  0.00    -0.310 C  
BRANCH  25  26
HETATM   26  C   UNL     1     -12.112  15.603  70.789  1.00  0.00    -0.412 A  
HETATM   27  H2  UNL     1     -13.512  16.147  74.793  1.00  0.00     0.000 HD 
HETATM   28  H1  UNL     1     -11.788  16.490  74.631  1.00  0.00     0.000 HD 
HETATM   29  C   UNL     1     -13.445  15.217  70.707  1.00  0.00    -0.296 A  
HETATM   30  N   UNL     1     -11.710  15.894  72.095  1.00  0.00    -0.465 NA 
HETATM   31  S   UNL     1     -14.216  15.349  72.224  1.00  0.00    -0.460 SA 
HETATM   32  N   UNL     1     -12.671  16.191  74.218  1.00  0.00    -0.723 NA 
HETATM   33  C   UNL     1     -12.731  15.853  72.918  1.00  0.00    -0.484 A  
ENDBRANCH  25  26
BRANCH  25  34
HETATM   34  N   UNL     1     -11.367  16.842  68.959  1.00  0.00    -0.204 NA 
HETATM   35  H   UNL     1     -12.225  17.007  68.433  1.00  0.00     0.000 HD 
BRANCH  34  36
HETATM   36  O   UNL     1     -10.376  17.829  68.969  1.00  0.00    -0.359 OA 
HETATM   37  C   UNL     1      -9.946  18.427  67.763  1.00  0.00    -0.346 C  
ENDBRANCH  34  36
ENDBRANCH  25  34
ENDBRANCH  22  25
ENDBRANCH   5  21
TORSDOF 7
ENDMDL
MODEL       22
REMARK 921   NORMALIZED FREE ENERGY PREDICTED BY IDOCK:   -6.23 KCAL/MOL
REMARK 922        TOTAL FREE ENERGY PREDICTED BY IDOCK:  -10.29 KCAL/MOL
REMARK 923 INTER-LIGAND FREE ENERGY PREDICTED BY IDOCK:   -8.73 KCAL/MOL
REMARK 924 INTRA-LIGAND FREE ENERGY PREDICTED BY IDOCK:   -1.56 KCAL/MOL
REMARK 927      BINDING AFFINITY PREDICTED BY RF-SCORE:    0.00 PKD
ROOT
HETATM    1  C   UNL     1     -11.744  11.041  68.612  1.00  0.00    -0.296 C  
HETATM    2  S   UNL     1     -10.279  10.500  67.743  1.00  0.00    -0.201 SA 
HETATM    3  C   UNL     1     -10.461   8.788  68.212  1.00  0.00    -0.187 C  
HETATM    4  C   UNL     1     -10.906   8.508  69.642  1.00  0.00    -0.157 C  
HETATM    5  CA  UNL     1     -11.706  12.512  69.123  1.00  0.00    -0.321 C  
HETATM    6  CA  UNL     1     -11.486   9.406  70.481  1.00  0.00    -0.262 C  
HETATM    7  OXT UNL     1     -12.833   9.689  72.475  1.00  0.00    -0.302 OA 
HETATM    8  N   UNL     1     -11.708  10.682  70.024  1.00  0.00    -0.296 N  
HETATM    9  C   UNL     1     -11.901   9.127  71.917  1.00  0.00    -0.369 C  
HETATM   10  O   UNL     1     -12.946  12.208  71.351  1.00  0.00    -0.368 OA 
HETATM   11  C   UNL     1     -12.256  11.844  70.433  1.00  0.00    -0.314 C  
HETATM   12  O   UNL     1     -11.170   8.204  72.580  1.00  0.00    -0.370 OA 
ENDROOT
BRANCH   4  13
HETATM   13  C   UNL     1     -10.598   7.116  69.941  1.00  0.00    -0.246 C  
HETATM   14  C   UNL     1      -9.427   6.551  70.270  1.00  0.00    -0.169 C  
BRANCH  14  15
HETATM   15  C   UNL     1      -8.165   7.190  70.429  1.00  0.00    -0.126 A  
HETATM   16  C   UNL     1      -7.133   7.307  69.497  1.00  0.00    -0.074 A  
HETATM   17  N   UNL     1      -5.919   7.750  70.002  1.00  0.00    -0.023 NA 
HETATM   18  S   UNL     1      -7.608   7.834  71.934  1.00  0.00    -0.092 SA 
HETATM   19  C   UNL     1      -7.179   6.981  68.044  1.00  0.00    -0.095 C  
HETATM   20  C   UNL     1      -6.048   8.039  71.274  1.00  0.00    -0.034 A  
ENDBRANCH  14  15
ENDBRANCH   4  13
BRANCH   5  21
HETATM   21  N   UNL     1     -10.383  13.212  69.064  1.00  0.00    -0.436 N  
HETATM   22  C   UNL     1      -9.980  14.437  68.561  1.00  0.00    -0.237 C  
HETATM   23  O   UNL     1      -8.860  14.847  68.871  1.00  0.00    -0.180 OA 
HETATM   24  H   UNL     1      -9.622  12.675  69.480  1.00  0.00     0.000 HD 
BRANCH  22  25
HETATM   25  C   UNL     1     -10.744  15.232  67.519  1.00  0.00    -0.285 C  
BRANCH  25  26
HETATM   26  C   UNL     1     -10.549  16.698  67.388  1.00  0.00    -0.295 A  
HETATM   27  H2  UNL     1      -9.733  20.738  68.532  1.00  0.00     0.000 HD 
HETATM   28  H1  UNL     1     -10.143  19.718  69.913  1.00  0.00     0.000 HD 
HETATM   29  C   UNL     1     -10.328  17.327  66.169  1.00  0.00    -0.317 A  
HETATM   30  N   UNL     1     -10.544  17.587  68.467  1.00  0.00    -0.345 NA 
HETATM   31  S   UNL     1      -9.984  18.985  66.387  1.00  0.00    -0.416 SA 
HETATM   32  N   UNL     1     -10.011  19.832  68.908  1.00  0.00    -0.436 NA 
HETATM   33  C   UNL     1     -10.205  18.793  68.077  1.00  0.00    -0.386 A  
ENDBRANCH  25  26
BRANCH  25  34
HETATM   34  N   UNL     1     -11.507  14.729  66.589  1.00  0.00    -0.354 NA 
HETATM   35  H   UNL     1     -12.387  15.194  66.366  1.00  0.00     0.000 HD 
BRANCH  34  36
HETATM   36  O   UNL     1     -11.156  13.571  65.887  1.00  0.00    -0.284 OA 
HETATM   37  C   UNL     1     -12.151  12.764  65.289  1.00  0.00    -0.457 C  
ENDBRANCH  34  36
ENDBRANCH  25  34
ENDBRANCH  22  25
ENDBRANCH   5  21
TORSDOF 7
ENDMDL
MODEL       23
REMARK 921   NORMALIZED FREE ENERGY PREDICTED BY IDOCK:   -6.23 KCAL/MOL
REMARK 922        TOTAL FREE ENERGY PREDICTED BY IDOCK:  -10.29 KCAL/MOL
REMARK 923 INTER-LIGAND FREE ENERGY PREDICTED BY IDOCK:   -8.80 KCAL/MOL
REMARK 924 INTRA-LIGAND FREE ENERGY PREDICTED BY IDOCK:   -1.49 KCAL/MOL
REMARK 927      BINDING AFFINITY PREDICTED BY RF-SCORE:    0.00 PKD
ROOT
HETATM    1  C   UNL     1      -9.034  10.817  68.357  1.00  0.00    -0.153 C  
HETATM    2  S   UNL     1      -7.472  10.874  69.224  1.00  0.00    -0.097 SA 
HETATM    3  C   UNL     1      -7.808   9.428  70.214  1.00  0.00    -0.156 C  
HETATM    4  C   UNL     1      -9.222   9.279  70.761  1.00  0.00    -0.316 C  
HETATM    5  CA  UNL     1      -9.578  12.197  67.881  1.00  0.00    -0.198 C  
HETATM    6  CA  UNL     1     -10.319   9.944  70.312  1.00  0.00    -0.281 C  
HETATM    7  OXT UNL     1     -12.740   9.962  70.222  1.00  0.00    -0.055 OA 
HETATM    8  N   UNL     1     -10.170  10.828  69.272  1.00  0.00    -0.215 N  
HETATM    9  C   UNL     1     -11.722   9.812  70.883  1.00  0.00    -0.347 C  
HETATM   10  O   UNL     1     -12.086  11.816  68.284  1.00  0.00    -0.525 OA 
HETATM   11  C   UNL     1     -10.912  11.642  68.495  1.00  0.00    -0.220 C  
HETATM   12  O   UNL     1     -11.805   9.516  72.199  1.00  0.00    -0.271 OA 
ENDROOT
BRANCH   4  13
HETATM   13  C   UNL     1      -9.182   8.304  71.843  1.00  0.00    -0.272 C  
HETATM   14  C   UNL     1      -9.180   6.964  71.788  1.00  0.00    -0.143 C  
BRANCH  14  15
HETATM   15  C   UNL     1      -9.201   6.140  70.628  1.00  0.00    -0.154 A  
HETATM   16  C   UNL     1     -10.292   5.806  69.824  1.00  0.00    -0.263 A  
HETATM   17  N   UNL     1     -10.074   4.781  68.916  1.00  0.00    -0.127 NA 
HETATM   18  S   UNL     1      -7.830   5.243  70.074  1.00  0.00    -0.081 SA 
HETATM   19  C   UNL     1     -11.659   6.399  69.856  1.00  0.00    -0.422 C  
HETATM   20  C   UNL     1      -8.822   4.398  68.972  1.00  0.00    -0.094 A  
ENDBRANCH  14  15
ENDBRANCH   4  13
BRANCH   5  21
HETATM   21  N   UNL     1      -8.886  13.415  68.412  1.00  0.00    -0.274 N  
HETATM   22  C   UNL     1      -8.869  14.742  68.020  1.00  0.00    -0.169 C  
HETATM   23  O   UNL     1      -8.389  15.567  68.801  1.00  0.00    -0.160 OA 
HETATM   24  H   UNL     1      -8.308  13.226  69.232  1.00  0.00     0.000 HD 
BRANCH  22  25
HETATM   25  C   UNL     1      -9.237  15.234  66.634  1.00  0.00    -0.274 C  
BRANCH  25  26
HETATM   26  C   UNL     1     -10.402  14.665  65.910  1.00  0.00    -0.319 A  
HETATM   27  H2  UNL     1     -12.594  12.287  63.110  1.00  0.00     0.000 HD 
HETATM   28  H1  UNL     1     -10.890  12.440  62.675  1.00  0.00     0.000 HD 
HETATM   29  C   UNL     1     -11.703  14.737  66.393  1.00  0.00    -0.263 A  
HETATM   30  N   UNL     1     -10.312  13.985  64.692  1.00  0.00    -0.409 NA 
HETATM   31  S   UNL     1     -12.775  13.847  65.406  1.00  0.00    -0.410 SA 
HETATM   32  N   UNL     1     -11.666  12.667  63.296  1.00  0.00    -0.474 NA 
HETATM   33  C   UNL     1     -11.470  13.465  64.360  1.00  0.00    -0.384 A  
ENDBRANCH  25  26
BRANCH  25  34
HETATM   34  N   UNL     1      -8.690  16.244  66.015  1.00  0.00    -0.388 NA 
HETATM   35  H   UNL     1      -7.693  16.214  65.805  1.00  0.00     0.000 HD 
BRANCH  34  36
HETATM   36  O   UNL     1      -9.431  17.367  65.631  1.00  0.00    -0.509 OA 
HETATM   37  C   UNL     1     -10.090  18.158  66.599  1.00  0.00    -0.373 C  
ENDBRANCH  34  36
ENDBRANCH  25  34
ENDBRANCH  22  25
ENDBRANCH   5  21
TORSDOF 7
ENDMDL
MODEL       24
REMARK 921   NORMALIZED FREE ENERGY PREDICTED BY IDOCK:   -6.20 KCAL/MOL
REMARK 922        TOTAL FREE ENERGY PREDICTED BY IDOCK:  -10.25 KCAL/MOL
REMARK 923 INTER-LIGAND FREE ENERGY PREDICTED BY IDOCK:   -8.89 KCAL/MOL
REMARK 924 INTRA-LIGAND FREE ENERGY PREDICTED BY IDOCK:   -1.36 KCAL/MOL
REMARK 927      BINDING AFFINITY PREDICTED BY RF-SCORE:    0.00 PKD
ROOT
HETATM    1  C   UNL     1      -9.502  14.823  67.288  1.00  0.00    -0.214 C  
HETATM    2  S   UNL     1     -10.951  15.115  68.293  1.00  0.00    -0.288 SA 
HETATM    3  C   UNL     1     -10.628  16.858  68.503  1.00  0.00    -0.367 C  
HETATM    4  C   UNL     1      -9.179  17.267  68.737  1.00  0.00    -0.238 C  
HETATM    5  CA  UNL     1      -8.903  13.389  67.389  1.00  0.00    -0.214 C  
HETATM    6  CA  UNL     1      -8.087  16.500  68.480  1.00  0.00    -0.218 C  
HETATM    7  OXT UNL     1      -5.696  16.505  68.085  1.00  0.00    -0.109 OA 
HETATM    8  N   UNL     1      -8.277  15.245  67.957  1.00  0.00    -0.138 N  
HETATM    9  C   UNL     1      -6.646  16.905  68.745  1.00  0.00    -0.184 C  
HETATM   10  O   UNL     1      -6.406  13.971  67.249  1.00  0.00    -0.295 OA 
HETATM   11  C   UNL     1      -7.560  14.191  67.518  1.00  0.00    -0.184 C  
HETATM   12  O   UNL     1      -6.445  17.753  69.778  1.00  0.00    -0.196 OA 
ENDROOT
BRANCH   4  13
HETATM   13  C   UNL     1      -9.180  18.618  69.284  1.00  0.00     0.093 C  
HETATM   14  C   UNL     1      -8.764  19.766  68.730  1.00  0.00    -0.201 C  
BRANCH  14  15
HETATM   15  C   UNL     1      -8.218  19.957  67.429  1.00  0.00    -0.320 A  
HETATM   16  C   UNL     1      -8.840  19.769  66.194  1.00  0.00    -0.336 A  
HETATM   17  N   UNL     1      -7.998  19.778  65.093  1.00  0.00     0.026 NA 
HETATM   18  S   UNL     1      -6.554  20.332  67.142  1.00  0.00    -0.238 SA 
HETATM   19  C   UNL     1     -10.288  19.528  65.934  1.00  0.00    -0.562 C  
HETATM   20  C   UNL     1      -6.773  20.047  65.474  1.00  0.00    -0.285 A  
ENDBRANCH  14  15
ENDBRANCH   4  13
BRANCH   5  21
HETATM   21  N   UNL     1      -9.433  12.513  68.483  1.00  0.00    -0.374 N  
HETATM   22  C   UNL     1     -10.061  11.279  68.490  1.00  0.00    -0.204 C  
HETATM   23  O   UNL     1     -10.170  10.695  69.569  1.00  0.00    -0.218 OA 
HETATM   24  H   UNL     1      -9.304  12.907  69.416  1.00  0.00     0.000 HD 
BRANCH  22  25
HETATM   25  C   UNL     1     -10.777  10.673  67.299  1.00  0.00    -0.285 C  
BRANCH  25  26
HETATM   26  C   UNL     1     -11.215  11.523  66.162  1.00  0.00    -0.202 A  
HETATM   27  H2  UNL     1     -13.023  14.796  64.085  1.00  0.00     0.000 HD 
HETATM   28  H1  UNL     1     -13.604  14.649  65.746  1.00  0.00     0.000 HD 
HETATM   29  C   UNL     1     -10.683  11.411  64.883  1.00  0.00    -0.286 A  
HETATM   30  N   UNL     1     -12.180  12.529  66.263  1.00  0.00    -0.584 NA 
HETATM   31  S   UNL     1     -11.284  12.637  63.859  1.00  0.00    -0.475 SA 
HETATM   32  N   UNL     1     -13.024  14.307  64.980  1.00  0.00    -0.660 NA 
HETATM   33  C   UNL     1     -12.260  13.213  65.146  1.00  0.00    -0.450 A  
ENDBRANCH  25  26
BRANCH  25  34
HETATM   34  N   UNL     1     -10.957   9.398  67.087  1.00  0.00    -0.273 NA 
HETATM   35  H   UNL     1     -11.884   9.068  66.821  1.00  0.00     0.000 HD 
BRANCH  34  36
HETATM   36  O   UNL     1      -9.916   8.472  67.214  1.00  0.00    -0.185 OA 
HETATM   37  C   UNL     1     -10.159   7.091  67.035  1.00  0.00    -0.229 C  
ENDBRANCH  34  36
ENDBRANCH  25  34
ENDBRANCH  22  25
ENDBRANCH   5  21
TORSDOF 7
ENDMDL
MODEL       25
REMARK 921   NORMALIZED FREE ENERGY PREDICTED BY IDOCK:   -6.19 KCAL/MOL
REMARK 922        TOTAL FREE ENERGY PREDICTED BY IDOCK:  -10.23 KCAL/MOL
REMARK 923 INTER-LIGAND FREE ENERGY PREDICTED BY IDOCK:   -8.36 KCAL/MOL
REMARK 924 INTRA-LIGAND FREE ENERGY PREDICTED BY IDOCK:   -1.87 KCAL/MOL
REMARK 927      BINDING AFFINITY PREDICTED BY RF-SCORE:    0.00 PKD
ROOT
HETATM    1  C   UNL     1      -9.756   9.756  68.069  1.00  0.00    -0.145 C  
HETATM    2  S   UNL     1      -8.013   9.962  67.728  1.00  0.00    -0.105 SA 
HETATM    3  C   UNL     1      -7.507   8.581  68.738  1.00  0.00    -0.092 C  
HETATM    4  C   UNL     1      -8.226   8.400  70.069  1.00  0.00    -0.121 C  
HETATM    5  CA  UNL     1     -10.601  11.064  68.020  1.00  0.00    -0.204 C  
HETATM    6  CA  UNL     1      -9.410   8.969  70.414  1.00  0.00    -0.208 C  
HETATM    7  OXT UNL     1     -11.321   8.851  71.900  1.00  0.00    -0.338 OA 
HETATM    8  N   UNL     1     -10.040   9.776  69.499  1.00  0.00    -0.202 N  
HETATM    9  C   UNL     1     -10.106   8.807  71.756  1.00  0.00    -0.333 C  
HETATM   10  O   UNL     1     -12.225  10.582  69.949  1.00  0.00    -0.281 OA 
HETATM   11  C   UNL     1     -11.178  10.488  69.361  1.00  0.00    -0.269 C  
HETATM   12  O   UNL     1      -9.303   8.609  72.824  1.00  0.00    -0.259 OA 
ENDROOT
BRANCH   4  13
HETATM   13  C   UNL     1      -7.416   7.515  70.897  1.00  0.00    -0.073 C  
HETATM   14  C   UNL     1      -7.431   6.177  70.988  1.00  0.00    -0.085 C  
BRANCH  14  15
HETATM   15  C   UNL     1      -8.253   5.265  70.269  1.00  0.00    -0.095 A  
HETATM   16  C   UNL     1      -9.441   4.660  70.681  1.00  0.00    -0.172 A  
HETATM   17  N   UNL     1      -9.891   3.619  69.884  1.00  0.00    -0.081 NA 
HETATM   18  S   UNL     1      -7.815   4.598  68.734  1.00  0.00    -0.075 SA 
HETATM   19  C   UNL     1     -10.253   4.984  71.889  1.00  0.00    -0.267 C  
HETATM   20  C   UNL     1      -9.105   3.486  68.844  1.00  0.00    -0.145 A  
ENDBRANCH  14  15
ENDBRANCH   4  13
BRANCH   5  21
HETATM   21  N   UNL     1      -9.842  12.354  67.951  1.00  0.00    -0.196 N  
HETATM   22  C   UNL     1     -10.137  13.649  68.342  1.00  0.00    -0.241 C  
HETATM   23  O   UNL     1      -9.214  14.465  68.373  1.00  0.00    -0.185 OA 
HETATM   24  H   UNL     1      -8.918  12.258  67.530  1.00  0.00     0.000 HD 
BRANCH  22  25
HETATM   25  C   UNL     1     -11.539  14.181  68.567  1.00  0.00    -0.316 C  
BRANCH  25  26
HETATM   26  C   UNL     1     -11.981  14.612  69.918  1.00  0.00    -0.329 A  
HETATM   27  H2  UNL     1     -13.674  14.360  73.837  1.00  0.00     0.000 HD 
HETATM   28  H1  UNL     1     -14.171  13.019  72.802  1.00  0.00     0.000 HD 
HETATM   29  C   UNL     1     -11.531  15.778  70.526  1.00  0.00    -0.381 A  
HETATM   30  N   UNL     1     -12.868  13.888  70.719  1.00  0.00    -0.293 NA 
HETATM   31  S   UNL     1     -12.103  15.894  72.130  1.00  0.00    -0.549 SA 
HETATM   32  N   UNL     1     -13.659  13.891  72.932  1.00  0.00    -0.647 NA 
HETATM   33  C   UNL     1     -12.964  14.426  71.913  1.00  0.00    -0.349 A  
ENDBRANCH  25  26
BRANCH  25  34
HETATM   34  N   UNL     1     -12.416  14.432  67.634  1.00  0.00    -0.530 NA 
HETATM   35  H   UNL     1     -13.070  15.204  67.765  1.00  0.00     0.000 HD 
BRANCH  34  36
HETATM   36  O   UNL     1     -12.486  13.676  66.459  1.00  0.00    -0.381 OA 
HETATM   37  C   UNL     1     -12.532  14.313  65.197  1.00  0.00    -0.416 C  
ENDBRANCH  34  36
ENDBRANCH  25  34
ENDBRANCH  22  25
ENDBRANCH   5  21
TORSDOF 7
ENDMDL
MODEL       26
REMARK 921   NORMALIZED FREE ENERGY PREDICTED BY IDOCK:   -6.19 KCAL/MOL
REMARK 922        TOTAL FREE ENERGY PREDICTED BY IDOCK:  -10.23 KCAL/MOL
REMARK 923 INTER-LIGAND FREE ENERGY PREDICTED BY IDOCK:   -8.63 KCAL/MOL
REMARK 924 INTRA-LIGAND FREE ENERGY PREDICTED BY IDOCK:   -1.60 KCAL/MOL
REMARK 927      BINDING AFFINITY PREDICTED BY RF-SCORE:    0.00 PKD
ROOT
HETATM    1  C   UNL     1     -11.352  10.279  68.285  1.00  0.00    -0.177 C  
HETATM    2  S   UNL     1     -11.379  11.654  69.427  1.00  0.00    -0.272 SA 
HETATM    3  C   UNL     1     -12.158  12.776  68.279  1.00  0.00    -0.104 C  
HETATM    4  C   UNL     1     -11.685  12.720  66.832  1.00  0.00    -0.447 C  
HETATM    5  CA  UNL     1     -10.187   9.266  68.494  1.00  0.00    -0.201 C  
HETATM    6  CA  UNL     1     -10.985  11.702  66.266  1.00  0.00    -0.289 C  
HETATM    7  OXT UNL     1     -10.349  10.636  64.185  1.00  0.00    -0.351 OA 
HETATM    8  N   UNL     1     -10.668  10.614  67.041  1.00  0.00    -0.266 N  
HETATM    9  C   UNL     1     -10.492  11.667  64.828  1.00  0.00    -0.295 C  
HETATM   10  O   UNL     1      -9.680   8.705  66.040  1.00  0.00    -0.241 OA 
HETATM   11  C   UNL     1     -10.065   9.412  66.936  1.00  0.00    -0.248 C  
HETATM   12  O   UNL     1     -10.202  12.862  64.267  1.00  0.00    -0.378 OA 
ENDROOT
BRANCH   4  13
HETATM   13  C   UNL     1     -12.116  13.947  66.173  1.00  0.00    -0.478 C  
HETATM   14  C   UNL     1     -11.606  15.184  66.251  1.00  0.00    -0.080 C  
BRANCH  14  15
HETATM   15  C   UNL     1     -10.477  15.615  67.003  1.00  0.00    -0.303 A  
HETATM   16  C   UNL     1     -10.443  16.090  68.315  1.00  0.00    -0.269 A  
HETATM   17  N   UNL     1      -9.251  16.683  68.705  1.00  0.00    -0.247 NA 
HETATM   18  S   UNL     1      -8.891  15.773  66.332  1.00  0.00    -0.349 SA 
HETATM   19  C   UNL     1     -11.543  16.063  69.320  1.00  0.00    -0.331 C  
HETATM   20  C   UNL     1      -8.372  16.588  67.738  1.00  0.00    -0.170 A  
ENDBRANCH  14  15
ENDBRANCH   4  13
BRANCH   5  21
HETATM   21  N   UNL     1      -9.096   9.678  69.435  1.00  0.00    -0.175 N  
HETATM   22  C   UNL     1      -8.518   9.075  70.539  1.00  0.00    -0.200 C  
HETATM   23  O   UNL     1      -7.470   9.555  70.974  1.00  0.00    -0.300 OA 
HETATM   24  H   UNL     1      -8.698  10.592  69.217  1.00  0.00     0.000 HD 
BRANCH  22  25
HETATM   25  C   UNL     1      -9.169   7.975  71.356  1.00  0.00    -0.144 C  
BRANCH  25  26
HETATM   26  C   UNL     1     -10.640   7.947  71.557  1.00  0.00    -0.222 A  
HETATM   27  H2  UNL     1     -14.623   9.395  72.134  1.00  0.00     0.000 HD 
HETATM   28  H1  UNL     1     -13.402  10.618  72.498  1.00  0.00     0.000 HD 
HETATM   29  C   UNL     1     -11.419   6.826  71.292  1.00  0.00    -0.302 A  
HETATM   30  N   UNL     1     -11.390   9.037  72.006  1.00  0.00    -0.363 NA 
HETATM   31  S   UNL     1     -13.080   7.178  71.472  1.00  0.00    -0.316 SA 
HETATM   32  N   UNL     1     -13.644   9.668  72.215  1.00  0.00    -0.423 NA 
HETATM   33  C   UNL     1     -12.675   8.775  71.948  1.00  0.00    -0.374 A  
ENDBRANCH  25  26
BRANCH  25  34
HETATM   34  N   UNL     1      -8.564   6.921  71.831  1.00  0.00    -0.119 NA 
HETATM   35  H   UNL     1      -8.625   6.724  72.829  1.00  0.00     0.000 HD 
BRANCH  34  36
HETATM   36  O   UNL     1      -7.833   6.054  71.011  1.00  0.00    -0.106 OA 
HETATM   37  C   UNL     1      -8.297   4.742  70.761  1.00  0.00    -0.094 C  
ENDBRANCH  34  36
ENDBRANCH  25  34
ENDBRANCH  22  25
ENDBRANCH   5  21
TORSDOF 7
ENDMDL
MODEL       27
REMARK 921   NORMALIZED FREE ENERGY PREDICTED BY IDOCK:   -6.13 KCAL/MOL
REMARK 922        TOTAL FREE ENERGY PREDICTED BY IDOCK:  -10.16 KCAL/MOL
REMARK 923 INTER-LIGAND FREE ENERGY PREDICTED BY IDOCK:   -8.70 KCAL/MOL
REMARK 924 INTRA-LIGAND FREE ENERGY PREDICTED BY IDOCK:   -1.46 KCAL/MOL
REMARK 927      BINDING AFFINITY PREDICTED BY RF-SCORE:    0.00 PKD
ROOT
HETATM    1  C   UNL     1      -8.179  10.986  67.173  1.00  0.00    -0.133 C  
HETATM    2  S   UNL     1      -8.484  11.201  68.922  1.00  0.00    -0.037 SA 
HETATM    3  C   UNL     1      -7.829   9.604  69.376  1.00  0.00    -0.104 C  
HETATM    4  C   UNL     1      -8.171   8.434  68.463  1.00  0.00    -0.124 C  
HETATM    5  CA  UNL     1      -9.159  11.747  66.232  1.00  0.00    -0.206 C  
HETATM    6  CA  UNL     1      -8.634   8.531  67.189  1.00  0.00    -0.122 C  
HETATM    7  OXT UNL     1      -8.909   7.379  65.075  1.00  0.00     0.117 OA 
HETATM    8  N   UNL     1      -8.812   9.781  66.651  1.00  0.00    -0.137 N  
HETATM    9  C   UNL     1      -9.000   7.357  66.295  1.00  0.00    -0.162 C  
HETATM   10  O   UNL     1      -9.368  10.005  64.356  1.00  0.00    -0.256 OA 
HETATM   11  C   UNL     1      -9.184  10.362  65.492  1.00  0.00    -0.184 C  
HETATM   12  O   UNL     1      -9.453   6.249  66.921  1.00  0.00    -0.129 OA 
ENDROOT
BRANCH   4  13
HETATM   13  C   UNL     1      -7.913   7.203  69.200  1.00  0.00    -0.119 C  
HETATM   14  C   UNL     1      -8.665   6.585  70.123  1.00  0.00    -0.140 C  
BRANCH  14  15
HETATM   15  C   UNL     1      -9.942   6.980  70.613  1.00  0.00    -0.186 A  
HETATM   16  C   UNL     1     -10.245   7.641  71.803  1.00  0.00    -0.188 A  
HETATM   17  N   UNL     1     -11.588   7.667  72.148  1.00  0.00    -0.293 NA 
HETATM   18  S   UNL     1     -11.430   6.549  69.843  1.00  0.00    -0.354 SA 
HETATM   19  C   UNL     1      -9.293   8.286  72.752  1.00  0.00    -0.338 C  
HETATM   20  C   UNL     1     -12.299   7.108  71.201  1.00  0.00    -0.364 A  
ENDBRANCH  14  15
ENDBRANCH   4  13
BRANCH   5  21
HETATM   21  N   UNL     1     -10.375  12.348  66.867  1.00  0.00    -0.223 N  
HETATM   22  C   UNL     1     -11.287  13.304  66.453  1.00  0.00    -0.312 C  
HETATM   23  O   UNL     1     -12.329  13.424  67.101  1.00  0.00    -0.295 OA 
HETATM   24  H   UNL     1     -10.570  11.978  67.798  1.00  0.00     0.000 HD 
BRANCH  22  25
HETATM   25  C   UNL     1     -11.024  14.329  65.367  1.00  0.00    -0.333 C  
BRANCH  25  26
HETATM   26  C   UNL     1     -10.321  15.600  65.676  1.00  0.00    -0.385 A  
HETATM   27  H2  UNL     1      -9.702  19.801  66.187  1.00  0.00     0.000 HD 
HETATM   28  H1  UNL     1     -11.127  19.445  65.208  1.00  0.00     0.000 HD 
HETATM   29  C   UNL     1      -9.134  15.654  66.397  1.00  0.00    -0.320 A  
HETATM   30  N   UNL     1     -10.786  16.863  65.300  1.00  0.00    -0.609 NA 
HETATM   31  S   UNL     1      -8.681  17.268  66.715  1.00  0.00    -0.265 SA 
HETATM   32  N   UNL     1     -10.314  19.124  65.734  1.00  0.00    -0.535 NA 
HETATM   33  C   UNL     1     -10.048  17.810  65.831  1.00  0.00    -0.174 A  
ENDBRANCH  25  26
BRANCH  25  34
HETATM   34  N   UNL     1     -11.249  14.162  64.093  1.00  0.00    -0.590 NA 
HETATM   35  H   UNL     1     -10.607  14.579  63.419  1.00  0.00     0.000 HD 
BRANCH  34  36
HETATM   36  O   UNL     1     -12.344  13.429  63.623  1.00  0.00    -0.680 OA 
HETATM   37  C   UNL     1     -12.216  12.049  63.342  1.00  0.00    -0.519 C  
ENDBRANCH  34  36
ENDBRANCH  25  34
ENDBRANCH  22  25
ENDBRANCH   5  21
TORSDOF 7
ENDMDL
MODEL       28
REMARK 921   NORMALIZED FREE ENERGY PREDICTED BY IDOCK:   -6.11 KCAL/MOL
REMARK 922        TOTAL FREE ENERGY PREDICTED BY IDOCK:  -10.13 KCAL/MOL
REMARK 923 INTER-LIGAND FREE ENERGY PREDICTED BY IDOCK:   -8.54 KCAL/MOL
REMARK 924 INTRA-LIGAND FREE ENERGY PREDICTED BY IDOCK:   -1.59 KCAL/MOL
REMARK 927      BINDING AFFINITY PREDICTED BY RF-SCORE:    0.00 PKD
ROOT
HETATM    1  C   UNL     1      -7.950  10.791  68.472  1.00  0.00    -0.130 C  
HETATM    2  S   UNL     1      -8.134   9.804  69.951  1.00  0.00    -0.188 SA 
HETATM    3  C   UNL     1      -7.264   8.394  69.288  1.00  0.00    -0.063 C  
HETATM    4  C   UNL     1      -7.541   8.033  67.835  1.00  0.00    -0.112 C  
HETATM    5  CA  UNL     1      -9.085  11.828  68.221  1.00  0.00    -0.187 C  
HETATM    6  CA  UNL     1      -8.114   8.849  66.911  1.00  0.00    -0.109 C  
HETATM    7  OXT UNL     1      -8.425   9.273  64.546  1.00  0.00    -0.161 OA 
HETATM    8  N   UNL     1      -8.480  10.115  67.293  1.00  0.00    -0.125 N  
HETATM    9  C   UNL     1      -8.414   8.470  65.470  1.00  0.00    -0.167 C  
HETATM   10  O   UNL     1      -9.243  11.661  65.664  1.00  0.00    -0.213 OA 
HETATM   11  C   UNL     1      -9.010  11.239  66.768  1.00  0.00    -0.171 C  
HETATM   12  O   UNL     1      -8.682   7.166  65.238  1.00  0.00    -0.050 OA 
ENDROOT
BRANCH   4  13
HETATM   13  C   UNL     1      -7.083   6.666  67.619  1.00  0.00    -0.085 C  
HETATM   14  C   UNL     1      -7.563   5.516  68.112  1.00  0.00    -0.081 C  
BRANCH  14  15
HETATM   15  C   UNL     1      -8.678   5.337  68.979  1.00  0.00    -0.100 A  
HETATM   16  C   UNL     1     -10.028   5.564  68.710  1.00  0.00    -0.172 A  
HETATM   17  N   UNL     1     -10.868   5.558  69.813  1.00  0.00    -0.298 NA 
HETATM   18  S   UNL     1      -8.525   4.930  70.653  1.00  0.00    -0.106 SA 
HETATM   19  C   UNL     1     -10.655   5.843  67.387  1.00  0.00    -0.356 C  
HETATM   20  C   UNL     1     -10.183   5.253  70.888  1.00  0.00    -0.234 A  
ENDBRANCH  14  15
ENDBRANCH   4  13
BRANCH   5  21
HETATM   21  N   UNL     1     -10.307  11.711  69.081  1.00  0.00    -0.412 N  
HETATM   22  C   UNL     1     -11.566  12.283  69.021  1.00  0.00    -0.316 C  
HETATM   23  O   UNL     1     -12.448  11.810  69.741  1.00  0.00    -0.132 OA 
HETATM   24  H   UNL     1     -10.185  11.079  69.873  1.00  0.00     0.000 HD 
BRANCH  22  25
HETATM   25  C   UNL     1     -11.897  13.557  68.267  1.00  0.00    -0.366 C  
BRANCH  25  26
HETATM   26  C   UNL     1     -11.916  13.577  66.782  1.00  0.00    -0.404 A  
HETATM   27  H2  UNL     1     -12.921  12.439  62.784  1.00  0.00     0.000 HD 
HETATM   28  H1  UNL     1     -13.268  11.163  63.954  1.00  0.00     0.000 HD 
HETATM   29  C   UNL     1     -11.502  14.673  66.034  1.00  0.00    -0.332 A  
HETATM   30  N   UNL     1     -12.370  12.519  65.991  1.00  0.00    -0.574 NA 
HETATM   31  S   UNL     1     -11.805  14.431  64.372  1.00  0.00    -0.382 SA 
HETATM   32  N   UNL     1     -12.907  12.094  63.743  1.00  0.00    -0.754 NA 
HETATM   33  C   UNL     1     -12.412  12.867  64.726  1.00  0.00    -0.455 A  
ENDBRANCH  25  26
BRANCH  25  34
HETATM   34  N   UNL     1     -12.309  14.673  68.803  1.00  0.00    -0.588 NA 
HETATM   35  H   UNL     1     -13.022  15.219  68.320  1.00  0.00     0.000 HD 
BRANCH  34  36
HETATM   36  O   UNL     1     -11.803  15.142  70.020  1.00  0.00    -0.282 OA 
HETATM   37  C   UNL     1     -12.673  15.425  71.098  1.00  0.00    -0.439 C  
ENDBRANCH  34  36
ENDBRANCH  25  34
ENDBRANCH  22  25
ENDBRANCH   5  21
TORSDOF 7
ENDMDL
MODEL       29
REMARK 921   NORMALIZED FREE ENERGY PREDICTED BY IDOCK:   -6.10 KCAL/MOL
REMARK 922        TOTAL FREE ENERGY PREDICTED BY IDOCK:  -10.11 KCAL/MOL
REMARK 923 INTER-LIGAND FREE ENERGY PREDICTED BY IDOCK:   -8.61 KCAL/MOL
REMARK 924 INTRA-LIGAND FREE ENERGY PREDICTED BY IDOCK:   -1.51 KCAL/MOL
REMARK 927      BINDING AFFINITY PREDICTED BY RF-SCORE:    0.00 PKD
ROOT
HETATM    1  C   UNL     1     -11.611  10.510  68.225  1.00  0.00    -0.101 C  
HETATM    2  S   UNL     1     -11.535  11.822  69.437  1.00  0.00    -0.311 SA 
HETATM    3  C   UNL     1     -12.147  13.077  68.326  1.00  0.00    -0.156 C  
HETATM    4  C   UNL     1     -11.629  13.042  66.894  1.00  0.00    -0.419 C  
HETATM    5  CA  UNL     1     -10.569   9.369  68.417  1.00  0.00    -0.204 C  
HETATM    6  CA  UNL     1     -11.020  11.983  66.297  1.00  0.00    -0.299 C  
HETATM    7  OXT UNL     1     -10.423  10.959  64.184  1.00  0.00    -0.364 OA 
HETATM    8  N   UNL     1     -10.850  10.831  67.023  1.00  0.00    -0.267 N  
HETATM    9  C   UNL     1     -10.480  11.966  64.876  1.00  0.00    -0.287 C  
HETATM   10  O   UNL     1     -10.033   8.878  65.954  1.00  0.00    -0.245 OA 
HETATM   11  C   UNL     1     -10.374   9.578  66.873  1.00  0.00    -0.237 C  
HETATM   12  O   UNL     1     -10.043  13.149  64.390  1.00  0.00    -0.334 OA 
ENDROOT
BRANCH   4  13
HETATM   13  C   UNL     1     -11.902  14.339  66.288  1.00  0.00    -0.420 C  
HETATM   14  C   UNL     1     -11.243  15.499  66.417  1.00  0.00    -0.098 C  
BRANCH  14  15
HETATM   15  C   UNL     1     -10.072  15.755  67.186  1.00  0.00    -0.251 A  
HETATM   16  C   UNL     1      -9.983  16.136  68.525  1.00  0.00    -0.229 A  
HETATM   17  N   UNL     1      -8.734  16.569  68.942  1.00  0.00    -0.254 NA 
HETATM   18  S   UNL     1      -8.480  15.786  66.511  1.00  0.00    -0.276 SA 
HETATM   19  C   UNL     1     -11.078  16.161  69.537  1.00  0.00    -0.344 C  
HETATM   20  C   UNL     1      -7.873  16.445  67.963  1.00  0.00    -0.155 A  
ENDBRANCH  14  15
ENDBRANCH   4  13
BRANCH   5  21
HETATM   21  N   UNL     1      -9.477   9.613  69.413  1.00  0.00    -0.180 N  
HETATM   22  C   UNL     1      -9.248   9.157  70.700  1.00  0.00    -0.258 C  
HETATM   23  O   UNL     1      -8.132   9.346  71.187  1.00  0.00    -0.322 OA 
HETATM   24  H   UNL     1      -8.753  10.246  69.072  1.00  0.00     0.000 HD 
BRANCH  22  25
HETATM   25  C   UNL     1     -10.318   8.597  71.617  1.00  0.00    -0.296 C  
BRANCH  25  26
HETATM   26  C   UNL     1     -10.105   7.320  72.343  1.00  0.00    -0.185 A  
HETATM   27  H2  UNL     1      -8.759   3.331  73.101  1.00  0.00     0.000 HD 
HETATM   28  H1  UNL     1      -8.744   3.731  71.382  1.00  0.00     0.000 HD 
HETATM   29  C   UNL     1     -10.265   7.194  73.718  1.00  0.00    -0.352 A  
HETATM   30  N   UNL     1      -9.702   6.129  71.732  1.00  0.00    -0.154 NA 
HETATM   31  S   UNL     1      -9.786   5.645  74.253  1.00  0.00    -0.235 SA 
HETATM   32  N   UNL     1      -8.944   3.992  72.348  1.00  0.00    -0.109 NA 
HETATM   33  C   UNL     1      -9.450   5.206  72.630  1.00  0.00    -0.140 A  
ENDBRANCH  25  26
BRANCH  25  34
HETATM   34  N   UNL     1     -11.422   9.204  71.957  1.00  0.00    -0.344 NA 
HETATM   35  H   UNL     1     -11.371  10.010  72.580  1.00  0.00     0.000 HD 
BRANCH  34  36
HETATM   36  O   UNL     1     -12.673   8.784  71.492  1.00  0.00    -0.319 OA 
HETATM   37  C   UNL     1     -13.849   9.106  72.206  1.00  0.00    -0.463 C  
ENDBRANCH  34  36
ENDBRANCH  25  34
ENDBRANCH  22  25
ENDBRANCH   5  21
TORSDOF 7
ENDMDL
MODEL       30
REMARK 921   NORMALIZED FREE ENERGY PREDICTED BY IDOCK:   -6.09 KCAL/MOL
REMARK 922        TOTAL FREE ENERGY PREDICTED BY IDOCK:  -10.09 KCAL/MOL
REMARK 923 INTER-LIGAND FREE ENERGY PREDICTED BY IDOCK:   -8.48 KCAL/MOL
REMARK 924 INTRA-LIGAND FREE ENERGY PREDICTED BY IDOCK:   -1.62 KCAL/MOL
REMARK 927      BINDING AFFINITY PREDICTED BY RF-SCORE:    0.00 PKD
ROOT
HETATM    1  C   UNL     1     -10.127  10.582  69.580  1.00  0.00    -0.178 C  
HETATM    2  S   UNL     1     -11.681  10.848  70.423  1.00  0.00    -0.347 SA 
HETATM    3  C   UNL     1     -11.783   9.183  71.057  1.00  0.00    -0.301 C  
HETATM    4  C   UNL     1     -11.363   8.060  70.118  1.00  0.00    -0.081 C  
HETATM    5  CA  UNL     1      -9.904  11.457  68.310  1.00  0.00    -0.200 C  
HETATM    6  CA  UNL     1     -10.621   8.207  68.989  1.00  0.00    -0.151 C  
HETATM    7  OXT UNL     1      -9.204   7.085  67.374  1.00  0.00    -0.124 OA 
HETATM    8  N   UNL     1     -10.195   9.466  68.644  1.00  0.00    -0.194 N  
HETATM    9  C   UNL     1     -10.231   7.084  68.041  1.00  0.00    -0.182 C  
HETATM   10  O   UNL     1      -8.687   9.743  66.835  1.00  0.00    -0.133 OA 
HETATM   11  C   UNL     1      -9.449  10.081  67.705  1.00  0.00    -0.140 C  
HETATM   12  O   UNL     1     -11.094   6.048  67.956  1.00  0.00    -0.304 OA 
ENDROOT
BRANCH   4  13
HETATM   13  C   UNL     1     -11.898   6.812  70.647  1.00  0.00    -0.442 C  
HETATM   14  C   UNL     1     -11.394   5.992  71.581  1.00  0.00    -0.313 C  
BRANCH  14  15
HETATM   15  C   UNL     1     -10.187   6.151  72.319  1.00  0.00    -0.185 A  
HETATM   16  C   UNL     1      -8.899   5.744  71.969  1.00  0.00    -0.138 A  
HETATM   17  N   UNL     1      -7.958   5.793  72.986  1.00  0.00    -0.107 NA 
HETATM   18  S   UNL     1     -10.133   6.776  73.931  1.00  0.00    -0.366 SA 
HETATM   19  C   UNL     1      -8.435   5.236  70.646  1.00  0.00    -0.118 C  
HETATM   20  C   UNL     1      -8.500   6.302  74.066  1.00  0.00    -0.116 A  
ENDBRANCH  14  15
ENDBRANCH   4  13
BRANCH   5  21
HETATM   21  N   UNL     1     -11.089  12.215  67.797  1.00  0.00    -0.235 N  
HETATM   22  C   UNL     1     -11.415  13.561  67.772  1.00  0.00    -0.315 C  
HETATM   23  O   UNL     1     -12.362  13.910  67.065  1.00  0.00    -0.391 OA 
HETATM   24  H   UNL     1     -11.803  11.617  67.381  1.00  0.00     0.000 HD 
BRANCH  22  25
HETATM   25  C   UNL     1     -10.805  14.610  68.681  1.00  0.00    -0.255 C  
BRANCH  25  26
HETATM   26  C   UNL     1     -10.312  15.899  68.131  1.00  0.00    -0.256 A  
HETATM   27  H2  UNL     1      -8.236  18.611  65.556  1.00  0.00     0.000 HD 
HETATM   28  H1  UNL     1      -7.631  16.958  65.422  1.00  0.00     0.000 HD 
HETATM   29  C   UNL     1     -10.885  17.125  68.446  1.00  0.00    -0.309 A  
HETATM   30  N   UNL     1      -9.248  16.010  67.232  1.00  0.00    -0.203 NA 
HETATM   31  S   UNL     1     -10.189  18.382  67.524  1.00  0.00    -0.393 SA 
HETATM   32  N   UNL     1      -8.262  17.635  65.850  1.00  0.00    -0.547 NA 
HETATM   33  C   UNL     1      -9.128  17.244  66.802  1.00  0.00    -0.252 A  
ENDBRANCH  25  26
BRANCH  25  34
HETATM   34  N   UNL     1     -10.772  14.560  69.984  1.00  0.00    -0.466 NA 
HETATM   35  H   UNL     1      -9.878  14.684  70.461  1.00  0.00     0.000 HD 
BRANCH  34  36
HETATM   36  O   UNL     1     -11.924  14.343  70.748  1.00  0.00    -0.301 OA 
HETATM   37  C   UNL     1     -12.961  15.303  70.770  1.00  0.00    -0.436 C  
ENDBRANCH  34  36
ENDBRANCH  25  34
ENDBRANCH  22  25
ENDBRANCH   5  21
TORSDOF 7
ENDMDL
MODEL       31
REMARK 921   NORMALIZED FREE ENERGY PREDICTED BY IDOCK:   -6.09 KCAL/MOL
REMARK 922        TOTAL FREE ENERGY PREDICTED BY IDOCK:  -10.09 KCAL/MOL
REMARK 923 INTER-LIGAND FREE ENERGY PREDICTED BY IDOCK:   -8.40 KCAL/MOL
REMARK 924 INTRA-LIGAND FREE ENERGY PREDICTED BY IDOCK:   -1.70 KCAL/MOL
REMARK 927      BINDING AFFINITY PREDICTED BY RF-SCORE:    0.00 PKD
ROOT
HETATM    1  C   UNL     1     -10.109  10.603  69.419  1.00  0.00    -0.174 C  
HETATM    2  S   UNL     1     -11.743  10.561  70.143  1.00  0.00    -0.348 SA 
HETATM    3  C   UNL     1     -11.630   8.852  70.646  1.00  0.00    -0.215 C  
HETATM    4  C   UNL     1     -10.971   7.888  69.668  1.00  0.00    -0.114 C  
HETATM    5  CA  UNL     1      -9.933  11.604  68.239  1.00  0.00    -0.201 C  
HETATM    6  CA  UNL     1     -10.181   8.238  68.620  1.00  0.00    -0.204 C  
HETATM    7  OXT UNL     1      -8.492   7.481  67.056  1.00  0.00    -0.118 OA 
HETATM    8  N   UNL     1      -9.933   9.571  68.403  1.00  0.00    -0.159 N  
HETATM    9  C   UNL     1      -9.551   7.271  67.631  1.00  0.00    -0.135 C  
HETATM   10  O   UNL     1      -8.359  10.222  66.753  1.00  0.00    -0.122 OA 
HETATM   11  C   UNL     1      -9.225  10.368  67.578  1.00  0.00    -0.145 C  
HETATM   12  O   UNL     1     -10.234   6.127  67.398  1.00  0.00    -0.143 OA 
ENDROOT
BRANCH   4  13
HETATM   13  C   UNL     1     -11.342   6.533  70.059  1.00  0.00    -0.472 C  
HETATM   14  C   UNL     1     -10.686   5.656  70.832  1.00  0.00    -0.313 C  
BRANCH  14  15
HETATM   15  C   UNL     1      -9.439   5.841  71.494  1.00  0.00    -0.150 A  
HETATM   16  C   UNL     1      -9.185   6.515  72.689  1.00  0.00    -0.137 A  
HETATM   17  N   UNL     1      -7.849   6.763  72.964  1.00  0.00    -0.097 NA 
HETATM   18  S   UNL     1      -7.922   5.363  70.814  1.00  0.00    -0.101 SA 
HETATM   19  C   UNL     1     -10.182   7.023  73.674  1.00  0.00    -0.396 C  
HETATM   20  C   UNL     1      -7.098   6.218  72.039  1.00  0.00    -0.082 A  
ENDBRANCH  14  15
ENDBRANCH   4  13
BRANCH   5  21
HETATM   21  N   UNL     1     -11.181  12.217  67.682  1.00  0.00    -0.266 N  
HETATM   22  C   UNL     1     -11.656  13.516  67.625  1.00  0.00    -0.339 C  
HETATM   23  O   UNL     1     -12.617  13.746  66.888  1.00  0.00    -0.252 OA 
HETATM   24  H   UNL     1     -11.812  11.536  67.258  1.00  0.00     0.000 HD 
BRANCH  22  25
HETATM   25  C   UNL     1     -11.194  14.640  68.532  1.00  0.00    -0.271 C  
BRANCH  25  26
HETATM   26  C   UNL     1     -11.736  14.779  69.908  1.00  0.00    -0.306 A  
HETATM   27  H2  UNL     1     -13.882  13.795  73.474  1.00  0.00     0.000 HD 
HETATM   28  H1  UNL     1     -14.402  12.833  72.089  1.00  0.00     0.000 HD 
HETATM   29  C   UNL     1     -11.232  15.685  70.833  1.00  0.00    -0.369 A  
HETATM   30  N   UNL     1     -12.783  14.007  70.418  1.00  0.00    -0.300 NA 
HETATM   31  S   UNL     1     -11.967  15.476  72.360  1.00  0.00    -0.496 SA 
HETATM   32  N   UNL     1     -13.815  13.568  72.483  1.00  0.00    -0.744 NA 
HETATM   33  C   UNL     1     -12.954  14.239  71.698  1.00  0.00    -0.346 A  
ENDBRANCH  25  26
BRANCH  25  34
HETATM   34  N   UNL     1     -10.228  15.479  68.273  1.00  0.00    -0.221 NA 
HETATM   35  H   UNL     1      -9.302  15.301  68.661  1.00  0.00     0.000 HD 
BRANCH  34  36
HETATM   36  O   UNL     1     -10.425  16.613  67.478  1.00  0.00    -0.305 OA 
HETATM   37  C   UNL     1     -10.242  16.549  66.078  1.00  0.00    -0.356 C  
ENDBRANCH  34  36
ENDBRANCH  25  34
ENDBRANCH  22  25
ENDBRANCH   5  21
TORSDOF 7
ENDMDL
MODEL       32
REMARK 921   NORMALIZED FREE ENERGY PREDICTED BY IDOCK:   -6.07 KCAL/MOL
REMARK 922        TOTAL FREE ENERGY PREDICTED BY IDOCK:  -10.07 KCAL/MOL
REMARK 923 INTER-LIGAND FREE ENERGY PREDICTED BY IDOCK:   -8.31 KCAL/MOL
REMARK 924 INTRA-LIGAND FREE ENERGY PREDICTED BY IDOCK:   -1.76 KCAL/MOL
REMARK 927      BINDING AFFINITY PREDICTED BY RF-SCORE:    0.00 PKD
ROOT
HETATM    1  C   UNL     1      -8.706  10.450  68.509  1.00  0.00    -0.135 C  
HETATM    2  S   UNL     1      -7.172  10.924  69.296  1.00  0.00    -0.124 SA 
HETATM    3  C   UNL     1      -7.114   9.496  70.365  1.00  0.00    -0.120 C  
HETATM    4  C   UNL     1      -8.430   9.047  70.986  1.00  0.00    -0.254 C  
HETATM    5  CA  UNL     1      -9.582  11.632  67.999  1.00  0.00    -0.184 C  
HETATM    6  CA  UNL     1      -9.671   9.406  70.562  1.00  0.00    -0.271 C  
HETATM    7  OXT UNL     1     -12.028   8.844  70.590  1.00  0.00    -0.210 OA 
HETATM    8  N   UNL     1      -9.776  10.241  69.478  1.00  0.00    -0.228 N  
HETATM    9  C   UNL     1     -10.979   8.976  71.207  1.00  0.00    -0.313 C  
HETATM   10  O   UNL     1     -11.908  10.689  68.541  1.00  0.00    -0.406 OA 
HETATM   11  C   UNL     1     -10.720  10.811  68.702  1.00  0.00    -0.208 C  
HETATM   12  O   UNL     1     -10.940   8.742  72.537  1.00  0.00    -0.258 OA 
ENDROOT
BRANCH   4  13
HETATM   13  C   UNL     1      -8.118   8.170  72.108  1.00  0.00    -0.182 C  
HETATM   14  C   UNL     1      -8.173   6.833  72.191  1.00  0.00    -0.104 C  
BRANCH  14  15
HETATM   15  C   UNL     1      -8.545   5.912  71.171  1.00  0.00    -0.129 A  
HETATM   16  C   UNL     1      -9.722   5.171  71.062  1.00  0.00    -0.183 A  
HETATM   17  N   UNL     1      -9.708   4.162  70.111  1.00  0.00    -0.206 NA 
HETATM   18  S   UNL     1      -7.478   5.416  69.903  1.00  0.00    -0.070 SA 
HETATM   19  C   UNL     1     -10.966   5.319  71.869  1.00  0.00    -0.168 C  
HETATM   20  C   UNL     1      -8.573   4.188  69.455  1.00  0.00    -0.072 A  
ENDBRANCH  14  15
ENDBRANCH   4  13
BRANCH   5  21
HETATM   21  N   UNL     1      -9.182  13.007  68.440  1.00  0.00    -0.320 N  
HETATM   22  C   UNL     1      -9.901  14.147  68.759  1.00  0.00    -0.167 C  
HETATM   23  O   UNL     1      -9.303  15.066  69.322  1.00  0.00    -0.207 OA 
HETATM   24  H   UNL     1      -8.173  13.128  68.523  1.00  0.00     0.000 HD 
BRANCH  22  25
HETATM   25  C   UNL     1     -11.324  14.418  68.312  1.00  0.00    -0.287 C  
BRANCH  25  26
HETATM   26  C   UNL     1     -11.667  14.490  66.869  1.00  0.00    -0.382 A  
HETATM   27  H2  UNL     1     -11.754  15.953  62.851  1.00  0.00     0.000 HD 
HETATM   28  H1  UNL     1     -11.221  17.180  64.003  1.00  0.00     0.000 HD 
HETATM   29  C   UNL     1     -12.175  13.410  66.156  1.00  0.00    -0.415 A  
HETATM   30  N   UNL     1     -11.496  15.630  66.079  1.00  0.00     0.057 NA 
HETATM   31  S   UNL     1     -12.306  13.778  64.495  1.00  0.00    -0.322 SA 
HETATM   32  N   UNL     1     -11.557  16.236  63.810  1.00  0.00    -0.894 NA 
HETATM   33  C   UNL     1     -11.741  15.365  64.817  1.00  0.00    -0.232 A  
ENDBRANCH  25  26
BRANCH  25  34
HETATM   34  N   UNL     1     -12.368  14.479  69.093  1.00  0.00    -0.571 NA 
HETATM   35  H   UNL     1     -13.000  13.680  69.136  1.00  0.00     0.000 HD 
BRANCH  34  36
HETATM   36  O   UNL     1     -12.647  15.607  69.871  1.00  0.00    -0.286 OA 
HETATM   37  C   UNL     1     -12.681  15.516  71.281  1.00  0.00    -0.462 C  
ENDBRANCH  34  36
ENDBRANCH  25  34
ENDBRANCH  22  25
ENDBRANCH   5  21
TORSDOF 7
ENDMDL
MODEL       33
REMARK 921   NORMALIZED FREE ENERGY PREDICTED BY IDOCK:   -6.07 KCAL/MOL
REMARK 922        TOTAL FREE ENERGY PREDICTED BY IDOCK:  -10.07 KCAL/MOL
REMARK 923 INTER-LIGAND FREE ENERGY PREDICTED BY IDOCK:   -8.40 KCAL/MOL
REMARK 924 INTRA-LIGAND FREE ENERGY PREDICTED BY IDOCK:   -1.67 KCAL/MOL
REMARK 927      BINDING AFFINITY PREDICTED BY RF-SCORE:    0.00 PKD
ROOT
HETATM    1  C   UNL     1     -11.053   9.744  68.876  1.00  0.00    -0.099 C  
HETATM    2  S   UNL     1     -11.541  11.152  69.864  1.00  0.00    -0.349 SA 
HETATM    3  C   UNL     1     -11.128  12.353  68.611  1.00  0.00    -0.257 C  
HETATM    4  C   UNL     1      -9.849  12.113  67.820  1.00  0.00    -0.199 C  
HETATM    5  CA  UNL     1     -10.548   8.511  69.683  1.00  0.00    -0.220 C  
HETATM    6  CA  UNL     1      -9.176  10.935  67.740  1.00  0.00    -0.153 C  
HETATM    7  OXT UNL     1      -7.568   9.640  66.471  1.00  0.00    -0.096 OA 
HETATM    8  N   UNL     1      -9.674   9.849  68.416  1.00  0.00    -0.147 N  
HETATM    9  C   UNL     1      -7.883  10.711  66.972  1.00  0.00    -0.117 C  
HETATM   10  O   UNL     1      -8.688   7.715  68.103  1.00  0.00    -0.123 OA 
HETATM   11  C   UNL     1      -9.410   8.540  68.602  1.00  0.00    -0.142 C  
HETATM   12  O   UNL     1      -7.062  11.779  66.862  1.00  0.00    -0.140 OA 
ENDROOT
BRANCH   4  13
HETATM   13  C   UNL     1      -9.482  13.366  67.172  1.00  0.00    -0.244 C  
HETATM   14  C   UNL     1      -9.842  13.847  65.974  1.00  0.00    -0.306 C  
BRANCH  14  15
HETATM   15  C   UNL     1     -10.708  13.245  65.017  1.00  0.00    -0.333 A  
HETATM   16  C   UNL     1     -12.097  13.348  64.922  1.00  0.00    -0.392 A  
HETATM   17  N   UNL     1     -12.705  12.451  64.057  1.00  0.00    -0.723 NA 
HETATM   18  S   UNL     1     -10.172  12.100  63.837  1.00  0.00    -0.397 SA 
HETATM   19  C   UNL     1     -12.991  14.280  65.665  1.00  0.00    -0.210 C  
HETATM   20  C   UNL     1     -11.792  11.736  63.447  1.00  0.00    -0.333 A  
ENDBRANCH  14  15
ENDBRANCH   4  13
BRANCH   5  21
HETATM   21  N   UNL     1     -10.286   8.722  71.143  1.00  0.00    -0.224 N  
HETATM   22  C   UNL     1     -10.438   7.918  72.259  1.00  0.00    -0.262 C  
HETATM   23  O   UNL     1      -9.910   8.287  73.310  1.00  0.00    -0.220 OA 
HETATM   24  H   UNL     1      -9.919   9.650  71.358  1.00  0.00     0.000 HD 
BRANCH  22  25
HETATM   25  C   UNL     1     -11.349   6.708  72.329  1.00  0.00    -0.275 C  
BRANCH  25  26
HETATM   26  C   UNL     1     -10.798   5.357  72.606  1.00  0.00    -0.256 A  
HETATM   27  H2  UNL     1     -10.725   1.203  73.622  1.00  0.00     0.000 HD 
HETATM   28  H1  UNL     1     -12.233   1.986  74.100  1.00  0.00     0.000 HD 
HETATM   29  C   UNL     1      -9.522   4.965  72.217  1.00  0.00    -0.139 A  
HETATM   30  N   UNL     1     -11.503   4.342  73.259  1.00  0.00    -0.248 NA 
HETATM   31  S   UNL     1      -9.263   3.309  72.543  1.00  0.00    -0.101 SA 
HETATM   32  N   UNL     1     -11.301   2.041  73.689  1.00  0.00    -0.208 NA 
HETATM   33  C   UNL     1     -10.830   3.216  73.234  1.00  0.00    -0.180 A  
ENDBRANCH  25  26
BRANCH  25  34
HETATM   34  N   UNL     1     -12.653   6.734  72.293  1.00  0.00    -0.541 NA 
HETATM   35  H   UNL     1     -13.177   6.227  73.005  1.00  0.00     0.000 HD 
BRANCH  34  36
HETATM   36  O   UNL     1     -13.353   7.437  71.306  1.00  0.00    -0.350 OA 
HETATM   37  C   UNL     1     -14.201   8.513  71.656  1.00  0.00    -0.421 C  
ENDBRANCH  34  36
ENDBRANCH  25  34
ENDBRANCH  22  25
ENDBRANCH   5  21
TORSDOF 7
ENDMDL
MODEL       34
REMARK 921   NORMALIZED FREE ENERGY PREDICTED BY IDOCK:   -5.99 KCAL/MOL
REMARK 922        TOTAL FREE ENERGY PREDICTED BY IDOCK:   -9.95 KCAL/MOL
REMARK 923 INTER-LIGAND FREE ENERGY PREDICTED BY IDOCK:   -8.39 KCAL/MOL
REMARK 924 INTRA-LIGAND FREE ENERGY PREDICTED BY IDOCK:   -1.57 KCAL/MOL
REMARK 927      BINDING AFFINITY PREDICTED BY RF-SCORE:    0.00 PKD
ROOT
HETATM    1  C   UNL     1      -9.895  10.624  68.846  1.00  0.00    -0.201 C  
HETATM    2  S   UNL     1     -11.353  10.761  69.871  1.00  0.00    -0.321 SA 
HETATM    3  C   UNL     1     -11.353   9.042  70.347  1.00  0.00    -0.210 C  
HETATM    4  C   UNL     1     -11.016   8.026  69.263  1.00  0.00     0.023 C  
HETATM    5  CA  UNL     1      -9.828  11.622  67.652  1.00  0.00    -0.186 C  
HETATM    6  CA  UNL     1     -10.404   8.302  68.081  1.00  0.00    -0.202 C  
HETATM    7  OXT UNL     1      -9.150   7.382  66.223  1.00  0.00    -0.166 OA 
HETATM    8  N   UNL     1     -10.043   9.600  67.818  1.00  0.00    -0.175 N  
HETATM    9  C   UNL     1     -10.097   7.287  66.992  1.00  0.00    -0.246 C  
HETATM   10  O   UNL     1      -8.746  10.093  65.894  1.00  0.00    -0.138 OA 
HETATM   11  C   UNL     1      -9.415  10.324  66.870  1.00  0.00    -0.169 C  
HETATM   12  O   UNL     1     -10.945   6.239  66.897  1.00  0.00    -0.358 OA 
ENDROOT
BRANCH   4  13
HETATM   13  C   UNL     1     -11.466   6.718  69.721  1.00  0.00    -0.319 C  
HETATM   14  C   UNL     1     -10.887   5.867  70.580  1.00  0.00    -0.363 C  
BRANCH  14  15
HETATM   15  C   UNL     1      -9.666   6.041  71.290  1.00  0.00    -0.172 A  
HETATM   16  C   UNL     1      -9.471   6.612  72.549  1.00  0.00    -0.147 A  
HETATM   17  N   UNL     1      -8.154   6.889  72.882  1.00  0.00    -0.107 NA 
HETATM   18  S   UNL     1      -8.113   5.693  70.612  1.00  0.00    -0.118 SA 
HETATM   19  C   UNL     1     -10.512   6.984  73.548  1.00  0.00    -0.413 C  
HETATM   20  C   UNL     1      -7.358   6.465  71.932  1.00  0.00    -0.092 A  
ENDBRANCH  14  15
ENDBRANCH   4  13
BRANCH   5  21
HETATM   21  N   UNL     1     -11.076  12.390  67.345  1.00  0.00    -0.257 N  
HETATM   22  C   UNL     1     -11.432  13.720  67.493  1.00  0.00    -0.330 C  
HETATM   23  O   UNL     1     -12.455  14.109  66.927  1.00  0.00    -0.359 OA 
HETATM   24  H   UNL     1     -11.818  11.815  66.944  1.00  0.00     0.000 HD 
BRANCH  22  25
HETATM   25  C   UNL     1     -10.752  14.691  68.439  1.00  0.00    -0.241 C  
BRANCH  25  26
HETATM   26  C   UNL     1     -10.224  15.989  67.946  1.00  0.00    -0.258 A  
HETATM   27  H2  UNL     1      -7.957  18.744  65.587  1.00  0.00     0.000 HD 
HETATM   28  H1  UNL     1      -7.327  17.097  65.490  1.00  0.00     0.000 HD 
HETATM   29  C   UNL     1     -10.833  17.208  68.221  1.00  0.00    -0.314 A  
HETATM   30  N   UNL     1      -9.087  16.119  67.144  1.00  0.00    -0.199 NA 
HETATM   31  S   UNL     1     -10.071  18.479  67.375  1.00  0.00    -0.373 SA 
HETATM   32  N   UNL     1      -7.999  17.765  65.869  1.00  0.00    -0.546 NA 
HETATM   33  C   UNL     1      -8.941  17.358  66.737  1.00  0.00    -0.254 A  
ENDBRANCH  25  26
BRANCH  25  34
HETATM   34  N   UNL     1     -10.680  14.565  69.735  1.00  0.00    -0.443 NA 
HETATM   35  H   UNL     1      -9.771  14.651  70.190  1.00  0.00     0.000 HD 
BRANCH  34  36
HETATM   36  O   UNL     1     -11.811  14.317  70.520  1.00  0.00    -0.295 OA 
HETATM   37  C   UNL     1     -12.789  15.320  70.708  1.00  0.00    -0.437 C  
ENDBRANCH  34  36
ENDBRANCH  25  34
ENDBRANCH  22  25
ENDBRANCH   5  21
TORSDOF 7
ENDMDL
MODEL       35
REMARK 921   NORMALIZED FREE ENERGY PREDICTED BY IDOCK:   -5.96 KCAL/MOL
REMARK 922        TOTAL FREE ENERGY PREDICTED BY IDOCK:   -9.91 KCAL/MOL
REMARK 923 INTER-LIGAND FREE ENERGY PREDICTED BY IDOCK:   -8.51 KCAL/MOL
REMARK 924 INTRA-LIGAND FREE ENERGY PREDICTED BY IDOCK:   -1.40 KCAL/MOL
REMARK 927      BINDING AFFINITY PREDICTED BY RF-SCORE:    0.00 PKD
ROOT
HETATM    1  C   UNL     1      -9.294  10.707  66.595  1.00  0.00    -0.165 C  
HETATM    2  S   UNL     1      -7.542  10.559  66.920  1.00  0.00    -0.115 SA 
HETATM    3  C   UNL     1      -7.727   9.212  68.076  1.00  0.00    -0.092 C  
HETATM    4  C   UNL     1      -8.895   9.294  69.050  1.00  0.00    -0.136 C  
HETATM    5  CA  UNL     1      -9.778  12.135  66.206  1.00  0.00    -0.238 C  
HETATM    6  CA  UNL     1      -9.982  10.100  68.917  1.00  0.00    -0.199 C  
HETATM    7  OXT UNL     1     -12.279  10.475  69.592  1.00  0.00    -0.244 OA 
HETATM    8  N   UNL     1     -10.062  10.916  67.817  1.00  0.00    -0.174 N  
HETATM    9  C   UNL     1     -11.130  10.197  69.909  1.00  0.00    -0.293 C  
HETATM   10  O   UNL     1     -12.048  12.145  67.406  1.00  0.00    -0.553 OA 
HETATM   11  C   UNL     1     -10.903  11.806  67.251  1.00  0.00    -0.253 C  
HETATM   12  O   UNL     1     -10.822   9.961  71.204  1.00  0.00    -0.309 OA 
ENDROOT
BRANCH   4  13
HETATM   13  C   UNL     1      -8.636   8.361  70.139  1.00  0.00    -0.131 C  
HETATM   14  C   UNL     1      -8.769   7.027  70.172  1.00  0.00    -0.141 C  
BRANCH  14  15
HETATM   15  C   UNL     1      -9.191   6.167  69.119  1.00  0.00    -0.127 A  
HETATM   16  C   UNL     1      -8.414   5.315  68.333  1.00  0.00    -0.096 A  
HETATM   17  N   UNL     1      -9.043   4.793  67.214  1.00  0.00    -0.116 NA 
HETATM   18  S   UNL     1     -10.806   6.143  68.501  1.00  0.00    -0.307 SA 
HETATM   19  C   UNL     1      -6.987   4.937  68.542  1.00  0.00    -0.056 C  
HETATM   20  C   UNL     1     -10.296   5.175  67.192  1.00  0.00    -0.192 A  
ENDBRANCH  14  15
ENDBRANCH   4  13
BRANCH   5  21
HETATM   21  N   UNL     1      -8.799  13.253  66.395  1.00  0.00    -0.444 N  
HETATM   22  C   UNL     1      -8.941  14.601  66.678  1.00  0.00    -0.238 C  
HETATM   23  O   UNL     1      -7.934  15.229  67.011  1.00  0.00    -0.204 OA 
HETATM   24  H   UNL     1      -7.826  12.961  66.293  1.00  0.00     0.000 HD 
BRANCH  22  25
HETATM   25  C   UNL     1     -10.209  15.399  66.442  1.00  0.00    -0.286 C  
BRANCH  25  26
HETATM   26  C   UNL     1     -10.248  16.860  66.711  1.00  0.00    -0.306 A  
HETATM   27  H2  UNL     1     -10.587  21.055  65.950  1.00  0.00     0.000 HD 
HETATM   28  H1  UNL     1     -10.245  20.130  64.485  1.00  0.00     0.000 HD 
HETATM   29  C   UNL     1     -10.439  17.391  67.981  1.00  0.00    -0.383 A  
HETATM   30  N   UNL     1     -10.122  17.841  65.725  1.00  0.00    -0.581 NA 
HETATM   31  S   UNL     1     -10.595  19.089  67.918  1.00  0.00    -0.301 SA 
HETATM   32  N   UNL     1     -10.395  20.163  65.494  1.00  0.00    -0.275 NA 
HETATM   33  C   UNL     1     -10.342  19.035  66.223  1.00  0.00    -0.459 A  
ENDBRANCH  25  26
BRANCH  25  34
HETATM   34  N   UNL     1     -11.297  14.950  65.881  1.00  0.00    -0.332 NA 
HETATM   35  H   UNL     1     -12.150  14.886  66.437  1.00  0.00     0.000 HD 
BRANCH  34  36
HETATM   36  O   UNL     1     -11.331  14.552  64.540  1.00  0.00    -0.368 OA 
HETATM   37  C   UNL     1     -12.258  13.579  64.103  1.00  0.00    -0.394 C  
ENDBRANCH  34  36
ENDBRANCH  25  34
ENDBRANCH  22  25
ENDBRANCH   5  21
TORSDOF 7
ENDMDL
MODEL       36
REMARK 921   NORMALIZED FREE ENERGY PREDICTED BY IDOCK:   -5.96 KCAL/MOL
REMARK 922        TOTAL FREE ENERGY PREDICTED BY IDOCK:   -9.91 KCAL/MOL
REMARK 923 INTER-LIGAND FREE ENERGY PREDICTED BY IDOCK:   -8.49 KCAL/MOL
REMARK 924 INTRA-LIGAND FREE ENERGY PREDICTED BY IDOCK:   -1.42 KCAL/MOL
REMARK 927      BINDING AFFINITY PREDICTED BY RF-SCORE:    0.00 PKD
ROOT
HETATM    1  C   UNL     1     -10.407  13.165  66.722  1.00  0.00    -0.252 C  
HETATM    2  S   UNL     1     -11.358  14.677  66.776  1.00  0.00    -0.355 SA 
HETATM    3  C   UNL     1     -10.081  15.674  66.028  1.00  0.00    -0.333 C  
HETATM    4  C   UNL     1      -8.649  15.407  66.472  1.00  0.00    -0.294 C  
HETATM    5  CA  UNL     1     -10.734  12.135  67.844  1.00  0.00    -0.207 C  
HETATM    6  CA  UNL     1      -8.214  14.292  67.116  1.00  0.00    -0.160 C  
HETATM    7  OXT UNL     1      -6.284  12.934  67.667  1.00  0.00    -0.131 OA 
HETATM    8  N   UNL     1      -9.122  13.302  67.397  1.00  0.00    -0.205 N  
HETATM    9  C   UNL     1      -6.788  14.046  67.582  1.00  0.00    -0.179 C  
HETATM   10  O   UNL     1      -8.370  11.234  68.282  1.00  0.00    -0.135 OA 
HETATM   11  C   UNL     1      -9.169  12.070  67.944  1.00  0.00    -0.190 C  
HETATM   12  O   UNL     1      -6.071  15.142  67.915  1.00  0.00    -0.135 OA 
ENDROOT
BRANCH   4  13
HETATM   13  C   UNL     1      -7.840  16.555  66.084  1.00  0.00    -0.134 C  
HETATM   14  C   UNL     1      -7.946  17.840  66.453  1.00  0.00    -0.306 C  
BRANCH  14  15
HETATM   15  C   UNL     1      -8.890  18.414  67.351  1.00  0.00    -0.257 A  
HETATM   16  C   UNL     1      -9.982  19.229  67.052  1.00  0.00    -0.357 A  
HETATM   17  N   UNL     1     -10.575  19.856  68.138  1.00  0.00    -0.326 NA 
HETATM   18  S   UNL     1      -8.748  18.313  69.072  1.00  0.00     0.091 SA 
HETATM   19  C   UNL     1     -10.553  19.527  65.708  1.00  0.00    -0.522 C  
HETATM   20  C   UNL     1      -9.998  19.461  69.246  1.00  0.00    -0.247 A  
ENDBRANCH  14  15
ENDBRANCH   4  13
BRANCH   5  21
HETATM   21  N   UNL     1     -11.600  12.615  68.968  1.00  0.00    -0.297 N  
HETATM   22  C   UNL     1     -12.088  12.010  70.114  1.00  0.00    -0.298 C  
HETATM   23  O   UNL     1     -12.585  12.734  70.979  1.00  0.00    -0.363 OA 
HETATM   24  H   UNL     1     -11.889  13.589  68.869  1.00  0.00     0.000 HD 
BRANCH  22  25
HETATM   25  C   UNL     1     -12.215  10.512  70.307  1.00  0.00    -0.311 C  
BRANCH  25  26
HETATM   26  C   UNL     1     -11.007   9.658  70.444  1.00  0.00    -0.299 A  
HETATM   27  H2  UNL     1      -7.741   7.627  72.316  1.00  0.00     0.000 HD 
HETATM   28  H1  UNL     1      -8.400   8.917  73.326  1.00  0.00     0.000 HD 
HETATM   29  C   UNL     1     -10.603   8.756  69.468  1.00  0.00    -0.219 A  
HETATM   30  N   UNL     1     -10.173   9.657  71.565  1.00  0.00     0.015 NA 
HETATM   31  S   UNL     1      -9.278   7.823  70.006  1.00  0.00    -0.153 SA 
HETATM   32  N   UNL     1      -8.402   8.392  72.451  1.00  0.00    -0.257 NA 
HETATM   33  C   UNL     1      -9.274   8.705  71.477  1.00  0.00    -0.246 A  
ENDBRANCH  25  26
BRANCH  25  34
HETATM   34  N   UNL     1     -13.329   9.861  70.501  1.00  0.00    -0.595 NA 
HETATM   35  H   UNL     1     -14.040   9.871  69.770  1.00  0.00     0.000 HD 
BRANCH  34  36
HETATM   36  O   UNL     1     -13.578   9.152  71.680  1.00  0.00    -0.373 OA 
HETATM   37  C   UNL     1     -14.218   7.892  71.639  1.00  0.00    -0.459 C  
ENDBRANCH  34  36
ENDBRANCH  25  34
ENDBRANCH  22  25
ENDBRANCH   5  21
TORSDOF 7
ENDMDL
MODEL       37
REMARK 921   NORMALIZED FREE ENERGY PREDICTED BY IDOCK:   -5.93 KCAL/MOL
REMARK 922        TOTAL FREE ENERGY PREDICTED BY IDOCK:   -9.87 KCAL/MOL
REMARK 923 INTER-LIGAND FREE ENERGY PREDICTED BY IDOCK:   -8.49 KCAL/MOL
REMARK 924 INTRA-LIGAND FREE ENERGY PREDICTED BY IDOCK:   -1.39 KCAL/MOL
REMARK 927      BINDING AFFINITY PREDICTED BY RF-SCORE:    0.00 PKD
ROOT
HETATM    1  C   UNL     1      -8.470  10.673  68.045  1.00  0.00    -0.119 C  
HETATM    2  S   UNL     1      -7.102  10.481  69.181  1.00  0.00    -0.102 SA 
HETATM    3  C   UNL     1      -7.951   9.310  70.226  1.00  0.00    -0.146 C  
HETATM    4  C   UNL     1      -9.423   9.579  70.510  1.00  0.00    -0.306 C  
HETATM    5  CA  UNL     1      -8.558  12.060  67.342  1.00  0.00    -0.171 C  
HETATM    6  CA  UNL     1     -10.227  10.414  69.800  1.00  0.00    -0.184 C  
HETATM    7  OXT UNL     1     -12.517  10.990  69.255  1.00  0.00    -0.400 OA 
HETATM    8  N   UNL     1      -9.693  11.081  68.725  1.00  0.00    -0.194 N  
HETATM    9  C   UNL     1     -11.688  10.699  70.107  1.00  0.00    -0.332 C  
HETATM   10  O   UNL     1     -11.110  12.343  67.302  1.00  0.00    -0.254 OA 
HETATM   11  C   UNL     1     -10.069  11.929  67.746  1.00  0.00    -0.191 C  
HETATM   12  O   UNL     1     -12.051  10.620  71.407  1.00  0.00    -0.328 OA 
ENDROOT
BRANCH   4  13
HETATM   13  C   UNL     1      -9.807   8.786  71.670  1.00  0.00    -0.378 C  
HETATM   14  C   UNL     1      -9.994   7.463  71.778  1.00  0.00    -0.192 C  
BRANCH  14  15
HETATM   15  C   UNL     1      -9.845   6.476  70.763  1.00  0.00    -0.184 A  
HETATM   16  C   UNL     1      -8.737   5.673  70.493  1.00  0.00    -0.137 A  
HETATM   17  N   UNL     1      -8.773   4.988  69.288  1.00  0.00    -0.091 NA 
HETATM   18  S   UNL     1     -11.025   6.196  69.529  1.00  0.00    -0.413 SA 
HETATM   19  C   UNL     1      -7.516   5.498  71.331  1.00  0.00    -0.098 C  
HETATM   20  C   UNL     1      -9.920   5.203  68.691  1.00  0.00    -0.158 A  
ENDBRANCH  14  15
ENDBRANCH   4  13
BRANCH   5  21
HETATM   21  N   UNL     1      -7.668  13.143  67.872  1.00  0.00    -0.131 N  
HETATM   22  C   UNL     1      -7.912  14.312  68.573  1.00  0.00    -0.145 C  
HETATM   23  O   UNL     1      -6.949  14.888  69.083  1.00  0.00    -0.117 OA 
HETATM   24  H   UNL     1      -6.679  12.985  67.677  1.00  0.00     0.000 HD 
BRANCH  22  25
HETATM   25  C   UNL     1      -9.247  15.028  68.611  1.00  0.00    -0.198 C  
BRANCH  25  26
HETATM   26  C   UNL     1      -9.610  16.018  67.564  1.00  0.00    -0.222 A  
HETATM   27  H2  UNL     1     -11.418  17.617  64.034  1.00  0.00     0.000 HD 
HETATM   28  H1  UNL     1     -11.389  15.852  64.034  1.00  0.00     0.000 HD 
HETATM   29  C   UNL     1      -9.463  17.389  67.735  1.00  0.00    -0.261 A  
HETATM   30  N   UNL     1     -10.152  15.679  66.321  1.00  0.00    -0.280 NA 
HETATM   31  S   UNL     1     -10.121  18.245  66.413  1.00  0.00    -0.397 SA 
HETATM   32  N   UNL     1     -11.158  16.739  64.481  1.00  0.00    -1.039 NA 
HETATM   33  C   UNL     1     -10.511  16.754  65.660  1.00  0.00    -0.269 A  
ENDBRANCH  25  26
BRANCH  25  34
HETATM   34  N   UNL     1     -10.224  14.773  69.438  1.00  0.00    -0.363 NA 
HETATM   35  H   UNL     1     -10.108  14.028  70.125  1.00  0.00     0.000 HD 
BRANCH  34  36
HETATM   36  O   UNL     1     -11.425  15.489  69.410  1.00  0.00    -0.290 OA 
HETATM   37  C   UNL     1     -12.214  15.613  70.576  1.00  0.00    -0.399 C  
ENDBRANCH  34  36
ENDBRANCH  25  34
ENDBRANCH  22  25
ENDBRANCH   5  21
TORSDOF 7
ENDMDL
MODEL       38
REMARK 921   NORMALIZED FREE ENERGY PREDICTED BY IDOCK:   -5.92 KCAL/MOL
REMARK 922        TOTAL FREE ENERGY PREDICTED BY IDOCK:   -9.86 KCAL/MOL
REMARK 923 INTER-LIGAND FREE ENERGY PREDICTED BY IDOCK:   -8.76 KCAL/MOL
REMARK 924 INTRA-LIGAND FREE ENERGY PREDICTED BY IDOCK:   -1.10 KCAL/MOL
REMARK 927      BINDING AFFINITY PREDICTED BY RF-SCORE:    0.00 PKD
ROOT
HETATM    1  C   UNL     1     -11.143  14.529  67.672  1.00  0.00    -0.304 C  
HETATM    2  S   UNL     1     -10.158  14.726  69.150  1.00  0.00    -0.158 SA 
HETATM    3  C   UNL     1     -10.498  16.470  69.314  1.00  0.00    -0.326 C  
HETATM    4  C   UNL     1     -10.509  17.294  68.033  1.00  0.00    -0.375 C  
HETATM    5  CA  UNL     1     -10.670  13.402  66.706  1.00  0.00    -0.277 C  
HETATM    6  CA  UNL     1     -10.613  16.797  66.772  1.00  0.00    -0.203 C  
HETATM    7  OXT UNL     1     -11.179  17.302  64.470  1.00  0.00    -1.083 OA 
HETATM    8  N   UNL     1     -10.727  15.438  66.611  1.00  0.00    -0.308 N  
HETATM    9  C   UNL     1     -10.594  17.624  65.496  1.00  0.00    -0.068 C  
HETATM   10  O   UNL     1     -11.172  14.542  64.461  1.00  0.00    -0.360 OA 
HETATM   11  C   UNL     1     -10.890  14.525  65.632  1.00  0.00    -0.326 C  
HETATM   12  O   UNL     1      -9.876  18.768  65.538  1.00  0.00    -0.295 OA 
ENDROOT
BRANCH   4  13
HETATM   13  C   UNL     1     -10.386  18.698  68.403  1.00  0.00    -0.356 C  
HETATM   14  C   UNL     1      -9.286  19.441  68.589  1.00  0.00    -0.432 C  
BRANCH  14  15
HETATM   15  C   UNL     1      -7.928  19.036  68.451  1.00  0.00    -0.340 A  
HETATM   16  C   UNL     1      -6.988  19.467  67.514  1.00  0.00    -0.213 A  
HETATM   17  N   UNL     1      -5.823  18.718  67.447  1.00  0.00    -0.159 NA 
HETATM   18  S   UNL     1      -7.217  17.760  69.378  1.00  0.00     0.152 SA 
HETATM   19  C   UNL     1      -7.110  20.610  66.565  1.00  0.00    -0.275 C  
HETATM   20  C   UNL     1      -5.843  17.785  68.367  1.00  0.00    -0.164 A  
ENDBRANCH  14  15
ENDBRANCH   4  13
BRANCH   5  21
HETATM   21  N   UNL     1      -9.329  12.795  66.983  1.00  0.00    -0.222 N  
HETATM   22  C   UNL     1      -8.870  11.490  67.030  1.00  0.00    -0.173 C  
HETATM   23  O   UNL     1      -7.651  11.309  67.050  1.00  0.00    -0.128 OA 
HETATM   24  H   UNL     1      -8.604  13.487  67.177  1.00  0.00     0.000 HD 
BRANCH  22  25
HETATM   25  C   UNL     1      -9.754  10.275  67.233  1.00  0.00    -0.166 C  
BRANCH  25  26
HETATM   26  C   UNL     1     -10.440  10.042  68.529  1.00  0.00    -0.202 A  
HETATM   27  H2  UNL     1     -11.050   8.690  72.541  1.00  0.00     0.000 HD 
HETATM   28  H1  UNL     1      -9.704   7.866  71.750  1.00  0.00     0.000 HD 
HETATM   29  C   UNL     1     -11.567  10.751  68.927  1.00  0.00    -0.291 A  
HETATM   30  N   UNL     1     -10.017   9.114  69.484  1.00  0.00    -0.182 NA 
HETATM   31  S   UNL     1     -12.006  10.356  70.529  1.00  0.00    -0.358 SA 
HETATM   32  N   UNL     1     -10.470   8.538  71.716  1.00  0.00    -0.272 NA 
HETATM   33  C   UNL     1     -10.718   9.225  70.587  1.00  0.00    -0.269 A  
ENDBRANCH  25  26
BRANCH  25  34
HETATM   34  N   UNL     1     -10.099   9.423  66.307  1.00  0.00    -0.277 NA 
HETATM   35  H   UNL     1     -10.673   8.620  66.564  1.00  0.00     0.000 HD 
BRANCH  34  36
HETATM   36  O   UNL     1      -9.707   9.577  64.973  1.00  0.00    -0.248 OA 
HETATM   37  C   UNL     1     -10.339  10.533  64.146  1.00  0.00    -0.098 C  
ENDBRANCH  34  36
ENDBRANCH  25  34
ENDBRANCH  22  25
ENDBRANCH   5  21
TORSDOF 7
ENDMDL
MODEL       39
REMARK 921   NORMALIZED FREE ENERGY PREDICTED BY IDOCK:   -5.92 KCAL/MOL
REMARK 922        TOTAL FREE ENERGY PREDICTED BY IDOCK:   -9.85 KCAL/MOL
REMARK 923 INTER-LIGAND FREE ENERGY PREDICTED BY IDOCK:   -8.07 KCAL/MOL
REMARK 924 INTRA-LIGAND FREE ENERGY PREDICTED BY IDOCK:   -1.78 KCAL/MOL
REMARK 927      BINDING AFFINITY PREDICTED BY RF-SCORE:    0.00 PKD
ROOT
HETATM    1  C   UNL     1      -9.021  10.412  68.764  1.00  0.00    -0.157 C  
HETATM    2  S   UNL     1      -8.449   9.924  67.142  1.00  0.00    -0.121 SA 
HETATM    3  C   UNL     1      -8.593  11.559  66.444  1.00  0.00    -0.159 C  
HETATM    4  C   UNL     1      -9.817  12.374  66.841  1.00  0.00    -0.219 C  
HETATM    5  CA  UNL     1      -9.747   9.297  69.573  1.00  0.00    -0.173 C  
HETATM    6  CA  UNL     1     -10.624  12.123  67.906  1.00  0.00    -0.207 C  
HETATM    7  OXT UNL     1     -12.264  13.054  69.427  1.00  0.00    -0.237 OA 
HETATM    8  N   UNL     1     -10.330  11.052  68.713  1.00  0.00    -0.192 N  
HETATM    9  C   UNL     1     -11.861  12.924  68.279  1.00  0.00    -0.330 C  
HETATM   10  O   UNL     1     -11.546  10.725  70.722  1.00  0.00    -0.322 OA 
HETATM   11  C   UNL     1     -10.772  10.456  69.839  1.00  0.00    -0.279 C  
HETATM   12  O   UNL     1     -12.528  13.503  67.256  1.00  0.00    -0.215 OA 
ENDROOT
BRANCH   4  13
HETATM   13  C   UNL     1      -9.963  13.460  65.880  1.00  0.00    -0.287 C  
HETATM   14  C   UNL     1      -9.628  14.753  65.993  1.00  0.00    -0.334 C  
BRANCH  14  15
HETATM   15  C   UNL     1      -9.015  15.401  67.102  1.00  0.00    -0.218 A  
HETATM   16  C   UNL     1      -9.593  16.283  68.016  1.00  0.00    -0.224 A  
HETATM   17  N   UNL     1      -8.704  16.962  68.835  1.00  0.00    -0.245 NA 
HETATM   18  S   UNL     1      -7.320  15.315  67.436  1.00  0.00    -0.200 SA 
HETATM   19  C   UNL     1     -11.040  16.598  68.183  1.00  0.00    -0.285 C  
HETATM   20  C   UNL     1      -7.483  16.546  68.606  1.00  0.00    -0.202 A  
ENDBRANCH  14  15
ENDBRANCH   4  13
BRANCH   5  21
HETATM   21  N   UNL     1     -10.110   8.050  68.828  1.00  0.00    -0.190 N  
HETATM   22  C   UNL     1     -11.016   7.031  69.068  1.00  0.00    -0.130 C  
HETATM   23  O   UNL     1     -11.261   6.249  68.146  1.00  0.00    -0.327 OA 
HETATM   24  H   UNL     1      -9.579   7.925  67.965  1.00  0.00     0.000 HD 
BRANCH  22  25
HETATM   25  C   UNL     1     -11.597   6.701  70.429  1.00  0.00    -0.398 C  
BRANCH  25  26
HETATM   26  C   UNL     1     -10.747   6.118  71.498  1.00  0.00    -0.252 A  
HETATM   27  H2  UNL     1      -7.273   5.377  73.881  1.00  0.00     0.000 HD 
HETATM   28  H1  UNL     1      -6.879   6.125  72.331  1.00  0.00     0.000 HD 
HETATM   29  C   UNL     1     -11.267   5.473  72.613  1.00  0.00    -0.295 A  
HETATM   30  N   UNL     1      -9.350   6.176  71.506  1.00  0.00    -0.149 NA 
HETATM   31  S   UNL     1     -10.033   5.068  73.720  1.00  0.00    -0.187 SA 
HETATM   32  N   UNL     1      -7.570   5.741  72.976  1.00  0.00    -0.099 NA 
HETATM   33  C   UNL     1      -8.870   5.714  72.637  1.00  0.00    -0.123 A  
ENDBRANCH  25  26
BRANCH  25  34
HETATM   34  N   UNL     1     -12.801   7.000  70.835  1.00  0.00    -0.545 NA 
HETATM   35  H   UNL     1     -13.566   6.358  70.627  1.00  0.00     0.000 HD 
BRANCH  34  36
HETATM   36  O   UNL     1     -13.073   8.173  71.546  1.00  0.00    -0.319 OA 
HETATM   37  C   UNL     1     -14.399   8.499  71.912  1.00  0.00    -0.448 C  
ENDBRANCH  34  36
ENDBRANCH  25  34
ENDBRANCH  22  25
ENDBRANCH   5  21
TORSDOF 7
ENDMDL
MODEL       40
REMARK 921   NORMALIZED FREE ENERGY PREDICTED BY IDOCK:   -5.91 KCAL/MOL
REMARK 922        TOTAL FREE ENERGY PREDICTED BY IDOCK:   -9.85 KCAL/MOL
REMARK 923 INTER-LIGAND FREE ENERGY PREDICTED BY IDOCK:   -8.92 KCAL/MOL
REMARK 924 INTRA-LIGAND FREE ENERGY PREDICTED BY IDOCK:   -0.93 KCAL/MOL
REMARK 927      BINDING AFFINITY PREDICTED BY RF-SCORE:    0.00 PKD
ROOT
HETATM    1  C   UNL     1     -10.482  15.143  68.079  1.00  0.00    -0.247 C  
HETATM    2  S   UNL     1      -9.344  14.170  67.102  1.00  0.00    -0.247 SA 
HETATM    3  C   UNL     1     -10.430  12.759  66.983  1.00  0.00    -0.237 C  
HETATM    4  C   UNL     1     -11.208  12.381  68.237  1.00  0.00    -0.309 C  
HETATM    5  CA  UNL     1      -9.817  16.169  69.043  1.00  0.00    -0.245 C  
HETATM    6  CA  UNL     1     -11.412  13.183  69.315  1.00  0.00    -0.291 C  
HETATM    7  OXT UNL     1     -12.784  13.581  71.273  1.00  0.00    -0.345 OA 
HETATM    8  N   UNL     1     -10.887  14.451  69.297  1.00  0.00    -0.255 N  
HETATM    9  C   UNL     1     -12.166  12.788  70.575  1.00  0.00    -0.307 C  
HETATM   10  O   UNL     1     -11.430  15.974  71.032  1.00  0.00    -0.386 OA 
HETATM   11  C   UNL     1     -10.854  15.566  70.055  1.00  0.00    -0.318 C  
HETATM   12  O   UNL     1     -12.122  11.479  70.910  1.00  0.00    -0.349 OA 
ENDROOT
BRANCH   4  13
HETATM   13  C   UNL     1     -11.689  11.015  68.069  1.00  0.00    -0.257 C  
HETATM   14  C   UNL     1     -11.018   9.857  68.148  1.00  0.00    -0.261 C  
BRANCH  14  15
HETATM   15  C   UNL     1      -9.637   9.668  68.437  1.00  0.00    -0.144 A  
HETATM   16  C   UNL     1      -8.585   9.466  67.543  1.00  0.00    -0.122 A  
HETATM   17  N   UNL     1      -7.389   9.052  68.109  1.00  0.00    -0.082 NA 
HETATM   18  S   UNL     1      -9.017   9.499  70.043  1.00  0.00    -0.236 SA 
HETATM   19  C   UNL     1      -8.615   9.610  66.059  1.00  0.00    -0.144 C  
HETATM   20  C   UNL     1      -7.506   9.018  69.414  1.00  0.00    -0.077 A  
ENDBRANCH  14  15
ENDBRANCH   4  13
BRANCH   5  21
HETATM   21  N   UNL     1      -8.336  16.053  69.235  1.00  0.00    -0.245 N  
HETATM   22  C   UNL     1      -7.272  16.886  68.932  1.00  0.00    -0.231 C  
HETATM   23  O   UNL     1      -6.175  16.622  69.428  1.00  0.00    -0.179 OA 
HETATM   24  H   UNL     1      -8.052  15.180  69.681  1.00  0.00     0.000 HD 
BRANCH  22  25
HETATM   25  C   UNL     1      -7.317  17.995  67.898  1.00  0.00    -0.224 C  
BRANCH  25  26
HETATM   26  C   UNL     1      -8.590  18.354  67.223  1.00  0.00    -0.258 A  
HETATM   27  H2  UNL     1     -12.052  17.943  64.746  1.00  0.00     0.000 HD 
HETATM   28  H1  UNL     1     -10.810  16.746  64.370  1.00  0.00     0.000 HD 
HETATM   29  C   UNL     1      -9.389  19.416  67.628  1.00  0.00    -0.309 A  
HETATM   30  N   UNL     1      -9.124  17.655  66.137  1.00  0.00    -0.496 NA 
HETATM   31  S   UNL     1     -10.852  19.454  66.749  1.00  0.00    -0.289 SA 
HETATM   32  N   UNL     1     -11.125  17.551  64.911  1.00  0.00    -0.773 NA 
HETATM   33  C   UNL     1     -10.323  18.099  65.840  1.00  0.00    -0.277 A  
ENDBRANCH  25  26
BRANCH  25  34
HETATM   34  N   UNL     1      -6.333  18.800  67.604  1.00  0.00    -0.203 NA 
HETATM   35  H   UNL     1      -5.569  18.455  67.024  1.00  0.00     0.000 HD 
BRANCH  34  36
HETATM   36  O   UNL     1      -6.296  20.122  68.059  1.00  0.00    -0.236 OA 
HETATM   37  C   UNL     1      -6.349  21.198  67.145  1.00  0.00    -0.343 C  
ENDBRANCH  34  36
ENDBRANCH  25  34
ENDBRANCH  22  25
ENDBRANCH   5  21
TORSDOF 7
ENDMDL
MODEL       41
REMARK 921   NORMALIZED FREE ENERGY PREDICTED BY IDOCK:   -5.91 KCAL/MOL
REMARK 922        TOTAL FREE ENERGY PREDICTED BY IDOCK:   -9.84 KCAL/MOL
REMARK 923 INTER-LIGAND FREE ENERGY PREDICTED BY IDOCK:   -8.21 KCAL/MOL
REMARK 924 INTRA-LIGAND FREE ENERGY PREDICTED BY IDOCK:   -1.63 KCAL/MOL
REMARK 927      BINDING AFFINITY PREDICTED BY RF-SCORE:    0.00 PKD
ROOT
HETATM    1  C   UNL     1     -11.434  12.744  67.048  1.00  0.00    -0.341 C  
HETATM    2  S   UNL     1     -11.805  12.265  65.366  1.00  0.00    -0.296 SA 
HETATM    3  C   UNL     1     -10.846  10.761  65.434  1.00  0.00     0.008 C  
HETATM    4  C   UNL     1      -9.507  10.829  66.156  1.00  0.00    -0.221 C  
HETATM    5  CA  UNL     1     -11.429  14.279  67.313  1.00  0.00    -0.352 C  
HETATM    6  CA  UNL     1      -9.122  11.804  67.021  1.00  0.00    -0.187 C  
HETATM    7  OXT UNL     1      -7.601  12.390  68.814  1.00  0.00    -0.106 OA 
HETATM    8  N   UNL     1      -9.999  12.824  67.291  1.00  0.00    -0.217 N  
HETATM    9  C   UNL     1      -7.771  11.879  67.715  1.00  0.00    -0.136 C  
HETATM   10  O   UNL     1      -9.482  14.404  68.983  1.00  0.00    -0.154 OA 
HETATM   11  C   UNL     1     -10.093  13.928  68.060  1.00  0.00    -0.244 C  
HETATM   12  O   UNL     1      -6.726  11.346  67.046  1.00  0.00    -0.108 OA 
ENDROOT
BRANCH   4  13
HETATM   13  C   UNL     1      -8.722   9.669  65.752  1.00  0.00    -0.168 C  
HETATM   14  C   UNL     1      -8.720   8.423  66.246  1.00  0.00    -0.164 C  
BRANCH  14  15
HETATM   15  C   UNL     1      -9.516   7.905  67.307  1.00  0.00    -0.149 A  
HETATM   16  C   UNL     1      -9.303   8.017  68.682  1.00  0.00    -0.146 A  
HETATM   17  N   UNL     1     -10.090   7.198  69.477  1.00  0.00    -0.175 NA 
HETATM   18  S   UNL     1     -10.874   6.865  67.055  1.00  0.00    -0.293 SA 
HETATM   19  C   UNL     1      -8.312   8.884  69.380  1.00  0.00    -0.112 C  
HETATM   20  C   UNL     1     -10.939   6.537  68.728  1.00  0.00    -0.305 A  
ENDBRANCH  14  15
ENDBRANCH   4  13
BRANCH   5  21
HETATM   21  N   UNL     1     -11.474  15.172  66.111  1.00  0.00    -0.229 N  
HETATM   22  C   UNL     1     -10.765  16.301  65.741  1.00  0.00    -0.255 C  
HETATM   23  O   UNL     1     -10.862  16.686  64.574  1.00  0.00    -0.847 OA 
HETATM   24  H   UNL     1     -12.173  14.888  65.423  1.00  0.00     0.000 HD 
BRANCH  22  25
HETATM   25  C   UNL     1     -10.015  17.200  66.706  1.00  0.00    -0.291 C  
BRANCH  25  26
HETATM   26  C   UNL     1      -8.593  17.555  66.465  1.00  0.00    -0.263 A  
HETATM   27  H2  UNL     1      -5.160  19.978  65.668  1.00  0.00     0.000 HD 
HETATM   28  H1  UNL     1      -6.670  20.791  65.249  1.00  0.00     0.000 HD 
HETATM   29  C   UNL     1      -7.537  16.712  66.789  1.00  0.00    -0.257 A  
HETATM   30  N   UNL     1      -8.172  18.768  65.915  1.00  0.00    -0.476 NA 
HETATM   31  S   UNL     1      -6.036  17.485  66.536  1.00  0.00    -0.219 SA 
HETATM   32  N   UNL     1      -6.177  19.968  65.595  1.00  0.00    -0.197 NA 
HETATM   33  C   UNL     1      -6.864  18.870  65.955  1.00  0.00    -0.269 A  
ENDBRANCH  25  26
BRANCH  25  34
HETATM   34  N   UNL     1     -10.540  17.833  67.719  1.00  0.00    -0.397 NA 
HETATM   35  H   UNL     1     -10.771  17.310  68.563  1.00  0.00     0.000 HD 
BRANCH  34  36
HETATM   36  O   UNL     1     -10.794  19.208  67.681  1.00  0.00    -0.448 OA 
HETATM   37  C   UNL     1     -10.365  20.047  68.735  1.00  0.00    -0.196 C  
ENDBRANCH  34  36
ENDBRANCH  25  34
ENDBRANCH  22  25
ENDBRANCH   5  21
TORSDOF 7
ENDMDL
MODEL       42
REMARK 921   NORMALIZED FREE ENERGY PREDICTED BY IDOCK:   -5.89 KCAL/MOL
REMARK 922        TOTAL FREE ENERGY PREDICTED BY IDOCK:   -9.81 KCAL/MOL
REMARK 923 INTER-LIGAND FREE ENERGY PREDICTED BY IDOCK:   -8.11 KCAL/MOL
REMARK 924 INTRA-LIGAND FREE ENERGY PREDICTED BY IDOCK:   -1.70 KCAL/MOL
REMARK 927      BINDING AFFINITY PREDICTED BY RF-SCORE:    0.00 PKD
ROOT
HETATM    1  C   UNL     1      -8.573  14.777  68.523  1.00  0.00    -0.168 C  
HETATM    2  S   UNL     1      -9.365  15.098  66.953  1.00  0.00    -0.249 SA 
HETATM    3  C   UNL     1     -10.403  13.648  67.019  1.00  0.00    -0.260 C  
HETATM    4  C   UNL     1      -9.766  12.368  67.547  1.00  0.00    -0.191 C  
HETATM    5  CA  UNL     1      -7.118  15.317  68.655  1.00  0.00    -0.116 C  
HETATM    6  CA  UNL     1      -8.616  12.294  68.266  1.00  0.00    -0.172 C  
HETATM    7  OXT UNL     1      -7.298  10.939  69.783  1.00  0.00    -0.119 OA 
HETATM    8  N   UNL     1      -7.953  13.458  68.564  1.00  0.00    -0.132 N  
HETATM    9  C   UNL     1      -7.972  11.010  68.764  1.00  0.00    -0.144 C  
HETATM   10  O   UNL     1      -6.090  13.409  70.031  1.00  0.00    -0.137 OA 
HETATM   11  C   UNL     1      -6.868  13.883  69.243  1.00  0.00    -0.094 C  
HETATM   12  O   UNL     1      -8.175   9.908  68.008  1.00  0.00    -0.111 OA 
ENDROOT
BRANCH   4  13
HETATM   13  C   UNL     1     -10.608  11.250  67.140  1.00  0.00    -0.274 C  
HETATM   14  C   UNL     1     -10.657  10.597  65.970  1.00  0.00    -0.195 C  
BRANCH  14  15
HETATM   15  C   UNL     1      -9.866  10.829  64.809  1.00  0.00    -0.300 A  
HETATM   16  C   UNL     1     -10.167  11.623  63.702  1.00  0.00    -0.412 A  
HETATM   17  N   UNL     1      -9.335  11.461  62.606  1.00  0.00    -0.317 NA 
HETATM   18  S   UNL     1      -8.382  10.001  64.490  1.00  0.00    -0.177 SA 
HETATM   19  C   UNL     1     -11.292  12.590  63.557  1.00  0.00    -0.556 C  
HETATM   20  C   UNL     1      -8.373  10.620  62.900  1.00  0.00    -0.151 A  
ENDBRANCH  14  15
ENDBRANCH   4  13
BRANCH   5  21
HETATM   21  N   UNL     1      -6.464  15.804  67.398  1.00  0.00    -0.173 N  
HETATM   22  C   UNL     1      -6.091  17.059  66.948  1.00  0.00    -0.200 C  
HETATM   23  O   UNL     1      -5.351  17.121  65.964  1.00  0.00    -0.333 OA 
HETATM   24  H   UNL     1      -6.249  15.056  66.738  1.00  0.00     0.000 HD 
BRANCH  22  25
HETATM   25  C   UNL     1      -6.663  18.363  67.468  1.00  0.00    -0.198 C  
BRANCH  25  26
HETATM   26  C   UNL     1      -8.099  18.693  67.278  1.00  0.00    -0.241 A  
HETATM   27  H2  UNL     1     -11.998  18.700  65.519  1.00  0.00     0.000 HD 
HETATM   28  H1  UNL     1     -10.755  18.136  64.399  1.00  0.00     0.000 HD 
HETATM   29  C   UNL     1      -8.893  19.230  68.285  1.00  0.00    -0.337 A  
HETATM   30  N   UNL     1      -8.801  18.478  66.089  1.00  0.00    -0.494 NA 
HETATM   31  S   UNL     1     -10.523  19.335  67.791  1.00  0.00    -0.422 SA 
HETATM   32  N   UNL     1     -11.019  18.501  65.314  1.00  0.00    -0.385 NA 
HETATM   33  C   UNL     1     -10.080  18.721  66.251  1.00  0.00    -0.409 A  
ENDBRANCH  25  26
BRANCH  25  34
HETATM   34  N   UNL     1      -6.031  19.228  68.213  1.00  0.00    -0.218 NA 
HETATM   35  H   UNL     1      -6.067  20.216  67.963  1.00  0.00     0.000 HD 
BRANCH  34  36
HETATM   36  O   UNL     1      -5.305  18.840  69.345  1.00  0.00    -0.197 OA 
HETATM   37  C   UNL     1      -5.312  19.640  70.510  1.00  0.00    -0.231 C  
ENDBRANCH  34  36
ENDBRANCH  25  34
ENDBRANCH  22  25
ENDBRANCH   5  21
TORSDOF 7
ENDMDL
MODEL       43
REMARK 921   NORMALIZED FREE ENERGY PREDICTED BY IDOCK:   -5.88 KCAL/MOL
REMARK 922        TOTAL FREE ENERGY PREDICTED BY IDOCK:   -9.81 KCAL/MOL
REMARK 923 INTER-LIGAND FREE ENERGY PREDICTED BY IDOCK:   -8.54 KCAL/MOL
REMARK 924 INTRA-LIGAND FREE ENERGY PREDICTED BY IDOCK:   -1.26 KCAL/MOL
REMARK 927      BINDING AFFINITY PREDICTED BY RF-SCORE:    0.00 PKD
ROOT
HETATM    1  C   UNL     1      -8.036  10.784  67.044  1.00  0.00    -0.124 C  
HETATM    2  S   UNL     1      -8.600  10.370  68.689  1.00  0.00    -0.141 SA 
HETATM    3  C   UNL     1      -7.764   8.795  68.733  1.00  0.00    -0.097 C  
HETATM    4  C   UNL     1      -7.789   7.964  67.456  1.00  0.00    -0.122 C  
HETATM    5  CA  UNL     1      -8.991  11.703  66.227  1.00  0.00    -0.193 C  
HETATM    6  CA  UNL     1      -8.089   8.429  66.215  1.00  0.00    -0.105 C  
HETATM    7  OXT UNL     1      -7.892   8.023  63.834  1.00  0.00    -0.132 OA 
HETATM    8  N   UNL     1      -8.393   9.760  66.069  1.00  0.00    -0.119 N  
HETATM    9  C   UNL     1      -8.140   7.587  64.950  1.00  0.00    -0.121 C  
HETATM   10  O   UNL     1      -8.667  10.672  63.897  1.00  0.00    -0.173 OA 
HETATM   11  C   UNL     1      -8.695  10.649  65.102  1.00  0.00    -0.186 C  
HETATM   12  O   UNL     1      -8.488   6.291  65.110  1.00  0.00    -0.145 OA 
ENDROOT
BRANCH   4  13
HETATM   13  C   UNL     1      -7.438   6.594  67.808  1.00  0.00    -0.098 C  
HETATM   14  C   UNL     1      -8.083   5.721  68.595  1.00  0.00    -0.101 C  
BRANCH  14  15
HETATM   15  C   UNL     1      -9.311   5.914  69.288  1.00  0.00    -0.128 A  
HETATM   16  C   UNL     1     -10.573   6.176  68.754  1.00  0.00    -0.273 A  
HETATM   17  N   UNL     1     -11.537   6.578  69.666  1.00  0.00    -0.353 NA 
HETATM   18  S   UNL     1      -9.425   6.013  71.011  1.00  0.00    -0.169 SA 
HETATM   19  C   UNL     1     -10.987   6.105  67.323  1.00  0.00    -0.418 C  
HETATM   20  C   UNL     1     -11.041   6.545  70.878  1.00  0.00    -0.292 A  
ENDBRANCH  14  15
ENDBRANCH   4  13
BRANCH   5  21
HETATM   21  N   UNL     1     -10.361  11.923  66.791  1.00  0.00    -0.206 N  
HETATM   22  C   UNL     1     -11.419  12.736  66.422  1.00  0.00    -0.357 C  
HETATM   23  O   UNL     1     -12.516  12.525  66.944  1.00  0.00    -0.280 OA 
HETATM   24  H   UNL     1     -10.554  11.358  67.619  1.00  0.00     0.000 HD 
BRANCH  22  25
HETATM   25  C   UNL     1     -11.291  13.973  65.554  1.00  0.00    -0.313 C  
BRANCH  25  26
HETATM   26  C   UNL     1     -10.931  15.285  66.150  1.00  0.00    -0.307 A  
HETATM   27  H2  UNL     1     -10.216  19.494  66.410  1.00  0.00     0.000 HD 
HETATM   28  H1  UNL     1     -10.226  18.914  64.743  1.00  0.00     0.000 HD 
HETATM   29  C   UNL     1     -10.892  15.509  67.521  1.00  0.00    -0.306 A  
HETATM   30  N   UNL     1     -10.621  16.425  65.404  1.00  0.00    -0.548 NA 
HETATM   31  S   UNL     1     -10.604  17.156  67.866  1.00  0.00    -0.361 SA 
HETATM   32  N   UNL     1     -10.295  18.727  65.743  1.00  0.00    -0.582 NA 
HETATM   33  C   UNL     1     -10.488  17.472  66.184  1.00  0.00    -0.288 A  
ENDBRANCH  25  26
BRANCH  25  34
HETATM   34  N   UNL     1     -11.344  13.997  64.251  1.00  0.00    -0.590 NA 
HETATM   35  H   UNL     1     -11.489  14.889  63.779  1.00  0.00     0.000 HD 
BRANCH  34  36
HETATM   36  O   UNL     1     -11.208  12.836  63.482  1.00  0.00    -0.450 OA 
HETATM   37  C   UNL     1     -12.292  11.941  63.337  1.00  0.00    -0.462 C  
ENDBRANCH  34  36
ENDBRANCH  25  34
ENDBRANCH  22  25
ENDBRANCH   5  21
TORSDOF 7
ENDMDL
MODEL       44
REMARK 921   NORMALIZED FREE ENERGY PREDICTED BY IDOCK:   -5.86 KCAL/MOL
REMARK 922        TOTAL FREE ENERGY PREDICTED BY IDOCK:   -9.77 KCAL/MOL
REMARK 923 INTER-LIGAND FREE ENERGY PREDICTED BY IDOCK:   -9.14 KCAL/MOL
REMARK 924 INTRA-LIGAND FREE ENERGY PREDICTED BY IDOCK:   -0.63 KCAL/MOL
REMARK 927      BINDING AFFINITY PREDICTED BY RF-SCORE:    0.00 PKD
ROOT
HETATM    1  C   UNL     1      -9.726  13.771  67.744  1.00  0.00    -0.230 C  
HETATM    2  S   UNL     1      -8.230  14.643  67.298  1.00  0.00    -0.205 SA 
HETATM    3  C   UNL     1      -9.083  16.106  66.734  1.00  0.00    -0.230 C  
HETATM    4  C   UNL     1     -10.363  15.894  65.936  1.00  0.00    -0.383 C  
HETATM    5  CA  UNL     1      -9.643  12.219  67.644  1.00  0.00    -0.191 C  
HETATM    6  CA  UNL     1     -11.087  14.745  65.891  1.00  0.00    -0.340 C  
HETATM    7  OXT UNL     1     -13.249  13.770  65.392  1.00  0.00    -0.722 OA 
HETATM    8  N   UNL     1     -10.654  13.668  66.624  1.00  0.00    -0.276 N  
HETATM    9  C   UNL     1     -12.348  14.532  65.068  1.00  0.00    -0.349 C  
HETATM   10  O   UNL     1     -12.014  11.732  66.787  1.00  0.00    -0.584 OA 
HETATM   11  C   UNL     1     -11.025  12.407  66.923  1.00  0.00    -0.265 C  
HETATM   12  O   UNL     1     -12.437  15.239  63.920  1.00  0.00    -0.737 OA 
ENDROOT
BRANCH   4  13
HETATM   13  C   UNL     1     -10.663  17.136  65.235  1.00  0.00    -0.067 C  
HETATM   14  C   UNL     1     -10.418  18.403  65.597  1.00  0.00    -0.120 C  
BRANCH  14  15
HETATM   15  C   UNL     1      -9.771  18.862  66.779  1.00  0.00    -0.327 A  
HETATM   16  C   UNL     1      -8.440  19.248  66.942  1.00  0.00    -0.289 A  
HETATM   17  N   UNL     1      -8.018  19.400  68.254  1.00  0.00    -0.319 NA 
HETATM   18  S   UNL     1     -10.529  18.876  68.334  1.00  0.00    -0.085 SA 
HETATM   19  C   UNL     1      -7.424  19.479  65.876  1.00  0.00    -0.314 C  
HETATM   20  C   UNL     1      -9.027  19.212  69.069  1.00  0.00    -0.213 A  
ENDBRANCH  14  15
ENDBRANCH   4  13
BRANCH   5  21
HETATM   21  N   UNL     1      -8.440  11.651  66.955  1.00  0.00    -0.164 N  
HETATM   22  C   UNL     1      -8.278  10.716  65.947  1.00  0.00    -0.159 C  
HETATM   23  O   UNL     1      -7.168  10.625  65.420  1.00  0.00    -0.110 OA 
HETATM   24  H   UNL     1      -7.559  12.033  67.300  1.00  0.00     0.000 HD 
BRANCH  22  25
HETATM   25  C   UNL     1      -9.314   9.677  65.564  1.00  0.00    -0.248 C  
BRANCH  25  26
HETATM   26  C   UNL     1      -9.448   8.416  66.337  1.00  0.00    -0.227 A  
HETATM   27  H2  UNL     1     -11.231   5.410  68.802  1.00  0.00     0.000 HD 
HETATM   28  H1  UNL     1     -12.081   6.955  68.903  1.00  0.00     0.000 HD 
HETATM   29  C   UNL     1      -8.597   7.330  66.167  1.00  0.00    -0.149 A  
HETATM   30  N   UNL     1     -10.445   8.182  67.287  1.00  0.00    -0.300 NA 
HETATM   31  S   UNL     1      -9.122   5.990  67.085  1.00  0.00    -0.115 SA 
HETATM   32  N   UNL     1     -11.314   6.391  68.536  1.00  0.00    -0.230 NA 
HETATM   33  C   UNL     1     -10.412   6.937  67.702  1.00  0.00    -0.228 A  
ENDBRANCH  25  26
BRANCH  25  34
HETATM   34  N   UNL     1     -10.239   9.825  64.655  1.00  0.00    -0.239 NA 
HETATM   35  H   UNL     1     -11.132   9.349  64.778  1.00  0.00     0.000 HD 
BRANCH  34  36
HETATM   36  O   UNL     1     -10.042  10.615  63.518  1.00  0.00    -0.323 OA 
HETATM   37  C   UNL     1     -10.755  11.824  63.351  1.00  0.00    -0.402 C  
ENDBRANCH  34  36
ENDBRANCH  25  34
ENDBRANCH  22  25
ENDBRANCH   5  21
TORSDOF 7
ENDMDL
MODEL       45
REMARK 921   NORMALIZED FREE ENERGY PREDICTED BY IDOCK:   -5.85 KCAL/MOL
REMARK 922        TOTAL FREE ENERGY PREDICTED BY IDOCK:   -9.76 KCAL/MOL
REMARK 923 INTER-LIGAND FREE ENERGY PREDICTED BY IDOCK:   -8.34 KCAL/MOL
REMARK 924 INTRA-LIGAND FREE ENERGY PREDICTED BY IDOCK:   -1.41 KCAL/MOL
REMARK 927      BINDING AFFINITY PREDICTED BY RF-SCORE:    0.00 PKD
ROOT
HETATM    1  C   UNL     1      -9.450  11.561  67.939  1.00  0.00    -0.178 C  
HETATM    2  S   UNL     1     -11.229  11.426  67.822  1.00  0.00    -0.294 SA 
HETATM    3  C   UNL     1     -11.277   9.727  68.365  1.00  0.00    -0.017 C  
HETATM    4  C   UNL     1     -10.192   8.801  67.831  1.00  0.00    -0.272 C  
HETATM    5  CA  UNL     1      -8.795  12.570  66.949  1.00  0.00    -0.203 C  
HETATM    6  CA  UNL     1      -9.024   9.196  67.260  1.00  0.00    -0.123 C  
HETATM    7  OXT UNL     1      -6.766   8.535  66.679  1.00  0.00    -0.066 OA 
HETATM    8  N   UNL     1      -8.771  10.540  67.149  1.00  0.00    -0.130 N  
HETATM    9  C   UNL     1      -7.959   8.265  66.702  1.00  0.00    -0.098 C  
HETATM   10  O   UNL     1      -6.644  11.279  66.401  1.00  0.00    -0.128 OA 
HETATM   11  C   UNL     1      -7.801  11.376  66.725  1.00  0.00    -0.157 C  
HETATM   12  O   UNL     1      -8.397   7.085  66.209  1.00  0.00    -0.117 OA 
ENDROOT
BRANCH   4  13
HETATM   13  C   UNL     1     -10.634   7.428  68.040  1.00  0.00    -0.235 C  
HETATM   14  C   UNL     1     -10.764   6.736  69.181  1.00  0.00    -0.287 C  
BRANCH  14  15
HETATM   15  C   UNL     1     -10.512   7.188  70.508  1.00  0.00    -0.212 A  
HETATM   16  C   UNL     1     -11.433   7.618  71.464  1.00  0.00    -0.264 A  
HETATM   17  N   UNL     1     -10.891   8.246  72.575  1.00  0.00    -0.355 NA 
HETATM   18  S   UNL     1      -8.922   7.435  71.142  1.00  0.00    -0.143 SA 
HETATM   19  C   UNL     1     -12.918   7.510  71.408  1.00  0.00    -0.379 C  
HETATM   20  C   UNL     1      -9.583   8.222  72.504  1.00  0.00    -0.295 A  
ENDBRANCH  14  15
ENDBRANCH   4  13
BRANCH   5  21
HETATM   21  N   UNL     1      -9.671  13.111  65.861  1.00  0.00    -0.428 N  
HETATM   22  C   UNL     1     -10.226  14.357  65.621  1.00  0.00    -0.350 C  
HETATM   23  O   UNL     1     -10.713  14.566  64.508  1.00  0.00    -0.356 OA 
HETATM   24  H   UNL     1      -9.907  12.419  65.149  1.00  0.00     0.000 HD 
BRANCH  22  25
HETATM   25  C   UNL     1     -10.434  15.423  66.679  1.00  0.00    -0.293 C  
BRANCH  25  26
HETATM   26  C   UNL     1      -9.666  16.694  66.640  1.00  0.00    -0.266 A  
HETATM   27  H2  UNL     1      -6.700  19.534  65.444  1.00  0.00     0.000 HD 
HETATM   28  H1  UNL     1      -6.287  17.886  64.963  1.00  0.00     0.000 HD 
HETATM   29  C   UNL     1     -10.145  17.885  67.172  1.00  0.00    -0.340 A  
HETATM   30  N   UNL     1      -8.407  16.830  66.049  1.00  0.00    -0.473 NA 
HETATM   31  S   UNL     1      -9.094  19.182  66.817  1.00  0.00    -0.331 SA 
HETATM   32  N   UNL     1      -6.917  18.538  65.431  1.00  0.00    -0.539 NA 
HETATM   33  C   UNL     1      -8.033  18.087  66.030  1.00  0.00    -0.121 A  
ENDBRANCH  25  26
BRANCH  25  34
HETATM   34  N   UNL     1     -11.351  15.405  67.607  1.00  0.00    -0.321 NA 
HETATM   35  H   UNL     1     -12.297  15.705  67.373  1.00  0.00     0.000 HD 
BRANCH  34  36
HETATM   36  O   UNL     1     -11.076  14.985  68.913  1.00  0.00    -0.242 OA 
HETATM   37  C   UNL     1     -12.107  14.480  69.738  1.00  0.00    -0.331 C  
ENDBRANCH  34  36
ENDBRANCH  25  34
ENDBRANCH  22  25
ENDBRANCH   5  21
TORSDOF 7
ENDMDL
MODEL       46
REMARK 921   NORMALIZED FREE ENERGY PREDICTED BY IDOCK:   -5.82 KCAL/MOL
REMARK 922        TOTAL FREE ENERGY PREDICTED BY IDOCK:   -9.71 KCAL/MOL
REMARK 923 INTER-LIGAND FREE ENERGY PREDICTED BY IDOCK:   -7.84 KCAL/MOL
REMARK 924 INTRA-LIGAND FREE ENERGY PREDICTED BY IDOCK:   -1.87 KCAL/MOL
REMARK 927      BINDING AFFINITY PREDICTED BY RF-SCORE:    0.00 PKD
ROOT
HETATM    1  C   UNL     1     -10.180  15.245  67.328  1.00  0.00    -0.248 C  
HETATM    2  S   UNL     1     -10.919  16.291  68.576  1.00  0.00    -0.357 SA 
HETATM    3  C   UNL     1      -9.493  17.353  68.731  1.00  0.00    -0.256 C  
HETATM    4  C   UNL     1      -8.126  16.682  68.705  1.00  0.00    -0.247 C  
HETATM    5  CA  UNL     1     -10.682  13.771  67.316  1.00  0.00    -0.283 C  
HETATM    6  CA  UNL     1      -7.869  15.426  68.255  1.00  0.00    -0.123 C  
HETATM    7  OXT UNL     1      -6.161  13.911  67.441  1.00  0.00    -0.335 OA 
HETATM    8  N   UNL     1      -8.912  14.677  67.769  1.00  0.00    -0.175 N  
HETATM    9  C   UNL     1      -6.506  14.752  68.260  1.00  0.00    -0.119 C  
HETATM   10  O   UNL     1      -8.479  12.587  66.736  1.00  0.00    -0.163 OA 
HETATM   11  C   UNL     1      -9.144  13.474  67.207  1.00  0.00    -0.225 C  
HETATM   12  O   UNL     1      -5.659  15.128  69.244  1.00  0.00    -0.094 OA 
ENDROOT
BRANCH   4  13
HETATM   13  C   UNL     1      -7.156  17.624  69.248  1.00  0.00    -0.120 C  
HETATM   14  C   UNL     1      -6.416  18.548  68.619  1.00  0.00    -0.240 C  
BRANCH  14  15
HETATM   15  C   UNL     1      -6.406  18.858  67.229  1.00  0.00    -0.187 A  
HETATM   16  C   UNL     1      -7.351  19.578  66.497  1.00  0.00    -0.240 A  
HETATM   17  N   UNL     1      -7.222  19.504  65.119  1.00  0.00    -0.348 NA 
HETATM   18  S   UNL     1      -5.233  18.232  66.124  1.00  0.00    -0.176 SA 
HETATM   19  C   UNL     1      -8.491  20.380  67.026  1.00  0.00    -0.355 C  
HETATM   20  C   UNL     1      -6.155  18.810  64.810  1.00  0.00    -0.182 A  
ENDBRANCH  14  15
ENDBRANCH   4  13
BRANCH   5  21
HETATM   21  N   UNL     1     -11.512  13.332  68.484  1.00  0.00    -0.288 N  
HETATM   22  C   UNL     1     -11.547  12.172  69.239  1.00  0.00    -0.318 C  
HETATM   23  O   UNL     1     -12.181  12.193  70.296  1.00  0.00    -0.316 OA 
HETATM   24  H   UNL     1     -12.190  14.032  68.784  1.00  0.00     0.000 HD 
BRANCH  22  25
HETATM   25  C   UNL     1     -11.011  10.831  68.779  1.00  0.00    -0.247 C  
BRANCH  25  26
HETATM   26  C   UNL     1     -10.029  10.081  69.604  1.00  0.00    -0.236 A  
HETATM   27  H2  UNL     1      -6.343   9.151  71.564  1.00  0.00     0.000 HD 
HETATM   28  H1  UNL     1      -6.143  10.362  70.295  1.00  0.00     0.000 HD 
HETATM   29  C   UNL     1     -10.395   9.077  70.492  1.00  0.00    -0.218 A  
HETATM   30  N   UNL     1      -8.652  10.320  69.590  1.00  0.00    -0.149 NA 
HETATM   31  S   UNL     1      -9.051   8.537  71.395  1.00  0.00    -0.227 SA 
HETATM   32  N   UNL     1      -6.740   9.719  70.816  1.00  0.00    -0.234 NA 
HETATM   33  C   UNL     1      -8.047   9.618  70.520  1.00  0.00    -0.109 A  
ENDBRANCH  25  26
BRANCH  25  34
HETATM   34  N   UNL     1     -11.428  10.160  67.740  1.00  0.00    -0.604 NA 
HETATM   35  H   UNL     1     -12.244   9.555  67.838  1.00  0.00     0.000 HD 
BRANCH  34  36
HETATM   36  O   UNL     1     -10.791  10.246  66.498  1.00  0.00    -0.123 OA 
HETATM   37  C   UNL     1      -9.840   9.275  66.110  1.00  0.00    -0.293 C  
ENDBRANCH  34  36
ENDBRANCH  25  34
ENDBRANCH  22  25
ENDBRANCH   5  21
TORSDOF 7
ENDMDL
MODEL       47
REMARK 921   NORMALIZED FREE ENERGY PREDICTED BY IDOCK:   -5.81 KCAL/MOL
REMARK 922        TOTAL FREE ENERGY PREDICTED BY IDOCK:   -9.70 KCAL/MOL
REMARK 923 INTER-LIGAND FREE ENERGY PREDICTED BY IDOCK:   -8.28 KCAL/MOL
REMARK 924 INTRA-LIGAND FREE ENERGY PREDICTED BY IDOCK:   -1.42 KCAL/MOL
REMARK 927      BINDING AFFINITY PREDICTED BY RF-SCORE:    0.00 PKD
ROOT
HETATM    1  C   UNL     1      -9.132  10.866  68.421  1.00  0.00    -0.164 C  
HETATM    2  S   UNL     1      -7.640  10.733  69.396  1.00  0.00    -0.072 SA 
HETATM    3  C   UNL     1      -8.194   9.303  70.308  1.00  0.00    -0.172 C  
HETATM    4  C   UNL     1      -9.652   9.290  70.750  1.00  0.00    -0.341 C  
HETATM    5  CA  UNL     1      -9.494  12.308  67.957  1.00  0.00    -0.206 C  
HETATM    6  CA  UNL     1     -10.639  10.079  70.250  1.00  0.00    -0.295 C  
HETATM    7  OXT UNL     1     -13.032  10.356  69.992  1.00  0.00    -0.123 OA 
HETATM    8  N   UNL     1     -10.324  10.971  69.255  1.00  0.00    -0.193 N  
HETATM    9  C   UNL     1     -12.086  10.081  70.717  1.00  0.00    -0.327 C  
HETATM   10  O   UNL     1     -12.050  12.183  68.171  1.00  0.00    -0.447 OA 
HETATM   11  C   UNL     1     -10.919  11.880  68.457  1.00  0.00    -0.235 C  
HETATM   12  O   UNL     1     -12.295   9.758  72.013  1.00  0.00    -0.354 OA 
ENDROOT
BRANCH   4  13
HETATM   13  C   UNL     1      -9.792   8.286  71.798  1.00  0.00    -0.284 C  
HETATM   14  C   UNL     1      -9.894   6.953  71.697  1.00  0.00    -0.173 C  
BRANCH  14  15
HETATM   15  C   UNL     1      -9.872   6.165  70.512  1.00  0.00    -0.178 A  
HETATM   16  C   UNL     1      -8.849   5.344  70.038  1.00  0.00    -0.126 A  
HETATM   17  N   UNL     1      -8.994   4.900  68.732  1.00  0.00    -0.101 NA 
HETATM   18  S   UNL     1     -11.122   6.210  69.317  1.00  0.00    -0.350 SA 
HETATM   19  C   UNL     1      -7.613   4.924  70.759  1.00  0.00    -0.066 C  
HETATM   20  C   UNL     1     -10.142   5.309  68.251  1.00  0.00    -0.155 A  
ENDBRANCH  14  15
ENDBRANCH   4  13
BRANCH   5  21
HETATM   21  N   UNL     1      -8.720  13.430  68.578  1.00  0.00    -0.327 N  
HETATM   22  C   UNL     1      -8.943  14.793  68.681  1.00  0.00    -0.185 C  
HETATM   23  O   UNL     1      -8.238  15.434  69.462  1.00  0.00    -0.243 OA 
HETATM   24  H   UNL     1      -7.849  13.128  69.014  1.00  0.00     0.000 HD 
BRANCH  22  25
HETATM   25  C   UNL     1      -9.872  15.582  67.779  1.00  0.00    -0.213 C  
BRANCH  25  26
HETATM   26  C   UNL     1      -9.532  16.968  67.365  1.00  0.00    -0.242 A  
HETATM   27  H2  UNL     1      -9.499  21.245  67.370  1.00  0.00     0.000 HD 
HETATM   28  H1  UNL     1     -10.859  20.581  68.279  1.00  0.00     0.000 HD 
HETATM   29  C   UNL     1      -8.448  17.271  66.549  1.00  0.00    -0.271 A  
HETATM   30  N   UNL     1     -10.245  18.101  67.764  1.00  0.00    -0.364 NA 
HETATM   31  S   UNL     1      -8.246  18.959  66.400  1.00  0.00    -0.275 SA 
HETATM   32  N   UNL     1     -10.031  20.440  67.700  1.00  0.00    -0.410 NA 
HETATM   33  C   UNL     1      -9.638  19.197  67.372  1.00  0.00    -0.311 A  
ENDBRANCH  25  26
BRANCH  25  34
HETATM   34  N   UNL     1     -10.939  15.116  67.191  1.00  0.00    -0.322 NA 
HETATM   35  H   UNL     1     -11.705  14.764  67.764  1.00  0.00     0.000 HD 
BRANCH  34  36
HETATM   36  O   UNL     1     -11.064  15.085  65.798  1.00  0.00    -0.340 OA 
HETATM   37  C   UNL     1     -10.310  14.169  65.030  1.00  0.00    -0.418 C  
ENDBRANCH  34  36
ENDBRANCH  25  34
ENDBRANCH  22  25
ENDBRANCH   5  21
TORSDOF 7
ENDMDL
MODEL       48
REMARK 921   NORMALIZED FREE ENERGY PREDICTED BY IDOCK:   -5.81 KCAL/MOL
REMARK 922        TOTAL FREE ENERGY PREDICTED BY IDOCK:   -9.70 KCAL/MOL
REMARK 923 INTER-LIGAND FREE ENERGY PREDICTED BY IDOCK:   -8.22 KCAL/MOL
REMARK 924 INTRA-LIGAND FREE ENERGY PREDICTED BY IDOCK:   -1.48 KCAL/MOL
REMARK 927      BINDING AFFINITY PREDICTED BY RF-SCORE:    0.00 PKD
ROOT
HETATM    1  C   UNL     1     -11.696  12.865  68.382  1.00  0.00    -0.345 C  
HETATM    2  S   UNL     1     -12.036  13.816  69.857  1.00  0.00    -0.352 SA 
HETATM    3  C   UNL     1     -10.769  15.031  69.536  1.00  0.00    -0.256 C  
HETATM    4  C   UNL     1      -9.442  14.516  68.991  1.00  0.00    -0.087 C  
HETATM    5  CA  UNL     1     -12.014  11.343  68.488  1.00  0.00    -0.225 C  
HETATM    6  CA  UNL     1      -9.238  13.299  68.424  1.00  0.00    -0.145 C  
HETATM    7  OXT UNL     1      -7.795  11.987  66.985  1.00  0.00    -0.160 OA 
HETATM    8  N   UNL     1     -10.303  12.440  68.313  1.00  0.00    -0.222 N  
HETATM    9  C   UNL     1      -7.904  12.781  67.909  1.00  0.00    -0.156 C  
HETATM   10  O   UNL     1     -10.061  10.415  67.103  1.00  0.00    -0.190 OA 
HETATM   11  C   UNL     1     -10.598  11.220  67.820  1.00  0.00    -0.201 C  
HETATM   12  O   UNL     1      -6.801  13.245  68.538  1.00  0.00    -0.084 OA 
ENDROOT
BRANCH   4  13
HETATM   13  C   UNL     1      -8.443  15.559  69.190  1.00  0.00    -0.248 C  
HETATM   14  C   UNL     1      -8.361  16.780  68.643  1.00  0.00    -0.252 C  
BRANCH  14  15
HETATM   15  C   UNL     1      -9.261  17.384  67.719  1.00  0.00    -0.248 A  
HETATM   16  C   UNL     1      -9.587  16.964  66.429  1.00  0.00    -0.284 A  
HETATM   17  N   UNL     1     -10.289  17.880  65.662  1.00  0.00    -0.617 NA 
HETATM   18  S   UNL     1     -10.031  18.907  68.000  1.00  0.00    -0.379 SA 
HETATM   19  C   UNL     1      -9.239  15.667  65.781  1.00  0.00    -0.247 C  
HETATM   20  C   UNL     1     -10.561  18.942  66.379  1.00  0.00    -0.387 A  
ENDBRANCH  14  15
ENDBRANCH   4  13
BRANCH   5  21
HETATM   21  N   UNL     1     -12.315  10.810  69.855  1.00  0.00    -0.441 N  
HETATM   22  C   UNL     1     -11.729   9.832  70.641  1.00  0.00    -0.300 C  
HETATM   23  O   UNL     1     -12.054   9.778  71.829  1.00  0.00    -0.390 OA 
HETATM   24  H   UNL     1     -13.116  11.261  70.298  1.00  0.00     0.000 HD 
BRANCH  22  25
HETATM   25  C   UNL     1     -10.851   8.716  70.112  1.00  0.00    -0.233 C  
BRANCH  25  26
HETATM   26  C   UNL     1      -9.407   8.656  70.456  1.00  0.00    -0.175 A  
HETATM   27  H2  UNL     1      -5.391   9.988  71.082  1.00  0.00     0.000 HD 
HETATM   28  H1  UNL     1      -6.327  11.113  70.095  1.00  0.00     0.000 HD 
HETATM   29  C   UNL     1      -8.842   7.611  71.176  1.00  0.00    -0.137 A  
HETATM   30  N   UNL     1      -8.480   9.645  70.115  1.00  0.00    -0.197 NA 
HETATM   31  S   UNL     1      -7.205   7.929  71.538  1.00  0.00    -0.072 SA 
HETATM   32  N   UNL     1      -6.261  10.236  70.611  1.00  0.00    -0.194 NA 
HETATM   33  C   UNL     1      -7.316   9.405  70.671  1.00  0.00    -0.131 A  
ENDBRANCH  25  26
BRANCH  25  34
HETATM   34  N   UNL     1     -11.265   7.671  69.449  1.00  0.00    -0.448 NA 
HETATM   35  H   UNL     1     -11.979   7.074  69.865  1.00  0.00     0.000 HD 
BRANCH  34  36
HETATM   36  O   UNL     1     -10.760   7.346  68.186  1.00  0.00    -0.186 OA 
HETATM   37  C   UNL     1     -10.438   6.008  67.864  1.00  0.00    -0.234 C  
ENDBRANCH  34  36
ENDBRANCH  25  34
ENDBRANCH  22  25
ENDBRANCH   5  21
TORSDOF 7
ENDMDL
MODEL       49
REMARK 921   NORMALIZED FREE ENERGY PREDICTED BY IDOCK:   -5.79 KCAL/MOL
REMARK 922        TOTAL FREE ENERGY PREDICTED BY IDOCK:   -9.68 KCAL/MOL
REMARK 923 INTER-LIGAND FREE ENERGY PREDICTED BY IDOCK:   -9.22 KCAL/MOL
REMARK 924 INTRA-LIGAND FREE ENERGY PREDICTED BY IDOCK:   -0.45 KCAL/MOL
REMARK 927      BINDING AFFINITY PREDICTED BY RF-SCORE:    0.00 PKD
ROOT
HETATM    1  C   UNL     1     -10.911  12.612  68.246  1.00  0.00    -0.248 C  
HETATM    2  S   UNL     1      -9.922  11.138  68.460  1.00  0.00    -0.204 SA 
HETATM    3  C   UNL     1     -11.232  10.199  69.225  1.00  0.00    -0.196 C  
HETATM    4  C   UNL     1     -12.115  10.934  70.225  1.00  0.00    -0.440 C  
HETATM    5  CA  UNL     1     -10.117  13.951  68.265  1.00  0.00    -0.241 C  
HETATM    6  CA  UNL     1     -12.219  12.283  70.347  1.00  0.00    -0.288 C  
HETATM    7  OXT UNL     1     -13.578  14.111  71.175  1.00  0.00    -0.301 OA 
HETATM    8  N   UNL     1     -11.480  13.077  69.505  1.00  0.00    -0.251 N  
HETATM    9  C   UNL     1     -13.080  13.010  71.368  1.00  0.00    -0.248 C  
HETATM   10  O   UNL     1     -11.818  15.424  69.502  1.00  0.00    -0.314 OA 
HETATM   11  C   UNL     1     -11.284  14.381  69.223  1.00  0.00    -0.275 C  
HETATM   12  O   UNL     1     -13.279  12.372  72.543  1.00  0.00    -0.345 OA 
ENDROOT
BRANCH   4  13
HETATM   13  C   UNL     1     -12.819   9.935  71.018  1.00  0.00    -0.417 C  
HETATM   14  C   UNL     1     -12.387   8.756  71.488  1.00  0.00    -0.380 C  
BRANCH  14  15
HETATM   15  C   UNL     1     -11.094   8.179  71.338  1.00  0.00    -0.247 A  
HETATM   16  C   UNL     1     -10.713   7.111  70.526  1.00  0.00    -0.238 A  
HETATM   17  N   UNL     1      -9.450   6.593  70.772  1.00  0.00    -0.168 NA 
HETATM   18  S   UNL     1      -9.733   8.634  72.303  1.00  0.00    -0.223 SA 
HETATM   19  C   UNL     1     -11.516   6.449  69.459  1.00  0.00    -0.412 C  
HETATM   20  C   UNL     1      -8.853   7.304  71.696  1.00  0.00    -0.117 A  
ENDBRANCH  14  15
ENDBRANCH   4  13
BRANCH   5  21
HETATM   21  N   UNL     1      -8.688  13.882  68.709  1.00  0.00    -0.356 N  
HETATM   22  C   UNL     1      -7.590  14.699  68.501  1.00  0.00    -0.120 C  
HETATM   23  O   UNL     1      -6.589  14.506  69.195  1.00  0.00    -0.097 OA 
HETATM   24  H   UNL     1      -8.481  13.063  69.282  1.00  0.00     0.000 HD 
BRANCH  22  25
HETATM   25  C   UNL     1      -7.464  15.697  67.366  1.00  0.00    -0.205 C  
BRANCH  25  26
HETATM   26  C   UNL     1      -8.637  16.489  66.917  1.00  0.00    -0.207 A  
HETATM   27  H2  UNL     1     -12.088  17.576  64.635  1.00  0.00     0.000 HD 
HETATM   28  H1  UNL     1     -11.094  16.366  63.819  1.00  0.00     0.000 HD 
HETATM   29  C   UNL     1      -9.222  17.484  67.693  1.00  0.00    -0.243 A  
HETATM   30  N   UNL     1      -9.284  16.305  65.692  1.00  0.00    -0.423 NA 
HETATM   31  S   UNL     1     -10.641  18.082  66.956  1.00  0.00    -0.251 SA 
HETATM   32  N   UNL     1     -11.255  16.988  64.611  1.00  0.00    -0.972 NA 
HETATM   33  C   UNL     1     -10.372  17.036  65.624  1.00  0.00    -0.209 A  
ENDBRANCH  25  26
BRANCH  25  34
HETATM   34  N   UNL     1      -6.351  16.051  66.785  1.00  0.00    -0.222 NA 
HETATM   35  H   UNL     1      -5.801  15.343  66.298  1.00  0.00     0.000 HD 
BRANCH  34  36
HETATM   36  O   UNL     1      -5.890  17.372  66.808  1.00  0.00    -0.149 OA 
HETATM   37  C   UNL     1      -5.937  18.169  65.641  1.00  0.00    -0.217 C  
ENDBRANCH  34  36
ENDBRANCH  25  34
ENDBRANCH  22  25
ENDBRANCH   5  21
TORSDOF 7
ENDMDL
MODEL       50
REMARK 921   NORMALIZED FREE ENERGY PREDICTED BY IDOCK:   -5.77 KCAL/MOL
REMARK 922        TOTAL FREE ENERGY PREDICTED BY IDOCK:   -9.65 KCAL/MOL
REMARK 923 INTER-LIGAND FREE ENERGY PREDICTED BY IDOCK:   -7.92 KCAL/MOL
REMARK 924 INTRA-LIGAND FREE ENERGY PREDICTED BY IDOCK:   -1.73 KCAL/MOL
REMARK 927      BINDING AFFINITY PREDICTED BY RF-SCORE:    0.00 PKD
ROOT
HETATM    1  C   UNL     1     -10.175   6.886  68.081  1.00  0.00    -0.176 C  
HETATM    2  S   UNL     1      -8.772   5.924  67.532  1.00  0.00    -0.102 SA 
HETATM    3  C   UNL     1      -8.275   5.449  69.179  1.00  0.00    -0.093 C  
HETATM    4  C   UNL     1      -8.362   6.517  70.261  1.00  0.00    -0.127 C  
HETATM    5  CA  UNL     1     -10.565   8.077  67.155  1.00  0.00    -0.297 C  
HETATM    6  CA  UNL     1      -9.074   7.672  70.179  1.00  0.00    -0.150 C  
HETATM    7  OXT UNL     1     -10.099   9.475  71.433  1.00  0.00    -0.258 OA 
HETATM    8  N   UNL     1      -9.792   7.919  69.036  1.00  0.00    -0.167 N  
HETATM    9  C   UNL     1      -9.132   8.747  71.253  1.00  0.00    -0.234 C  
HETATM   10  O   UNL     1     -11.252   9.786  68.944  1.00  0.00    -0.151 OA 
HETATM   11  C   UNL     1     -10.634   8.840  68.525  1.00  0.00    -0.129 C  
HETATM   12  O   UNL     1      -8.032   8.878  72.026  1.00  0.00    -0.350 OA 
ENDROOT
BRANCH   4  13
HETATM   13  C   UNL     1      -7.549   6.079  71.388  1.00  0.00    -0.099 C  
HETATM   14  C   UNL     1      -7.894   5.354  72.462  1.00  0.00    -0.103 C  
BRANCH  14  15
HETATM   15  C   UNL     1      -9.171   4.805  72.768  1.00  0.00    -0.129 A  
HETATM   16  C   UNL     1     -10.232   5.408  73.445  1.00  0.00    -0.196 A  
HETATM   17  N   UNL     1     -11.257   4.557  73.831  1.00  0.00    -0.242 NA 
HETATM   18  S   UNL     1      -9.594   3.155  72.468  1.00  0.00    -0.137 SA 
HETATM   19  C   UNL     1     -10.368   6.843  73.827  1.00  0.00    -0.409 C  
HETATM   20  C   UNL     1     -11.019   3.348  73.386  1.00  0.00    -0.206 A  
ENDBRANCH  14  15
ENDBRANCH   4  13
BRANCH   5  21
HETATM   21  N   UNL     1      -9.592   8.437  66.074  1.00  0.00    -0.429 N  
HETATM   22  C   UNL     1      -8.973   9.621  65.712  1.00  0.00    -0.169 C  
HETATM   23  O   UNL     1      -8.031   9.559  64.919  1.00  0.00    -0.111 OA 
HETATM   24  H   UNL     1      -9.333   7.647  65.483  1.00  0.00     0.000 HD 
BRANCH  22  25
HETATM   25  C   UNL     1      -9.476  11.003  66.084  1.00  0.00    -0.203 C  
BRANCH  25  26
HETATM   26  C   UNL     1     -10.621  11.614  65.362  1.00  0.00    -0.280 A  
HETATM   27  H2  UNL     1     -13.861  14.282  64.542  1.00  0.00     0.000 HD 
HETATM   28  H1  UNL     1     -13.389  14.300  66.243  1.00  0.00     0.000 HD 
HETATM   29  C   UNL     1     -10.874  11.390  64.014  1.00  0.00    -0.383 A  
HETATM   30  N   UNL     1     -11.542  12.485  65.950  1.00  0.00    -0.384 NA 
HETATM   31  S   UNL     1     -12.161  12.364  63.461  1.00  0.00    -0.536 SA 
HETATM   32  N   UNL     1     -13.275  13.931  65.298  1.00  0.00    -0.721 NA 
HETATM   33  C   UNL     1     -12.354  12.985  65.048  1.00  0.00    -0.473 A  
ENDBRANCH  25  26
BRANCH  25  34
HETATM   34  N   UNL     1      -9.074  11.710  67.104  1.00  0.00    -0.167 NA 
HETATM   35  H   UNL     1      -9.565  11.617  67.993  1.00  0.00     0.000 HD 
BRANCH  34  36
HETATM   36  O   UNL     1      -7.991  12.591  67.015  1.00  0.00    -0.160 OA 
HETATM   37  C   UNL     1      -6.675  12.138  67.261  1.00  0.00    -0.144 C  
ENDBRANCH  34  36
ENDBRANCH  25  34
ENDBRANCH  22  25
ENDBRANCH   5  21
TORSDOF 7
ENDMDL
MODEL       51
REMARK 921   NORMALIZED FREE ENERGY PREDICTED BY IDOCK:   -5.76 KCAL/MOL
REMARK 922        TOTAL FREE ENERGY PREDICTED BY IDOCK:   -9.63 KCAL/MOL
REMARK 923 INTER-LIGAND FREE ENERGY PREDICTED BY IDOCK:   -7.86 KCAL/MOL
REMARK 924 INTRA-LIGAND FREE ENERGY PREDICTED BY IDOCK:   -1.77 KCAL/MOL
REMARK 927      BINDING AFFINITY PREDICTED BY RF-SCORE:    0.00 PKD
ROOT
HETATM    1  C   UNL     1      -9.820  10.054  65.367  1.00  0.00    -0.314 C  
HETATM    2  S   UNL     1      -8.167  10.180  64.698  1.00  0.00    -0.166 SA 
HETATM    3  C   UNL     1      -7.720   8.502  65.112  1.00  0.00    -0.102 C  
HETATM    4  C   UNL     1      -8.188   7.977  66.463  1.00  0.00    -0.115 C  
HETATM    5  CA  UNL     1     -10.422  11.388  65.901  1.00  0.00    -0.258 C  
HETATM    6  CA  UNL     1      -9.170   8.523  67.229  1.00  0.00    -0.141 C  
HETATM    7  OXT UNL     1     -10.749   8.130  69.024  1.00  0.00    -0.185 OA 
HETATM    8  N   UNL     1      -9.816   9.642  66.765  1.00  0.00    -0.198 N  
HETATM    9  C   UNL     1      -9.611   8.010  68.590  1.00  0.00    -0.148 C  
HETATM   10  O   UNL     1     -11.702  10.480  67.933  1.00  0.00    -0.453 OA 
HETATM   11  C   UNL     1     -10.820  10.473  67.113  1.00  0.00    -0.259 C  
HETATM   12  O   UNL     1      -8.663   7.397  69.333  1.00  0.00    -0.136 OA 
ENDROOT
BRANCH   4  13
HETATM   13  C   UNL     1      -7.398   6.795  66.781  1.00  0.00    -0.081 C  
HETATM   14  C   UNL     1      -7.518   5.538  66.329  1.00  0.00    -0.086 C  
BRANCH  14  15
HETATM   15  C   UNL     1      -8.463   5.038  65.388  1.00  0.00    -0.138 A  
HETATM   16  C   UNL     1      -9.804   4.716  65.597  1.00  0.00    -0.204 A  
HETATM   17  N   UNL     1     -10.415   4.006  64.575  1.00  0.00    -0.236 NA 
HETATM   18  S   UNL     1      -8.044   4.577  63.775  1.00  0.00    -0.104 SA 
HETATM   19  C   UNL     1     -10.634   5.016  66.799  1.00  0.00    -0.220 C  
HETATM   20  C   UNL     1      -9.580   3.862  63.576  1.00  0.00    -0.147 A  
ENDBRANCH  14  15
ENDBRANCH   4  13
BRANCH   5  21
HETATM   21  N   UNL     1      -9.481  12.546  66.034  1.00  0.00    -0.390 N  
HETATM   22  C   UNL     1      -9.590  13.793  66.627  1.00  0.00    -0.288 C  
HETATM   23  O   UNL     1      -8.558  14.448  66.783  1.00  0.00    -0.201 OA 
HETATM   24  H   UNL     1      -8.573  12.383  65.598  1.00  0.00     0.000 HD 
BRANCH  22  25
HETATM   25  C   UNL     1     -10.903  14.483  66.940  1.00  0.00    -0.305 C  
BRANCH  25  26
HETATM   26  C   UNL     1     -11.321  14.721  68.346  1.00  0.00    -0.299 A  
HETATM   27  H2  UNL     1     -12.743  13.872  72.289  1.00  0.00     0.000 HD 
HETATM   28  H1  UNL     1     -13.119  12.580  71.146  1.00  0.00     0.000 HD 
HETATM   29  C   UNL     1     -10.992  15.874  69.049  1.00  0.00    -0.277 A  
HETATM   30  N   UNL     1     -12.059  13.812  69.108  1.00  0.00    -0.352 NA 
HETATM   31  S   UNL     1     -11.483  15.758  70.680  1.00  0.00    -0.420 SA 
HETATM   32  N   UNL     1     -12.718  13.498  71.341  1.00  0.00    -0.350 NA 
HETATM   33  C   UNL     1     -12.157  14.215  70.353  1.00  0.00    -0.346 A  
ENDBRANCH  25  26
BRANCH  25  34
HETATM   34  N   UNL     1     -11.700  15.035  66.067  1.00  0.00    -0.176 NA 
HETATM   35  H   UNL     1     -12.469  15.617  66.398  1.00  0.00     0.000 HD 
BRANCH  34  36
HETATM   36  O   UNL     1     -11.531  14.852  64.690  1.00  0.00    -0.398 OA 
HETATM   37  C   UNL     1     -12.270  13.863  64.001  1.00  0.00    -0.369 C  
ENDBRANCH  34  36
ENDBRANCH  25  34
ENDBRANCH  22  25
ENDBRANCH   5  21
TORSDOF 7
ENDMDL
MODEL       52
REMARK 921   NORMALIZED FREE ENERGY PREDICTED BY IDOCK:   -5.75 KCAL/MOL
REMARK 922        TOTAL FREE ENERGY PREDICTED BY IDOCK:   -9.61 KCAL/MOL
REMARK 923 INTER-LIGAND FREE ENERGY PREDICTED BY IDOCK:   -8.34 KCAL/MOL
REMARK 924 INTRA-LIGAND FREE ENERGY PREDICTED BY IDOCK:   -1.28 KCAL/MOL
REMARK 927      BINDING AFFINITY PREDICTED BY RF-SCORE:    0.00 PKD
ROOT
HETATM    1  C   UNL     1      -8.955  10.539  69.008  1.00  0.00    -0.176 C  
HETATM    2  S   UNL     1      -8.226  10.325  67.389  1.00  0.00    -0.114 SA 
HETATM    3  C   UNL     1      -8.171  12.072  67.028  1.00  0.00    -0.169 C  
HETATM    4  C   UNL     1      -9.375  12.902  67.453  1.00  0.00    -0.194 C  
HETATM    5  CA  UNL     1      -9.849   9.360  69.493  1.00  0.00    -0.183 C  
HETATM    6  CA  UNL     1     -10.320  12.525  68.353  1.00  0.00    -0.230 C  
HETATM    7  OXT UNL     1     -12.063  13.290  69.853  1.00  0.00    -0.323 OA 
HETATM    8  N   UNL     1     -10.200  11.295  68.952  1.00  0.00    -0.199 N  
HETATM    9  C   UNL     1     -11.535  13.348  68.750  1.00  0.00    -0.305 C  
HETATM   10  O   UNL     1     -11.671  10.697  70.714  1.00  0.00    -0.328 OA 
HETATM   11  C   UNL     1     -10.816  10.535  69.880  1.00  0.00    -0.276 C  
HETATM   12  O   UNL     1     -12.031  14.174  67.803  1.00  0.00    -0.366 OA 
ENDROOT
BRANCH   4  13
HETATM   13  C   UNL     1      -9.328  14.163  66.723  1.00  0.00    -0.295 C  
HETATM   14  C   UNL     1      -9.860  14.484  65.535  1.00  0.00    -0.320 C  
BRANCH  14  15
HETATM   15  C   UNL     1     -10.638  13.656  64.677  1.00  0.00    -0.430 A  
HETATM   16  C   UNL     1     -11.988  13.779  64.347  1.00  0.00    -0.445 A  
HETATM   17  N   UNL     1     -12.547  12.688  63.699  1.00  0.00    -0.739 NA 
HETATM   18  S   UNL     1     -10.045  12.190  63.977  1.00  0.00    -0.310 SA 
HETATM   19  C   UNL     1     -12.893  14.926  64.640  1.00  0.00     0.337 C  
HETATM   20  C   UNL     1     -11.623  11.788  63.470  1.00  0.00    -0.387 A  
ENDBRANCH  14  15
ENDBRANCH   4  13
BRANCH   5  21
HETATM   21  N   UNL     1     -10.205   8.320  68.475  1.00  0.00    -0.205 N  
HETATM   22  C   UNL     1     -11.017   7.199  68.508  1.00  0.00    -0.027 C  
HETATM   23  O   UNL     1     -11.302   6.663  67.436  1.00  0.00    -0.299 OA 
HETATM   24  H   UNL     1      -9.755   8.468  67.571  1.00  0.00     0.000 HD 
BRANCH  22  25
HETATM   25  C   UNL     1     -11.438   6.481  69.775  1.00  0.00    -0.379 C  
BRANCH  25  26
HETATM   26  C   UNL     1     -10.476   5.634  70.525  1.00  0.00    -0.277 A  
HETATM   27  H2  UNL     1      -8.219   4.114  73.825  1.00  0.00     0.000 HD 
HETATM   28  H1  UNL     1      -8.885   5.717  74.147  1.00  0.00     0.000 HD 
HETATM   29  C   UNL     1      -9.993   4.425  70.040  1.00  0.00    -0.175 A  
HETATM   30  N   UNL     1      -9.978   5.949  71.792  1.00  0.00    -0.164 NA 
HETATM   31  S   UNL     1      -9.038   3.631  71.211  1.00  0.00    -0.125 SA 
HETATM   32  N   UNL     1      -8.749   4.928  73.515  1.00  0.00    -0.105 NA 
HETATM   33  C   UNL     1      -9.267   4.957  72.275  1.00  0.00    -0.130 A  
ENDBRANCH  25  26
BRANCH  25  34
HETATM   34  N   UNL     1     -12.582   6.625  70.387  1.00  0.00    -0.320 NA 
HETATM   35  H   UNL     1     -13.259   5.863  70.355  1.00  0.00     0.000 HD 
BRANCH  34  36
HETATM   36  O   UNL     1     -12.907   7.793  71.085  1.00  0.00    -0.262 OA 
HETATM   37  C   UNL     1     -14.234   8.029  71.511  1.00  0.00    -0.413 C  
ENDBRANCH  34  36
ENDBRANCH  25  34
ENDBRANCH  22  25
ENDBRANCH   5  21
TORSDOF 7
ENDMDL
MODEL       53
REMARK 921   NORMALIZED FREE ENERGY PREDICTED BY IDOCK:   -5.73 KCAL/MOL
REMARK 922        TOTAL FREE ENERGY PREDICTED BY IDOCK:   -9.59 KCAL/MOL
REMARK 923 INTER-LIGAND FREE ENERGY PREDICTED BY IDOCK:   -7.78 KCAL/MOL
REMARK 924 INTRA-LIGAND FREE ENERGY PREDICTED BY IDOCK:   -1.80 KCAL/MOL
REMARK 927      BINDING AFFINITY PREDICTED BY RF-SCORE:    0.00 PKD
ROOT
HETATM    1  C   UNL     1     -10.995   9.930  67.757  1.00  0.00    -0.217 C  
HETATM    2  S   UNL     1     -10.885  10.936  69.230  1.00  0.00    -0.246 SA 
HETATM    3  C   UNL     1     -11.844  12.281  68.554  1.00  0.00    -0.307 C  
HETATM    4  C   UNL     1     -11.584  12.650  67.100  1.00  0.00    -0.434 C  
HETATM    5  CA  UNL     1      -9.793   8.969  67.519  1.00  0.00    -0.179 C  
HETATM    6  CA  UNL     1     -10.953  11.869  66.184  1.00  0.00    -0.308 C  
HETATM    7  OXT UNL     1     -10.602  11.451  63.823  1.00  0.00    -0.343 OA 
HETATM    8  N   UNL     1     -10.506  10.632  66.576  1.00  0.00    -0.239 N  
HETATM    9  C   UNL     1     -10.672  12.257  64.742  1.00  0.00    -0.300 C  
HETATM   10  O   UNL     1      -9.633   9.130  64.961  1.00  0.00    -0.098 OA 
HETATM   11  C   UNL     1      -9.900   9.542  66.062  1.00  0.00    -0.283 C  
HETATM   12  O   UNL     1     -10.490  13.575  64.503  1.00  0.00    -0.418 OA 
ENDROOT
BRANCH   4  13
HETATM   13  C   UNL     1     -12.131  13.982  66.873  1.00  0.00    -0.465 C  
HETATM   14  C   UNL     1     -11.597  15.183  67.139  1.00  0.00    -0.206 C  
BRANCH  14  15
HETATM   15  C   UNL     1     -10.323  15.462  67.710  1.00  0.00    -0.253 A  
HETATM   16  C   UNL     1     -10.009  15.708  69.047  1.00  0.00    -0.233 A  
HETATM   17  N   UNL     1      -8.737  16.207  69.281  1.00  0.00    -0.231 NA 
HETATM   18  S   UNL     1      -8.892  15.706  66.769  1.00  0.00    -0.297 SA 
HETATM   19  C   UNL     1     -10.893  15.529  70.234  1.00  0.00    -0.358 C  
HETATM   20  C   UNL     1      -8.069  16.263  68.156  1.00  0.00    -0.158 A  
ENDBRANCH  14  15
ENDBRANCH   4  13
BRANCH   5  21
HETATM   21  N   UNL     1      -8.586   9.173  68.384  1.00  0.00    -0.128 N  
HETATM   22  C   UNL     1      -7.881   8.342  69.238  1.00  0.00    -0.104 C  
HETATM   23  O   UNL     1      -6.780   8.727  69.636  1.00  0.00    -0.039 OA 
HETATM   24  H   UNL     1      -8.206  10.118  68.332  1.00  0.00     0.000 HD 
BRANCH  22  25
HETATM   25  C   UNL     1      -8.438   7.075  69.858  1.00  0.00    -0.140 C  
BRANCH  25  26
HETATM   26  C   UNL     1      -9.654   7.117  70.710  1.00  0.00    -0.168 A  
HETATM   27  H2  UNL     1     -13.067   8.723  72.725  1.00  0.00     0.000 HD 
HETATM   28  H1  UNL     1     -11.928   9.976  72.228  1.00  0.00     0.000 HD 
HETATM   29  C   UNL     1     -10.365   5.979  71.070  1.00  0.00    -0.216 A  
HETATM   30  N   UNL     1     -10.217   8.292  71.214  1.00  0.00    -0.195 NA 
HETATM   31  S   UNL     1     -11.793   6.388  71.911  1.00  0.00    -0.308 SA 
HETATM   32  N   UNL     1     -12.185   8.991  72.291  1.00  0.00    -0.347 NA 
HETATM   33  C   UNL     1     -11.363   8.045  71.805  1.00  0.00    -0.270 A  
ENDBRANCH  25  26
BRANCH  25  34
HETATM   34  N   UNL     1      -8.019   5.863  69.618  1.00  0.00    -0.100 NA 
HETATM   35  H   UNL     1      -7.804   5.250  70.404  1.00  0.00     0.000 HD 
BRANCH  34  36
HETATM   36  O   UNL     1      -7.854   5.380  68.316  1.00  0.00    -0.087 OA 
HETATM   37  C   UNL     1      -8.960   5.282  67.442  1.00  0.00    -0.108 C  
ENDBRANCH  34  36
ENDBRANCH  25  34
ENDBRANCH  22  25
ENDBRANCH   5  21
TORSDOF 7
ENDMDL
MODEL       54
REMARK 921   NORMALIZED FREE ENERGY PREDICTED BY IDOCK:   -5.73 KCAL/MOL
REMARK 922        TOTAL FREE ENERGY PREDICTED BY IDOCK:   -9.58 KCAL/MOL
REMARK 923 INTER-LIGAND FREE ENERGY PREDICTED BY IDOCK:   -7.79 KCAL/MOL
REMARK 924 INTRA-LIGAND FREE ENERGY PREDICTED BY IDOCK:   -1.80 KCAL/MOL
REMARK 927      BINDING AFFINITY PREDICTED BY RF-SCORE:    0.00 PKD
ROOT
HETATM    1  C   UNL     1      -9.462  15.261  65.518  1.00  0.00    -0.106 C  
HETATM    2  S   UNL     1     -10.788  16.175  64.740  1.00  0.00    -0.073 SA 
HETATM    3  C   UNL     1     -10.506  17.662  65.684  1.00  0.00    -0.144 C  
HETATM    4  C   UNL     1     -10.175  17.490  67.161  1.00  0.00    -0.323 C  
HETATM    5  CA  UNL     1      -9.674  13.720  65.591  1.00  0.00    -0.110 C  
HETATM    6  CA  UNL     1      -9.756  16.340  67.750  1.00  0.00    -0.233 C  
HETATM    7  OXT UNL     1      -8.632  15.378  69.670  1.00  0.00    -0.249 OA 
HETATM    8  N   UNL     1      -9.602  15.222  66.969  1.00  0.00    -0.219 N  
HETATM    9  C   UNL     1      -9.457  16.168  69.231  1.00  0.00    -0.224 C  
HETATM   10  O   UNL     1      -8.628  13.266  67.892  1.00  0.00    -0.164 OA 
HETATM   11  C   UNL     1      -9.195  13.940  67.070  1.00  0.00    -0.250 C  
HETATM   12  O   UNL     1     -10.166  16.948  70.077  1.00  0.00     0.061 OA 
ENDROOT
BRANCH   4  13
HETATM   13  C   UNL     1     -10.391  18.772  67.820  1.00  0.00    -0.467 C  
HETATM   14  C   UNL     1      -9.543  19.795  68.001  1.00  0.00    -0.489 C  
BRANCH  14  15
HETATM   15  C   UNL     1      -8.190  19.891  67.569  1.00  0.00    -0.322 A  
HETATM   16  C   UNL     1      -7.029  19.818  68.339  1.00  0.00    -0.304 A  
HETATM   17  N   UNL     1      -5.861  20.203  67.699  1.00  0.00    -0.189 NA 
HETATM   18  S   UNL     1      -7.735  20.286  65.947  1.00  0.00    -0.045 SA 
HETATM   19  C   UNL     1      -6.912  19.410  69.768  1.00  0.00    -0.117 C  
HETATM   20  C   UNL     1      -6.116  20.486  66.445  1.00  0.00    -0.204 A  
ENDBRANCH  14  15
ENDBRANCH   4  13
BRANCH   5  21
HETATM   21  N   UNL     1     -11.040  13.209  65.248  1.00  0.00    -0.280 N  
HETATM   22  C   UNL     1     -12.021  12.560  65.979  1.00  0.00    -0.392 C  
HETATM   23  O   UNL     1     -13.146  12.475  65.484  1.00  0.00    -0.180 OA 
HETATM   24  H   UNL     1     -11.302  13.375  64.276  1.00  0.00     0.000 HD 
BRANCH  22  25
HETATM   25  C   UNL     1     -11.770  11.796  67.264  1.00  0.00    -0.217 C  
BRANCH  25  26
HETATM   26  C   UNL     1     -11.972  12.444  68.586  1.00  0.00    -0.225 A  
HETATM   27  H2  UNL     1     -13.054  15.434  71.446  1.00  0.00     0.000 HD 
HETATM   28  H1  UNL     1     -12.857  16.097  69.821  1.00  0.00     0.000 HD 
HETATM   29  C   UNL     1     -12.001  11.734  69.781  1.00  0.00    -0.322 A  
HETATM   30  N   UNL     1     -12.175  13.815  68.763  1.00  0.00    -0.294 NA 
HETATM   31  S   UNL     1     -12.412  12.751  71.088  1.00  0.00    -0.108 SA 
HETATM   32  N   UNL     1     -12.822  15.303  70.461  1.00  0.00    -0.392 NA 
HETATM   33  C   UNL     1     -12.471  14.086  70.012  1.00  0.00    -0.281 A  
ENDBRANCH  25  26
BRANCH  25  34
HETATM   34  N   UNL     1     -11.498  10.523  67.352  1.00  0.00    -0.477 NA 
HETATM   35  H   UNL     1     -12.238   9.878  67.629  1.00  0.00     0.000 HD 
BRANCH  34  36
HETATM   36  O   UNL     1     -10.224  10.016  67.076  1.00  0.00    -0.213 OA 
HETATM   37  C   UNL     1      -9.975   8.626  67.138  1.00  0.00    -0.231 C  
ENDBRANCH  34  36
ENDBRANCH  25  34
ENDBRANCH  22  25
ENDBRANCH   5  21
TORSDOF 7
ENDMDL
MODEL       55
REMARK 921   NORMALIZED FREE ENERGY PREDICTED BY IDOCK:   -5.72 KCAL/MOL
REMARK 922        TOTAL FREE ENERGY PREDICTED BY IDOCK:   -9.57 KCAL/MOL
REMARK 923 INTER-LIGAND FREE ENERGY PREDICTED BY IDOCK:   -8.18 KCAL/MOL
REMARK 924 INTRA-LIGAND FREE ENERGY PREDICTED BY IDOCK:   -1.39 KCAL/MOL
REMARK 927      BINDING AFFINITY PREDICTED BY RF-SCORE:    0.00 PKD
ROOT
HETATM    1  C   UNL     1      -9.993  13.151  68.313  1.00  0.00    -0.236 C  
HETATM    2  S   UNL     1     -11.682  12.895  67.785  1.00  0.00    -0.351 SA 
HETATM    3  C   UNL     1     -11.631  11.124  68.001  1.00  0.00    -0.263 C  
HETATM    4  C   UNL     1     -10.355  10.414  67.567  1.00  0.00    -0.268 C  
HETATM    5  CA  UNL     1      -9.282  14.385  67.683  1.00  0.00    -0.196 C  
HETATM    6  CA  UNL     1      -9.153  11.007  67.345  1.00  0.00    -0.141 C  
HETATM    7  OXT UNL     1      -6.761  10.662  67.172  1.00  0.00    -0.075 OA 
HETATM    8  N   UNL     1      -9.049  12.364  67.528  1.00  0.00    -0.177 N  
HETATM    9  C   UNL     1      -7.892  10.295  66.883  1.00  0.00    -0.112 C  
HETATM   10  O   UNL     1      -6.923  13.407  67.408  1.00  0.00    -0.165 OA 
HETATM   11  C   UNL     1      -8.124  13.344  67.480  1.00  0.00    -0.181 C  
HETATM   12  O   UNL     1      -8.074   9.202  66.109  1.00  0.00    -0.105 OA 
ENDROOT
BRANCH   4  13
HETATM   13  C   UNL     1     -10.659   8.994  67.432  1.00  0.00    -0.309 C  
HETATM   14  C   UNL     1     -10.651   8.026  68.360  1.00  0.00    -0.150 C  
BRANCH  14  15
HETATM   15  C   UNL     1     -10.354   8.151  69.746  1.00  0.00    -0.216 A  
HETATM   16  C   UNL     1      -9.112   8.053  70.376  1.00  0.00    -0.150 A  
HETATM   17  N   UNL     1      -9.149   7.956  71.759  1.00  0.00    -0.139 NA 
HETATM   18  S   UNL     1     -11.567   8.304  70.969  1.00  0.00    -0.260 SA 
HETATM   19  C   UNL     1      -7.768   8.007  69.733  1.00  0.00    -0.101 C  
HETATM   20  C   UNL     1     -10.387   8.059  72.177  1.00  0.00    -0.254 A  
ENDBRANCH  14  15
ENDBRANCH   4  13
BRANCH   5  21
HETATM   21  N   UNL     1      -9.979  15.054  66.539  1.00  0.00    -0.253 N  
HETATM   22  C   UNL     1     -10.076  16.372  66.128  1.00  0.00    -0.346 C  
HETATM   23  O   UNL     1     -10.529  16.593  65.003  1.00  0.00    -0.664 OA 
HETATM   24  H   UNL     1     -10.489  14.404  65.939  1.00  0.00     0.000 HD 
BRANCH  22  25
HETATM   25  C   UNL     1      -9.829  17.572  67.022  1.00  0.00    -0.295 C  
BRANCH  25  26
HETATM   26  C   UNL     1      -8.446  18.023  67.324  1.00  0.00    -0.234 A  
HETATM   27  H2  UNL     1      -5.030  19.166  69.630  1.00  0.00     0.000 HD 
HETATM   28  H1  UNL     1      -6.526  19.228  70.566  1.00  0.00     0.000 HD 
HETATM   29  C   UNL     1      -7.414  17.976  66.394  1.00  0.00    -0.262 A  
HETATM   30  N   UNL     1      -8.036  18.514  68.566  1.00  0.00    -0.325 NA 
HETATM   31  S   UNL     1      -5.925  18.411  67.107  1.00  0.00    -0.153 SA 
HETATM   32  N   UNL     1      -6.043  19.059  69.684  1.00  0.00    -0.264 NA 
HETATM   33  C   UNL     1      -6.737  18.695  68.591  1.00  0.00    -0.266 A  
ENDBRANCH  25  26
BRANCH  25  34
HETATM   34  N   UNL     1     -10.745  18.376  67.487  1.00  0.00    -0.414 NA 
HETATM   35  H   UNL     1     -11.409  18.023  68.175  1.00  0.00     0.000 HD 
BRANCH  34  36
HETATM   36  O   UNL     1     -10.844  19.708  67.069  1.00  0.00    -0.487 OA 
HETATM   37  C   UNL     1     -10.488  20.075  65.752  1.00  0.00    -0.364 C  
ENDBRANCH  34  36
ENDBRANCH  25  34
ENDBRANCH  22  25
ENDBRANCH   5  21
TORSDOF 7
ENDMDL
MODEL       56
REMARK 921   NORMALIZED FREE ENERGY PREDICTED BY IDOCK:   -5.71 KCAL/MOL
REMARK 922        TOTAL FREE ENERGY PREDICTED BY IDOCK:   -9.57 KCAL/MOL
REMARK 923 INTER-LIGAND FREE ENERGY PREDICTED BY IDOCK:   -8.44 KCAL/MOL
REMARK 924 INTRA-LIGAND FREE ENERGY PREDICTED BY IDOCK:   -1.13 KCAL/MOL
REMARK 927      BINDING AFFINITY PREDICTED BY RF-SCORE:    0.00 PKD
ROOT
HETATM    1  C   UNL     1     -10.970  12.929  67.364  1.00  0.00    -0.260 C  
HETATM    2  S   UNL     1      -9.649  13.581  68.378  1.00  0.00    -0.158 SA 
HETATM    3  C   UNL     1     -10.277  15.252  68.370  1.00  0.00    -0.223 C  
HETATM    4  C   UNL     1     -10.842  15.770  67.053  1.00  0.00    -0.273 C  
HETATM    5  CA  UNL     1     -10.586  11.702  66.486  1.00  0.00    -0.253 C  
HETATM    6  CA  UNL     1     -11.215  15.003  65.995  1.00  0.00    -0.310 C  
HETATM    7  OXT UNL     1     -12.537  14.914  63.965  1.00  0.00    -0.832 OA 
HETATM    8  N   UNL     1     -11.088  13.640  66.096  1.00  0.00    -0.294 N  
HETATM    9  C   UNL     1     -11.751  15.529  64.673  1.00  0.00    -0.226 C  
HETATM   10  O   UNL     1     -11.962  12.247  64.388  1.00  0.00    -0.378 OA 
HETATM   11  C   UNL     1     -11.345  12.524  65.384  1.00  0.00    -0.325 C  
HETATM   12  O   UNL     1     -11.306  16.748  64.292  1.00  0.00    -1.170 OA 
ENDROOT
BRANCH   4  13
HETATM   13  C   UNL     1     -10.907  17.223  67.136  1.00  0.00    -0.085 C  
HETATM   14  C   UNL     1      -9.915  18.120  67.228  1.00  0.00    -0.336 C  
BRANCH  14  15
HETATM   15  C   UNL     1      -8.514  17.870  67.252  1.00  0.00    -0.236 A  
HETATM   16  C   UNL     1      -7.544  18.458  68.065  1.00  0.00    -0.259 A  
HETATM   17  N   UNL     1      -6.229  18.217  67.698  1.00  0.00    -0.183 NA 
HETATM   18  S   UNL     1      -7.711  16.846  66.112  1.00  0.00    -0.075 SA 
HETATM   19  C   UNL     1      -7.763  19.334  69.251  1.00  0.00    -0.190 C  
HETATM   20  C   UNL     1      -6.198  17.398  66.675  1.00  0.00    -0.204 A  
ENDBRANCH  14  15
ENDBRANCH   4  13
BRANCH   5  21
HETATM   21  N   UNL     1      -9.128  11.370  66.390  1.00  0.00    -0.188 N  
HETATM   22  C   UNL     1      -8.354  10.343  66.902  1.00  0.00    -0.124 C  
HETATM   23  O   UNL     1      -7.214  10.204  66.454  1.00  0.00    -0.098 OA 
HETATM   24  H   UNL     1      -8.597  12.040  65.833  1.00  0.00     0.000 HD 
BRANCH  22  25
HETATM   25  C   UNL     1      -8.740   9.487  68.092  1.00  0.00    -0.120 C  
BRANCH  25  26
HETATM   26  C   UNL     1      -8.975   8.029  67.936  1.00  0.00    -0.129 A  
HETATM   27  H2  UNL     1     -10.500   4.380  66.306  1.00  0.00     0.000 HD 
HETATM   28  H1  UNL     1     -11.418   5.791  65.773  1.00  0.00     0.000 HD 
HETATM   29  C   UNL     1      -8.171   7.063  68.530  1.00  0.00    -0.124 A  
HETATM   30  N   UNL     1     -10.003   7.480  67.165  1.00  0.00    -0.197 NA 
HETATM   31  S   UNL     1      -8.614   5.496  68.019  1.00  0.00    -0.099 SA 
HETATM   32  N   UNL     1     -10.663   5.386  66.328  1.00  0.00    -0.241 NA 
HETATM   33  C   UNL     1      -9.883   6.176  67.087  1.00  0.00    -0.141 A  
ENDBRANCH  25  26
BRANCH  25  34
HETATM   34  N   UNL     1      -8.772   9.883  69.335  1.00  0.00    -0.165 NA 
HETATM   35  H   UNL     1      -7.925  10.265  69.754  1.00  0.00     0.000 HD 
BRANCH  34  36
HETATM   36  O   UNL     1      -9.935   9.799  70.109  1.00  0.00    -0.241 OA 
HETATM   37  C   UNL     1      -9.925   9.116  71.347  1.00  0.00    -0.303 C  
ENDBRANCH  34  36
ENDBRANCH  25  34
ENDBRANCH  22  25
ENDBRANCH   5  21
TORSDOF 7
ENDMDL
MODEL       57
REMARK 921   NORMALIZED FREE ENERGY PREDICTED BY IDOCK:   -5.71 KCAL/MOL
REMARK 922        TOTAL FREE ENERGY PREDICTED BY IDOCK:   -9.56 KCAL/MOL
REMARK 923 INTER-LIGAND FREE ENERGY PREDICTED BY IDOCK:   -8.35 KCAL/MOL
REMARK 924 INTRA-LIGAND FREE ENERGY PREDICTED BY IDOCK:   -1.22 KCAL/MOL
REMARK 927      BINDING AFFINITY PREDICTED BY RF-SCORE:    0.00 PKD
ROOT
HETATM    1  C   UNL     1      -9.439  10.494  69.174  1.00  0.00    -0.191 C  
HETATM    2  S   UNL     1      -8.648  10.188  67.600  1.00  0.00    -0.117 SA 
HETATM    3  C   UNL     1      -8.393  11.915  67.232  1.00  0.00    -0.169 C  
HETATM    4  C   UNL     1      -9.526  12.870  67.584  1.00  0.00    -0.197 C  
HETATM    5  CA  UNL     1     -10.476   9.419  69.615  1.00  0.00    -0.223 C  
HETATM    6  CA  UNL     1     -10.554  12.602  68.432  1.00  0.00    -0.243 C  
HETATM    7  OXT UNL     1     -12.289  13.559  69.826  1.00  0.00    -0.281 OA 
HETATM    8  N   UNL     1     -10.595  11.373  69.043  1.00  0.00    -0.208 N  
HETATM    9  C   UNL     1     -11.697  13.550  68.755  1.00  0.00    -0.337 C  
HETATM   10  O   UNL     1     -12.215  10.949  70.723  1.00  0.00    -0.323 OA 
HETATM   11  C   UNL     1     -11.336  10.691  69.940  1.00  0.00    -0.313 C  
HETATM   12  O   UNL     1     -12.052  14.412  67.776  1.00  0.00    -0.356 OA 
ENDROOT
BRANCH   4  13
HETATM   13  C   UNL     1      -9.309  14.110  66.850  1.00  0.00    -0.274 C  
HETATM   14  C   UNL     1      -9.758  14.480  65.642  1.00  0.00    -0.282 C  
BRANCH  14  15
HETATM   15  C   UNL     1     -10.595  13.738  64.760  1.00  0.00    -0.428 A  
HETATM   16  C   UNL     1     -11.883  14.049  64.325  1.00  0.00    -0.410 A  
HETATM   17  N   UNL     1     -12.560  13.026  63.679  1.00  0.00    -0.731 NA 
HETATM   18  S   UNL     1     -10.190  12.166  64.163  1.00  0.00    -0.342 SA 
HETATM   19  C   UNL     1     -12.618  15.334  64.506  1.00  0.00     0.136 C  
HETATM   20  C   UNL     1     -11.774  11.985  63.554  1.00  0.00    -0.472 A  
ENDBRANCH  14  15
ENDBRANCH   4  13
BRANCH   5  21
HETATM   21  N   UNL     1     -10.880   8.409  68.585  1.00  0.00    -0.430 N  
HETATM   22  C   UNL     1     -10.600   7.064  68.415  1.00  0.00    -0.202 C  
HETATM   23  O   UNL     1     -11.273   6.435  67.596  1.00  0.00    -0.337 OA 
HETATM   24  H   UNL     1     -11.485   8.792  67.858  1.00  0.00     0.000 HD 
BRANCH  22  25
HETATM   25  C   UNL     1      -9.416   6.347  69.035  1.00  0.00    -0.129 C  
BRANCH  25  26
HETATM   26  C   UNL     1      -9.520   5.734  70.384  1.00  0.00    -0.166 A  
HETATM   27  H2  UNL     1     -11.298   4.373  74.028  1.00  0.00     0.000 HD 
HETATM   28  H1  UNL     1     -12.318   5.534  73.174  1.00  0.00     0.000 HD 
HETATM   29  C   UNL     1      -8.539   4.907  70.918  1.00  0.00    -0.115 A  
HETATM   30  N   UNL     1     -10.612   5.905  71.240  1.00  0.00    -0.242 NA 
HETATM   31  S   UNL     1      -9.040   4.244  72.409  1.00  0.00    -0.117 SA 
HETATM   32  N   UNL     1     -11.449   5.004  73.242  1.00  0.00    -0.320 NA 
HETATM   33  C   UNL     1     -10.502   5.135  72.297  1.00  0.00    -0.219 A  
ENDBRANCH  25  26
BRANCH  25  34
HETATM   34  N   UNL     1      -8.287   6.085  68.436  1.00  0.00    -0.113 NA 
HETATM   35  H   UNL     1      -7.672   5.374  68.831  1.00  0.00     0.000 HD 
BRANCH  34  36
HETATM   36  O   UNL     1      -7.895   6.749  67.269  1.00  0.00    -0.106 OA 
HETATM   37  C   UNL     1      -7.450   6.020  66.143  1.00  0.00    -0.085 C  
ENDBRANCH  34  36
ENDBRANCH  25  34
ENDBRANCH  22  25
ENDBRANCH   5  21
TORSDOF 7
ENDMDL
MODEL       58
REMARK 921   NORMALIZED FREE ENERGY PREDICTED BY IDOCK:   -5.70 KCAL/MOL
REMARK 922        TOTAL FREE ENERGY PREDICTED BY IDOCK:   -9.55 KCAL/MOL
REMARK 923 INTER-LIGAND FREE ENERGY PREDICTED BY IDOCK:   -7.96 KCAL/MOL
REMARK 924 INTRA-LIGAND FREE ENERGY PREDICTED BY IDOCK:   -1.59 KCAL/MOL
REMARK 927      BINDING AFFINITY PREDICTED BY RF-SCORE:    0.00 PKD
ROOT
HETATM    1  C   UNL     1      -8.466  14.543  68.389  1.00  0.00    -0.163 C  
HETATM    2  S   UNL     1      -9.097  14.605  66.717  1.00  0.00    -0.257 SA 
HETATM    3  C   UNL     1      -9.894  13.011  66.809  1.00  0.00    -0.243 C  
HETATM    4  C   UNL     1      -9.136  11.901  67.524  1.00  0.00    -0.178 C  
HETATM    5  CA  UNL     1      -7.141  15.328  68.626  1.00  0.00    -0.116 C  
HETATM    6  CA  UNL     1      -8.086  12.076  68.370  1.00  0.00    -0.154 C  
HETATM    7  OXT UNL     1      -6.771  11.082  70.146  1.00  0.00    -0.164 OA 
HETATM    8  N   UNL     1      -7.656  13.354  68.625  1.00  0.00    -0.122 N  
HETATM    9  C   UNL     1      -7.316  10.960  69.057  1.00  0.00    -0.113 C  
HETATM   10  O   UNL     1      -6.005  13.731  70.285  1.00  0.00    -0.138 OA 
HETATM   11  C   UNL     1      -6.744  14.006  69.374  1.00  0.00    -0.107 C  
HETATM   12  O   UNL     1      -7.248   9.784  68.393  1.00  0.00    -0.076 OA 
ENDROOT
BRANCH   4  13
HETATM   13  C   UNL     1      -9.735  10.630  67.138  1.00  0.00    -0.199 C  
HETATM   14  C   UNL     1     -10.546   9.820  67.833  1.00  0.00    -0.310 C  
BRANCH  14  15
HETATM   15  C   UNL     1     -11.050  10.013  69.150  1.00  0.00    -0.190 A  
HETATM   16  C   UNL     1     -10.778   9.268  70.298  1.00  0.00    -0.243 A  
HETATM   17  N   UNL     1     -11.605   9.518  71.383  1.00  0.00    -0.369 NA 
HETATM   18  S   UNL     1     -12.267  11.178  69.541  1.00  0.00    -0.198 SA 
HETATM   19  C   UNL     1      -9.733   8.219  70.474  1.00  0.00    -0.185 C  
HETATM   20  C   UNL     1     -12.434  10.490  71.093  1.00  0.00    -0.412 A  
ENDBRANCH  14  15
ENDBRANCH   4  13
BRANCH   5  21
HETATM   21  N   UNL     1      -6.420  15.818  67.408  1.00  0.00    -0.173 N  
HETATM   22  C   UNL     1      -6.062  17.079  66.961  1.00  0.00    -0.187 C  
HETATM   23  O   UNL     1      -5.259  17.152  66.029  1.00  0.00    -0.344 OA 
HETATM   24  H   UNL     1      -6.134  15.068  66.778  1.00  0.00     0.000 HD 
BRANCH  22  25
HETATM   25  C   UNL     1      -6.714  18.369  67.418  1.00  0.00    -0.197 C  
BRANCH  25  26
HETATM   26  C   UNL     1      -8.121  18.679  67.055  1.00  0.00    -0.252 A  
HETATM   27  H2  UNL     1     -11.942  18.286  65.174  1.00  0.00     0.000 HD 
HETATM   28  H1  UNL     1     -10.690  17.345  64.359  1.00  0.00     0.000 HD 
HETATM   29  C   UNL     1      -8.922  19.541  67.796  1.00  0.00    -0.318 A  
HETATM   30  N   UNL     1      -8.787  18.127  65.958  1.00  0.00    -0.508 NA 
HETATM   31  S   UNL     1     -10.523  19.550  67.205  1.00  0.00    -0.484 SA 
HETATM   32  N   UNL     1     -10.968  17.993  65.096  1.00  0.00    -0.556 NA 
HETATM   33  C   UNL     1     -10.056  18.461  65.965  1.00  0.00    -0.279 A  
ENDBRANCH  25  26
BRANCH  25  34
HETATM   34  N   UNL     1      -6.192  19.235  68.242  1.00  0.00    -0.221 NA 
HETATM   35  H   UNL     1      -5.778  20.088  67.866  1.00  0.00     0.000 HD 
BRANCH  34  36
HETATM   36  O   UNL     1      -6.185  19.030  69.626  1.00  0.00    -0.262 OA 
HETATM   37  C   UNL     1      -5.214  18.193  70.222  1.00  0.00    -0.246 C  
ENDBRANCH  34  36
ENDBRANCH  25  34
ENDBRANCH  22  25
ENDBRANCH   5  21
TORSDOF 7
ENDMDL
MODEL       59
REMARK 921   NORMALIZED FREE ENERGY PREDICTED BY IDOCK:   -5.69 KCAL/MOL
REMARK 922        TOTAL FREE ENERGY PREDICTED BY IDOCK:   -9.53 KCAL/MOL
REMARK 923 INTER-LIGAND FREE ENERGY PREDICTED BY IDOCK:   -8.32 KCAL/MOL
REMARK 924 INTRA-LIGAND FREE ENERGY PREDICTED BY IDOCK:   -1.21 KCAL/MOL
REMARK 927      BINDING AFFINITY PREDICTED BY RF-SCORE:    0.00 PKD
ROOT
HETATM    1  C   UNL     1      -9.251  15.390  67.457  1.00  0.00    -0.199 C  
HETATM    2  S   UNL     1     -10.564  16.599  67.560  1.00  0.00    -0.281 SA 
HETATM    3  C   UNL     1      -9.472  18.005  67.445  1.00  0.00    -0.262 C  
HETATM    4  C   UNL     1      -8.160  17.923  68.215  1.00  0.00    -0.294 C  
HETATM    5  CA  UNL     1      -9.531  14.043  68.187  1.00  0.00    -0.215 C  
HETATM    6  CA  UNL     1      -7.595  16.787  68.701  1.00  0.00    -0.222 C  
HETATM    7  OXT UNL     1      -5.546  15.754  69.479  1.00  0.00    -0.112 OA 
HETATM    8  N   UNL     1      -8.239  15.593  68.488  1.00  0.00    -0.146 N  
HETATM    9  C   UNL     1      -6.300  16.717  69.494  1.00  0.00    -0.229 C  
HETATM   10  O   UNL     1      -7.174  13.560  69.085  1.00  0.00    -0.080 OA 
HETATM   11  C   UNL     1      -8.072  14.275  68.719  1.00  0.00    -0.109 C  
HETATM   12  O   UNL     1      -6.004  17.799  70.248  1.00  0.00    -0.202 OA 
ENDROOT
BRANCH   4  13
HETATM   13  C   UNL     1      -7.628  19.275  68.335  1.00  0.00    -0.351 C  
HETATM   14  C   UNL     1      -6.780  19.935  67.533  1.00  0.00    -0.254 C  
BRANCH  14  15
HETATM   15  C   UNL     1      -6.186  19.472  66.324  1.00  0.00    -0.174 A  
HETATM   16  C   UNL     1      -6.377  19.952  65.028  1.00  0.00    -0.279 A  
HETATM   17  N   UNL     1      -5.876  19.151  64.013  1.00  0.00    -0.440 NA 
HETATM   18  S   UNL     1      -5.187  18.063  66.234  1.00  0.00    -0.186 SA 
HETATM   19  C   UNL     1      -7.083  21.199  64.616  1.00  0.00     0.486 C  
HETATM   20  C   UNL     1      -5.247  18.124  64.530  1.00  0.00     0.118 A  
ENDBRANCH  14  15
ENDBRANCH   4  13
BRANCH   5  21
HETATM   21  N   UNL     1     -10.726  14.001  69.090  1.00  0.00    -0.366 N  
HETATM   22  C   UNL     1     -11.637  13.010  69.411  1.00  0.00    -0.299 C  
HETATM   23  O   UNL     1     -12.381  13.202  70.375  1.00  0.00    -0.328 OA 
HETATM   24  H   UNL     1     -10.905  14.886  69.566  1.00  0.00     0.000 HD 
BRANCH  22  25
HETATM   25  C   UNL     1     -11.906  11.783  68.562  1.00  0.00    -0.303 C  
BRANCH  25  26
HETATM   26  C   UNL     1     -11.688  11.811  67.093  1.00  0.00    -0.188 A  
HETATM   27  H2  UNL     1     -11.795  13.245  63.065  1.00  0.00     0.000 HD 
HETATM   28  H1  UNL     1     -12.961  14.069  64.105  1.00  0.00     0.000 HD 
HETATM   29  C   UNL     1     -10.767  10.994  66.449  1.00  0.00    -0.227 A  
HETATM   30  N   UNL     1     -12.360  12.669  66.219  1.00  0.00    -0.501 NA 
HETATM   31  S   UNL     1     -10.648  11.391  64.793  1.00  0.00    -0.310 SA 
HETATM   32  N   UNL     1     -12.237  13.362  63.977  1.00  0.00    -0.597 NA 
HETATM   33  C   UNL     1     -11.865  12.581  65.006  1.00  0.00    -0.396 A  
ENDBRANCH  25  26
BRANCH  25  34
HETATM   34  N   UNL     1     -12.210  10.597  69.014  1.00  0.00    -0.769 NA 
HETATM   35  H   UNL     1     -13.017  10.111  68.623  1.00  0.00     0.000 HD 
BRANCH  34  36
HETATM   36  O   UNL     1     -11.463   9.973  70.019  1.00  0.00    -0.251 OA 
HETATM   37  C   UNL     1     -12.085   9.534  71.209  1.00  0.00    -0.360 C  
ENDBRANCH  34  36
ENDBRANCH  25  34
ENDBRANCH  22  25
ENDBRANCH   5  21
TORSDOF 7
ENDMDL
MODEL       60
REMARK 921   NORMALIZED FREE ENERGY PREDICTED BY IDOCK:   -5.69 KCAL/MOL
REMARK 922        TOTAL FREE ENERGY PREDICTED BY IDOCK:   -9.53 KCAL/MOL
REMARK 923 INTER-LIGAND FREE ENERGY PREDICTED BY IDOCK:   -8.59 KCAL/MOL
REMARK 924 INTRA-LIGAND FREE ENERGY PREDICTED BY IDOCK:   -0.94 KCAL/MOL
REMARK 927      BINDING AFFINITY PREDICTED BY RF-SCORE:    0.00 PKD
ROOT
HETATM    1  C   UNL     1     -11.088  12.694  66.396  1.00  0.00    -0.287 C  
HETATM    2  S   UNL     1      -9.859  12.891  67.679  1.00  0.00    -0.217 SA 
HETATM    3  C   UNL     1     -10.439  14.502  68.184  1.00  0.00    -0.239 C  
HETATM    4  C   UNL     1     -10.857  15.462  67.078  1.00  0.00    -0.320 C  
HETATM    5  CA  UNL     1     -10.651  11.811  65.190  1.00  0.00    -0.283 C  
HETATM    6  CA  UNL     1     -11.143  15.117  65.795  1.00  0.00    -0.330 C  
HETATM    7  OXT UNL     1     -12.259  15.789  63.751  1.00  0.00    -0.699 OA 
HETATM    8  N   UNL     1     -11.062  13.793  65.439  1.00  0.00    -0.296 N  
HETATM    9  C   UNL     1     -11.531  16.086  64.689  1.00  0.00    -0.250 C  
HETATM   10  O   UNL     1     -11.798  13.106  63.292  1.00  0.00    -0.504 OA 
HETATM   11  C   UNL     1     -11.275  12.997  64.372  1.00  0.00    -0.358 C  
HETATM   12  O   UNL     1     -11.020  17.333  64.783  1.00  0.00    -0.950 OA 
ENDROOT
BRANCH   4  13
HETATM   13  C   UNL     1     -10.893  16.805  67.642  1.00  0.00    -0.252 C  
HETATM   14  C   UNL     1      -9.882  17.619  67.977  1.00  0.00    -0.310 C  
BRANCH  14  15
HETATM   15  C   UNL     1      -8.485  17.374  67.846  1.00  0.00    -0.228 A  
HETATM   16  C   UNL     1      -7.610  17.860  66.874  1.00  0.00    -0.210 A  
HETATM   17  N   UNL     1      -6.363  17.254  66.835  1.00  0.00    -0.170 NA 
HETATM   18  S   UNL     1      -7.620  16.250  68.835  1.00  0.00    -0.221 SA 
HETATM   19  C   UNL     1      -7.875  18.922  65.862  1.00  0.00    -0.114 C  
HETATM   20  C   UNL     1      -6.265  16.381  67.808  1.00  0.00    -0.138 A  
ENDBRANCH  14  15
ENDBRANCH   4  13
BRANCH   5  21
HETATM   21  N   UNL     1      -9.200  11.447  65.111  1.00  0.00    -0.368 N  
HETATM   22  C   UNL     1      -8.526  10.239  65.087  1.00  0.00    -0.168 C  
HETATM   23  O   UNL     1      -7.333  10.251  64.777  1.00  0.00    -0.143 OA 
HETATM   24  H   UNL     1      -8.582  12.258  65.066  1.00  0.00     0.000 HD 
BRANCH  22  25
HETATM   25  C   UNL     1      -9.099   8.925  65.581  1.00  0.00    -0.212 C  
BRANCH  25  26
HETATM   26  C   UNL     1      -8.271   7.691  65.595  1.00  0.00    -0.136 A  
HETATM   27  H2  UNL     1      -6.012   4.379  64.106  1.00  0.00     0.000 HD 
HETATM   28  H1  UNL     1      -7.062   5.086  62.874  1.00  0.00     0.000 HD 
HETATM   29  C   UNL     1      -7.587   7.251  66.721  1.00  0.00    -0.100 A  
HETATM   30  N   UNL     1      -8.077   6.866  64.484  1.00  0.00    -0.106 NA 
HETATM   31  S   UNL     1      -6.607   5.902  66.356  1.00  0.00    -0.053 SA 
HETATM   32  N   UNL     1      -6.716   5.064  63.834  1.00  0.00    -0.041 NA 
HETATM   33  C   UNL     1      -7.187   5.937  64.742  1.00  0.00    -0.063 A  
ENDBRANCH  25  26
BRANCH  25  34
HETATM   34  N   UNL     1     -10.266   8.767  66.142  1.00  0.00    -0.381 NA 
HETATM   35  H   UNL     1     -10.972   8.208  65.665  1.00  0.00     0.000 HD 
BRANCH  34  36
HETATM   36  O   UNL     1     -10.578   9.342  67.379  1.00  0.00    -0.265 OA 
HETATM   37  C   UNL     1      -9.992   8.850  68.567  1.00  0.00    -0.177 C  
ENDBRANCH  34  36
ENDBRANCH  25  34
ENDBRANCH  22  25
ENDBRANCH   5  21
TORSDOF 7
ENDMDL
MODEL       61
REMARK 921   NORMALIZED FREE ENERGY PREDICTED BY IDOCK:   -5.68 KCAL/MOL
REMARK 922        TOTAL FREE ENERGY PREDICTED BY IDOCK:   -9.52 KCAL/MOL
REMARK 923 INTER-LIGAND FREE ENERGY PREDICTED BY IDOCK:   -8.07 KCAL/MOL
REMARK 924 INTRA-LIGAND FREE ENERGY PREDICTED BY IDOCK:   -1.46 KCAL/MOL
REMARK 927      BINDING AFFINITY PREDICTED BY RF-SCORE:    0.00 PKD
ROOT
HETATM    1  C   UNL     1     -10.553   9.842  67.626  1.00  0.00    -0.270 C  
HETATM    2  S   UNL     1     -10.680  11.066  68.923  1.00  0.00    -0.225 SA 
HETATM    3  C   UNL     1     -11.767  12.138  67.999  1.00  0.00    -0.344 C  
HETATM    4  C   UNL     1     -11.464  12.316  66.517  1.00  0.00    -0.438 C  
HETATM    5  CA  UNL     1      -9.217   9.042  67.598  1.00  0.00    -0.136 C  
HETATM    6  CA  UNL     1     -10.672  11.505  65.767  1.00  0.00    -0.271 C  
HETATM    7  OXT UNL     1     -10.112  10.789  63.521  1.00  0.00    -0.333 OA 
HETATM    8  N   UNL     1     -10.087  10.420  66.371  1.00  0.00    -0.220 N  
HETATM    9  C   UNL     1     -10.352  11.706  64.295  1.00  0.00    -0.322 C  
HETATM   10  O   UNL     1      -8.912   8.834  65.056  1.00  0.00    -0.165 OA 
HETATM   11  C   UNL     1      -9.305   9.365  66.064  1.00  0.00    -0.220 C  
HETATM   12  O   UNL     1     -10.336  12.985  63.856  1.00  0.00    -0.382 OA 
ENDROOT
BRANCH   4  13
HETATM   13  C   UNL     1     -12.171  13.504  66.056  1.00  0.00    -0.493 C  
HETATM   14  C   UNL     1     -11.909  14.799  66.285  1.00  0.00    -0.215 C  
BRANCH  14  15
HETATM   15  C   UNL     1     -10.836  15.349  67.043  1.00  0.00    -0.320 A  
HETATM   16  C   UNL     1     -10.837  15.748  68.380  1.00  0.00    -0.297 A  
HETATM   17  N   UNL     1      -9.736  16.488  68.784  1.00  0.00    -0.241 NA 
HETATM   18  S   UNL     1      -9.309  15.780  66.354  1.00  0.00    -0.330 SA 
HETATM   19  C   UNL     1     -11.894  15.499  69.401  1.00  0.00    -0.392 C  
HETATM   20  C   UNL     1      -8.879  16.581  67.798  1.00  0.00    -0.197 A  
ENDBRANCH  14  15
ENDBRANCH   4  13
BRANCH   5  21
HETATM   21  N   UNL     1      -8.110   9.548  68.471  1.00  0.00    -0.100 N  
HETATM   22  C   UNL     1      -7.670   9.205  69.738  1.00  0.00    -0.082 C  
HETATM   23  O   UNL     1      -6.576   9.640  70.104  1.00  0.00    -0.060 OA 
HETATM   24  H   UNL     1      -7.569  10.300  68.043  1.00  0.00     0.000 HD 
BRANCH  22  25
HETATM   25  C   UNL     1      -8.509   8.480  70.772  1.00  0.00    -0.149 C  
BRANCH  25  26
HETATM   26  C   UNL     1      -8.531   6.996  70.827  1.00  0.00    -0.135 A  
HETATM   27  H2  UNL     1      -9.409   2.968  69.687  1.00  0.00     0.000 HD 
HETATM   28  H1  UNL     1     -10.462   4.139  68.888  1.00  0.00     0.000 HD 
HETATM   29  C   UNL     1      -7.657   6.253  71.612  1.00  0.00    -0.095 A  
HETATM   30  N   UNL     1      -9.409   6.198  70.088  1.00  0.00    -0.154 NA 
HETATM   31  S   UNL     1      -7.840   4.581  71.322  1.00  0.00    -0.087 SA 
HETATM   32  N   UNL     1      -9.708   3.932  69.543  1.00  0.00    -0.179 NA 
HETATM   33  C   UNL     1      -9.108   4.927  70.219  1.00  0.00    -0.118 A  
ENDBRANCH  25  26
BRANCH  25  34
HETATM   34  N   UNL     1      -9.157   9.041  71.755  1.00  0.00    -0.363 NA 
HETATM   35  H   UNL     1      -8.630   9.413  72.546  1.00  0.00     0.000 HD 
BRANCH  34  36
HETATM   36  O   UNL     1     -10.552   9.149  71.758  1.00  0.00    -0.352 OA 
HETATM   37  C   UNL     1     -11.335   8.306  72.580  1.00  0.00    -0.385 C  
ENDBRANCH  34  36
ENDBRANCH  25  34
ENDBRANCH  22  25
ENDBRANCH   5  21
TORSDOF 7
ENDMDL
MODEL       62
REMARK 921   NORMALIZED FREE ENERGY PREDICTED BY IDOCK:   -5.68 KCAL/MOL
REMARK 922        TOTAL FREE ENERGY PREDICTED BY IDOCK:   -9.51 KCAL/MOL
REMARK 923 INTER-LIGAND FREE ENERGY PREDICTED BY IDOCK:   -7.84 KCAL/MOL
REMARK 924 INTRA-LIGAND FREE ENERGY PREDICTED BY IDOCK:   -1.67 KCAL/MOL
REMARK 927      BINDING AFFINITY PREDICTED BY RF-SCORE:    0.00 PKD
ROOT
HETATM    1  C   UNL     1      -9.463   8.379  68.833  1.00  0.00    -0.147 C  
HETATM    2  S   UNL     1      -7.707   8.444  68.507  1.00  0.00    -0.105 SA 
HETATM    3  C   UNL     1      -7.291   7.219  69.736  1.00  0.00    -0.084 C  
HETATM    4  C   UNL     1      -8.040   7.289  71.061  1.00  0.00    -0.103 C  
HETATM    5  CA  UNL     1     -10.238   9.702  68.555  1.00  0.00    -0.193 C  
HETATM    6  CA  UNL     1      -9.199   7.963  71.281  1.00  0.00    -0.146 C  
HETATM    7  OXT UNL     1     -11.138   8.177  72.719  1.00  0.00    -0.382 OA 
HETATM    8  N   UNL     1      -9.770   8.643  70.234  1.00  0.00    -0.170 N  
HETATM    9  C   UNL     1      -9.925   8.052  72.614  1.00  0.00    -0.290 C  
HETATM   10  O   UNL     1     -11.918   9.615  70.495  1.00  0.00    -0.250 OA 
HETATM   11  C   UNL     1     -10.867   9.377  69.956  1.00  0.00    -0.241 C  
HETATM   12  O   UNL     1      -9.151   7.989  73.720  1.00  0.00    -0.269 OA 
ENDROOT
BRANCH   4  13
HETATM   13  C   UNL     1      -7.291   6.510  72.039  1.00  0.00    -0.091 C  
HETATM   14  C   UNL     1      -7.463   5.240  72.434  1.00  0.00    -0.096 C  
BRANCH  14  15
HETATM   15  C   UNL     1      -8.435   4.308  71.971  1.00  0.00    -0.107 A  
HETATM   16  C   UNL     1      -9.661   3.979  72.550  1.00  0.00    -0.150 A  
HETATM   17  N   UNL     1     -10.285   2.854  72.031  1.00  0.00    -0.106 NA 
HETATM   18  S   UNL     1      -8.179   3.259  70.620  1.00  0.00    -0.056 SA 
HETATM   19  C   UNL     1     -10.350   4.673  73.675  1.00  0.00    -0.249 C  
HETATM   20  C   UNL     1      -9.588   2.386  71.025  1.00  0.00    -0.133 A  
ENDBRANCH  14  15
ENDBRANCH   4  13
BRANCH   5  21
HETATM   21  N   UNL     1      -9.413  10.926  68.301  1.00  0.00    -0.161 N  
HETATM   22  C   UNL     1      -9.718  12.273  68.211  1.00  0.00    -0.219 C  
HETATM   23  O   UNL     1      -8.784  13.077  68.228  1.00  0.00    -0.186 OA 
HETATM   24  H   UNL     1      -8.421  10.725  68.166  1.00  0.00     0.000 HD 
BRANCH  22  25
HETATM   25  C   UNL     1     -11.100  12.824  67.918  1.00  0.00    -0.246 C  
BRANCH  25  26
HETATM   26  C   UNL     1     -11.563  13.013  66.519  1.00  0.00    -0.356 A  
HETATM   27  H2  UNL     1     -12.754  15.035  62.944  1.00  0.00     0.000 HD 
HETATM   28  H1  UNL     1     -12.820  16.083  64.364  1.00  0.00     0.000 HD 
HETATM   29  C   UNL     1     -11.510  12.007  65.562  1.00  0.00    -0.313 A  
HETATM   30  N   UNL     1     -12.072  14.214  66.019  1.00  0.00    -0.419 NA 
HETATM   31  S   UNL     1     -11.963  12.598  64.026  1.00  0.00    -0.496 SA 
HETATM   32  N   UNL     1     -12.642  15.168  63.949  1.00  0.00    -0.695 NA 
HETATM   33  C   UNL     1     -12.261  14.136  64.722  1.00  0.00    -0.440 A  
ENDBRANCH  25  26
BRANCH  25  34
HETATM   34  N   UNL     1     -12.032  13.050  68.803  1.00  0.00    -0.306 NA 
HETATM   35  H   UNL     1     -12.934  12.586  68.701  1.00  0.00     0.000 HD 
BRANCH  34  36
HETATM   36  O   UNL     1     -11.830  13.911  69.888  1.00  0.00    -0.293 OA 
HETATM   37  C   UNL     1     -11.818  15.312  69.700  1.00  0.00    -0.339 C  
ENDBRANCH  34  36
ENDBRANCH  25  34
ENDBRANCH  22  25
ENDBRANCH   5  21
TORSDOF 7
ENDMDL
MODEL       63
REMARK 921   NORMALIZED FREE ENERGY PREDICTED BY IDOCK:   -5.67 KCAL/MOL
REMARK 922        TOTAL FREE ENERGY PREDICTED BY IDOCK:   -9.51 KCAL/MOL
REMARK 923 INTER-LIGAND FREE ENERGY PREDICTED BY IDOCK:   -8.19 KCAL/MOL
REMARK 924 INTRA-LIGAND FREE ENERGY PREDICTED BY IDOCK:   -1.32 KCAL/MOL
REMARK 927      BINDING AFFINITY PREDICTED BY RF-SCORE:    0.00 PKD
ROOT
HETATM    1  C   UNL     1      -8.873   8.093  68.022  1.00  0.00    -0.131 C  
HETATM    2  S   UNL     1      -8.416   8.870  69.565  1.00  0.00    -0.132 SA 
HETATM    3  C   UNL     1      -7.443   7.488  70.136  1.00  0.00    -0.086 C  
HETATM    4  C   UNL     1      -8.002   6.096  69.874  1.00  0.00    -0.114 C  
HETATM    5  CA  UNL     1     -10.247   8.537  67.438  1.00  0.00    -0.261 C  
HETATM    6  CA  UNL     1      -8.978   5.789  68.979  1.00  0.00    -0.117 C  
HETATM    7  OXT UNL     1      -9.998   4.025  67.669  1.00  0.00    -0.098 OA 
HETATM    8  N   UNL     1      -9.520   6.803  68.229  1.00  0.00    -0.126 N  
HETATM    9  C   UNL     1      -9.551   4.401  68.744  1.00  0.00    -0.155 C  
HETATM   10  O   UNL     1     -11.035   6.289  66.477  1.00  0.00    -0.234 OA 
HETATM   11  C   UNL     1     -10.422   6.989  67.244  1.00  0.00    -0.293 C  
HETATM   12  O   UNL     1      -9.551   3.568  69.808  1.00  0.00    -0.184 OA 
ENDROOT
BRANCH   4  13
HETATM   13  C   UNL     1      -7.306   5.162  70.750  1.00  0.00    -0.069 C  
HETATM   14  C   UNL     1      -7.561   4.833  72.025  1.00  0.00    -0.090 C  
BRANCH  14  15
HETATM   15  C   UNL     1      -8.612   5.315  72.855  1.00  0.00    -0.115 A  
HETATM   16  C   UNL     1      -9.791   4.665  73.222  1.00  0.00    -0.144 A  
HETATM   17  N   UNL     1     -10.752   5.464  73.823  1.00  0.00    -0.286 NA 
HETATM   18  S   UNL     1      -8.679   6.933  73.462  1.00  0.00    -0.141 SA 
HETATM   19  C   UNL     1     -10.142   3.232  73.010  1.00  0.00    -0.218 C  
HETATM   20  C   UNL     1     -10.283   6.677  73.983  1.00  0.00    -0.369 A  
ENDBRANCH  14  15
ENDBRANCH   4  13
BRANCH   5  21
HETATM   21  N   UNL     1     -11.131   9.347  68.335  1.00  0.00    -0.478 N  
HETATM   22  C   UNL     1     -11.521  10.675  68.335  1.00  0.00    -0.259 C  
HETATM   23  O   UNL     1     -12.454  11.001  69.072  1.00  0.00    -0.449 OA 
HETATM   24  H   UNL     1     -11.528   8.808  69.106  1.00  0.00     0.000 HD 
BRANCH  22  25
HETATM   25  C   UNL     1     -10.775  11.789  67.627  1.00  0.00    -0.214 C  
BRANCH  25  26
HETATM   26  C   UNL     1     -10.947  12.012  66.169  1.00  0.00    -0.302 A  
HETATM   27  H2  UNL     1     -12.366  13.766  62.535  1.00  0.00     0.000 HD 
HETATM   28  H1  UNL     1     -13.373  14.186  63.923  1.00  0.00     0.000 HD 
HETATM   29  C   UNL     1     -10.072  11.503  65.216  1.00  0.00    -0.269 A  
HETATM   30  N   UNL     1     -11.981  12.767  65.609  1.00  0.00    -0.431 NA 
HETATM   31  S   UNL     1     -10.462  12.077  63.657  1.00  0.00    -0.478 SA 
HETATM   32  N   UNL     1     -12.576  13.685  63.529  1.00  0.00    -0.784 NA 
HETATM   33  C   UNL     1     -11.802  12.919  64.317  1.00  0.00    -0.395 A  
ENDBRANCH  25  26
BRANCH  25  34
HETATM   34  N   UNL     1     -10.050  12.707  68.206  1.00  0.00    -0.230 NA 
HETATM   35  H   UNL     1      -9.149  12.445  68.606  1.00  0.00     0.000 HD 
BRANCH  34  36
HETATM   36  O   UNL     1     -10.471  14.038  68.295  1.00  0.00    -0.232 OA 
HETATM   37  C   UNL     1     -11.577  14.388  69.102  1.00  0.00    -0.307 C  
ENDBRANCH  34  36
ENDBRANCH  25  34
ENDBRANCH  22  25
ENDBRANCH   5  21
TORSDOF 7
ENDMDL
MODEL       64
REMARK 921   NORMALIZED FREE ENERGY PREDICTED BY IDOCK:   -5.66 KCAL/MOL
REMARK 922        TOTAL FREE ENERGY PREDICTED BY IDOCK:   -9.48 KCAL/MOL
REMARK 923 INTER-LIGAND FREE ENERGY PREDICTED BY IDOCK:   -8.15 KCAL/MOL
REMARK 924 INTRA-LIGAND FREE ENERGY PREDICTED BY IDOCK:   -1.33 KCAL/MOL
REMARK 927      BINDING AFFINITY PREDICTED BY RF-SCORE:    0.00 PKD
ROOT
HETATM    1  C   UNL     1      -9.320  10.461  69.001  1.00  0.00    -0.194 C  
HETATM    2  S   UNL     1      -8.521  10.229  67.418  1.00  0.00    -0.125 SA 
HETATM    3  C   UNL     1      -8.327  11.974  67.102  1.00  0.00    -0.181 C  
HETATM    4  C   UNL     1      -9.493  12.878  67.482  1.00  0.00    -0.198 C  
HETATM    5  CA  UNL     1     -10.318   9.337  69.410  1.00  0.00    -0.215 C  
HETATM    6  CA  UNL     1     -10.509  12.549  68.323  1.00  0.00    -0.234 C  
HETATM    7  OXT UNL     1     -12.274  13.403  69.746  1.00  0.00    -0.302 OA 
HETATM    8  N   UNL     1     -10.506  11.302  68.897  1.00  0.00    -0.207 N  
HETATM    9  C   UNL     1     -11.684  13.447  68.674  1.00  0.00    -0.349 C  
HETATM   10  O   UNL     1     -12.107  10.772  70.565  1.00  0.00    -0.303 OA 
HETATM   11  C   UNL     1     -11.221  10.569  69.774  1.00  0.00    -0.298 C  
HETATM   12  O   UNL     1     -12.071  14.324  67.722  1.00  0.00    -0.363 OA 
ENDROOT
BRANCH   4  13
HETATM   13  C   UNL     1      -9.320  14.147  66.786  1.00  0.00    -0.295 C  
HETATM   14  C   UNL     1      -9.788  14.537  65.592  1.00  0.00    -0.337 C  
BRANCH  14  15
HETATM   15  C   UNL     1     -10.604  13.796  64.691  1.00  0.00    -0.425 A  
HETATM   16  C   UNL     1     -11.875  14.117  64.212  1.00  0.00    -0.397 A  
HETATM   17  N   UNL     1     -12.543  13.094  63.555  1.00  0.00    -0.728 NA 
HETATM   18  S   UNL     1     -10.200  12.213  64.124  1.00  0.00    -0.342 SA 
HETATM   19  C   UNL     1     -12.600  15.412  64.356  1.00  0.00     0.196 C  
HETATM   20  C   UNL     1     -11.765  12.044  63.467  1.00  0.00    -0.472 A  
ENDBRANCH  14  15
ENDBRANCH   4  13
BRANCH   5  21
HETATM   21  N   UNL     1     -10.687   8.345  68.351  1.00  0.00    -0.425 N  
HETATM   22  C   UNL     1     -10.814   6.966  68.346  1.00  0.00    -0.180 C  
HETATM   23  O   UNL     1     -11.368   6.443  67.377  1.00  0.00    -0.283 OA 
HETATM   24  H   UNL     1     -10.887   8.774  67.447  1.00  0.00     0.000 HD 
BRANCH  22  25
HETATM   25  C   UNL     1     -10.169   6.040  69.359  1.00  0.00    -0.211 C  
BRANCH  25  26
HETATM   26  C   UNL     1      -8.714   5.749  69.304  1.00  0.00    -0.113 A  
HETATM   27  H2  UNL     1      -4.496   6.458  69.283  1.00  0.00     0.000 HD 
HETATM   28  H1  UNL     1      -5.425   7.917  68.928  1.00  0.00     0.000 HD 
HETATM   29  C   UNL     1      -8.185   4.483  69.527  1.00  0.00    -0.064 A  
HETATM   30  N   UNL     1      -7.732   6.711  69.048  1.00  0.00    -0.107 NA 
HETATM   31  S   UNL     1      -6.479   4.526  69.551  1.00  0.00    -0.033 SA 
HETATM   32  N   UNL     1      -5.394   6.918  69.133  1.00  0.00    -0.014 NA 
HETATM   33  C   UNL     1      -6.532   6.206  69.207  1.00  0.00    -0.043 A  
ENDBRANCH  25  26
BRANCH  25  34
HETATM   34  N   UNL     1     -10.756   5.535  70.409  1.00  0.00    -0.278 NA 
HETATM   35  H   UNL     1     -10.962   4.536  70.427  1.00  0.00     0.000 HD 
BRANCH  34  36
HETATM   36  O   UNL     1     -11.112   6.321  71.510  1.00  0.00    -0.259 OA 
HETATM   37  C   UNL     1     -12.409   6.874  71.608  1.00  0.00    -0.371 C  
ENDBRANCH  34  36
ENDBRANCH  25  34
ENDBRANCH  22  25
ENDBRANCH   5  21
TORSDOF 7
ENDMDL
MODEL       65
REMARK 921   NORMALIZED FREE ENERGY PREDICTED BY IDOCK:   -5.64 KCAL/MOL
REMARK 922        TOTAL FREE ENERGY PREDICTED BY IDOCK:   -9.46 KCAL/MOL
REMARK 923 INTER-LIGAND FREE ENERGY PREDICTED BY IDOCK:   -7.56 KCAL/MOL
REMARK 924 INTRA-LIGAND FREE ENERGY PREDICTED BY IDOCK:   -1.90 KCAL/MOL
REMARK 927      BINDING AFFINITY PREDICTED BY RF-SCORE:    0.00 PKD
ROOT
HETATM    1  C   UNL     1      -8.446  10.488  65.369  1.00  0.00    -0.170 C  
HETATM    2  S   UNL     1      -9.336  10.234  63.840  1.00  0.00    -0.303 SA 
HETATM    3  C   UNL     1     -10.535  11.516  64.160  1.00  0.00    -0.353 C  
HETATM    4  C   UNL     1     -11.059  11.629  65.586  1.00  0.00    -0.308 C  
HETATM    5  CA  UNL     1      -7.739   9.224  65.942  1.00  0.00    -0.098 C  
HETATM    6  CA  UNL     1     -10.479  11.086  66.689  1.00  0.00    -0.256 C  
HETATM    7  OXT UNL     1     -10.320  11.174  69.105  1.00  0.00    -0.211 OA 
HETATM    8  N   UNL     1      -9.316  10.375  66.534  1.00  0.00    -0.160 N  
HETATM    9  C   UNL     1     -11.025  11.178  68.105  1.00  0.00    -0.238 C  
HETATM   10  O   UNL     1      -8.128   9.631  68.448  1.00  0.00    -0.102 OA 
HETATM   11  C   UNL     1      -8.397   9.724  67.277  1.00  0.00    -0.121 C  
HETATM   12  O   UNL     1     -12.369  11.263  68.222  1.00  0.00    -0.542 OA 
ENDROOT
BRANCH   4  13
HETATM   13  C   UNL     1     -12.285  12.416  65.550  1.00  0.00    -0.356 C  
HETATM   14  C   UNL     1     -12.477  13.714  65.827  1.00  0.00    -0.524 C  
BRANCH  14  15
HETATM   15  C   UNL     1     -11.502  14.674  66.219  1.00  0.00    -0.351 A  
HETATM   16  C   UNL     1     -11.213  15.139  67.503  1.00  0.00    -0.330 A  
HETATM   17  N   UNL     1     -10.400  16.260  67.564  1.00  0.00    -0.282 NA 
HETATM   18  S   UNL     1     -10.560  15.587  65.092  1.00  0.00    -0.411 SA 
HETATM   19  C   UNL     1     -11.706  14.592  68.799  1.00  0.00    -0.357 C  
HETATM   20  C   UNL     1     -10.012  16.592  66.357  1.00  0.00    -0.303 A  
ENDBRANCH  14  15
ENDBRANCH   4  13
BRANCH   5  21
HETATM   21  N   UNL     1      -8.087   7.911  65.309  1.00  0.00    -0.129 N  
HETATM   22  C   UNL     1      -8.280   6.637  65.813  1.00  0.00    -0.135 C  
HETATM   23  O   UNL     1      -8.794   5.797  65.072  1.00  0.00    -0.094 OA 
HETATM   24  H   UNL     1      -8.205   7.969  64.297  1.00  0.00     0.000 HD 
BRANCH  22  25
HETATM   25  C   UNL     1      -7.750   6.151  67.148  1.00  0.00    -0.101 C  
BRANCH  25  26
HETATM   26  C   UNL     1      -8.677   5.836  68.265  1.00  0.00    -0.111 A  
HETATM   27  H2  UNL     1     -12.250   5.850  70.617  1.00  0.00     0.000 HD 
HETATM   28  H1  UNL     1     -12.201   7.183  69.459  1.00  0.00     0.000 HD 
HETATM   29  C   UNL     1      -8.478   4.774  69.139  1.00  0.00    -0.080 A  
HETATM   30  N   UNL     1      -9.846   6.553  68.538  1.00  0.00    -0.136 NA 
HETATM   31  S   UNL     1      -9.804   4.594  70.198  1.00  0.00    -0.236 SA 
HETATM   32  N   UNL     1     -11.762   6.366  69.885  1.00  0.00    -0.370 NA 
HETATM   33  C   UNL     1     -10.542   5.967  69.484  1.00  0.00    -0.308 A  
ENDBRANCH  25  26
BRANCH  25  34
HETATM   34  N   UNL     1      -6.509   5.843  67.407  1.00  0.00    -0.045 NA 
HETATM   35  H   UNL     1      -6.102   6.138  68.294  1.00  0.00     0.000 HD 
BRANCH  34  36
HETATM   36  O   UNL     1      -5.721   5.121  66.505  1.00  0.00    -0.017 OA 
HETATM   37  C   UNL     1      -5.967   3.748  66.276  1.00  0.00    -0.024 C  
ENDBRANCH  34  36
ENDBRANCH  25  34
ENDBRANCH  22  25
ENDBRANCH   5  21
TORSDOF 7
ENDMDL
MODEL       66
REMARK 921   NORMALIZED FREE ENERGY PREDICTED BY IDOCK:   -5.63 KCAL/MOL
REMARK 922        TOTAL FREE ENERGY PREDICTED BY IDOCK:   -9.45 KCAL/MOL
REMARK 923 INTER-LIGAND FREE ENERGY PREDICTED BY IDOCK:   -8.16 KCAL/MOL
REMARK 924 INTRA-LIGAND FREE ENERGY PREDICTED BY IDOCK:   -1.29 KCAL/MOL
REMARK 927      BINDING AFFINITY PREDICTED BY RF-SCORE:    0.00 PKD
ROOT
HETATM    1  C   UNL     1     -11.356   9.866  68.709  1.00  0.00     0.007 C  
HETATM    2  S   UNL     1      -9.893   8.977  68.194  1.00  0.00    -0.173 SA 
HETATM    3  C   UNL     1     -10.413   7.426  68.906  1.00  0.00    -0.203 C  
HETATM    4  C   UNL     1     -11.088   7.485  70.270  1.00  0.00    -0.263 C  
HETATM    5  CA  UNL     1     -11.151  11.388  68.967  1.00  0.00    -0.243 C  
HETATM    6  CA  UNL     1     -11.625   8.595  70.841  1.00  0.00    -0.269 C  
HETATM    7  OXT UNL     1     -13.168   9.430  72.513  1.00  0.00    -0.426 OA 
HETATM    8  N   UNL     1     -11.572   9.779  70.148  1.00  0.00    -0.220 N  
HETATM    9  C   UNL     1     -12.271   8.652  72.216  1.00  0.00    -0.378 C  
HETATM   10  O   UNL     1     -12.717  11.681  70.981  1.00  0.00    -0.356 OA 
HETATM   11  C   UNL     1     -11.976  11.061  70.262  1.00  0.00    -0.365 C  
HETATM   12  O   UNL     1     -11.797   7.781  73.135  1.00  0.00    -0.170 OA 
ENDROOT
BRANCH   4  13
HETATM   13  C   UNL     1     -11.053   6.145  70.844  1.00  0.00    -0.371 C  
HETATM   14  C   UNL     1     -10.072   5.529  71.517  1.00  0.00    -0.260 C  
BRANCH  14  15
HETATM   15  C   UNL     1      -8.792   6.048  71.862  1.00  0.00    -0.138 A  
HETATM   16  C   UNL     1      -7.589   5.915  71.167  1.00  0.00    -0.100 A  
HETATM   17  N   UNL     1      -6.451   6.299  71.861  1.00  0.00    -0.049 NA 
HETATM   18  S   UNL     1      -8.462   6.850  73.358  1.00  0.00    -0.123 SA 
HETATM   19  C   UNL     1      -7.390   5.380  69.790  1.00  0.00    -0.065 C  
HETATM   20  C   UNL     1      -6.790   6.789  73.028  1.00  0.00    -0.075 A  
ENDBRANCH  14  15
ENDBRANCH   4  13
BRANCH   5  21
HETATM   21  N   UNL     1      -9.736  11.880  69.010  1.00  0.00    -0.407 N  
HETATM   22  C   UNL     1      -8.858  12.325  68.037  1.00  0.00    -0.182 C  
HETATM   23  O   UNL     1      -7.829  12.893  68.407  1.00  0.00    -0.133 OA 
HETATM   24  H   UNL     1      -9.339  11.888  69.949  1.00  0.00     0.000 HD 
BRANCH  22  25
HETATM   25  C   UNL     1      -8.983  12.012  66.558  1.00  0.00    -0.193 C  
BRANCH  25  26
HETATM   26  C   UNL     1     -10.111  12.556  65.759  1.00  0.00    -0.262 A  
HETATM   27  H2  UNL     1     -13.583  12.598  63.262  1.00  0.00     0.000 HD 
HETATM   28  H1  UNL     1     -12.740  11.047  63.217  1.00  0.00     0.000 HD 
HETATM   29  C   UNL     1     -10.567  13.863  65.884  1.00  0.00    -0.293 A  
HETATM   30  N   UNL     1     -10.838  11.813  64.825  1.00  0.00    -0.292 NA 
HETATM   31  S   UNL     1     -11.971  14.115  64.946  1.00  0.00    -0.440 SA 
HETATM   32  N   UNL     1     -12.804  12.008  63.553  1.00  0.00    -0.770 NA 
HETATM   33  C   UNL     1     -11.864  12.499  64.380  1.00  0.00    -0.386 A  
ENDBRANCH  25  26
BRANCH  25  34
HETATM   34  N   UNL     1      -8.096  11.384  65.836  1.00  0.00    -0.369 NA 
HETATM   35  H   UNL     1      -8.333  11.123  64.879  1.00  0.00     0.000 HD 
BRANCH  34  36
HETATM   36  O   UNL     1      -6.831  11.057  66.335  1.00  0.00    -0.128 OA 
HETATM   37  C   UNL     1      -6.431   9.706  66.448  1.00  0.00    -0.070 C  
ENDBRANCH  34  36
ENDBRANCH  25  34
ENDBRANCH  22  25
ENDBRANCH   5  21
TORSDOF 7
ENDMDL
MODEL       67
REMARK 921   NORMALIZED FREE ENERGY PREDICTED BY IDOCK:   -5.62 KCAL/MOL
REMARK 922        TOTAL FREE ENERGY PREDICTED BY IDOCK:   -9.43 KCAL/MOL
REMARK 923 INTER-LIGAND FREE ENERGY PREDICTED BY IDOCK:   -7.58 KCAL/MOL
REMARK 924 INTRA-LIGAND FREE ENERGY PREDICTED BY IDOCK:   -1.85 KCAL/MOL
REMARK 927      BINDING AFFINITY PREDICTED BY RF-SCORE:    0.00 PKD
ROOT
HETATM    1  C   UNL     1      -9.625  10.303  66.531  1.00  0.00    -0.181 C  
HETATM    2  S   UNL     1      -7.861  10.491  66.313  1.00  0.00    -0.146 SA 
HETATM    3  C   UNL     1      -7.475   8.838  66.864  1.00  0.00    -0.090 C  
HETATM    4  C   UNL     1      -8.259   8.308  68.057  1.00  0.00    -0.128 C  
HETATM    5  CA  UNL     1     -10.395  11.616  66.863  1.00  0.00    -0.220 C  
HETATM    6  CA  UNL     1      -9.425   8.820  68.530  1.00  0.00    -0.145 C  
HETATM    7  OXT UNL     1     -11.402   8.380  69.860  1.00  0.00    -0.107 OA 
HETATM    8  N   UNL     1      -9.970   9.907  67.891  1.00  0.00    -0.154 N  
HETATM    9  C   UNL     1     -10.187   8.303  69.740  1.00  0.00    -0.204 C  
HETATM   10  O   UNL     1     -12.126  10.677  68.511  1.00  0.00    -0.420 OA 
HETATM   11  C   UNL     1     -11.060  10.698  67.949  1.00  0.00    -0.308 C  
HETATM   12  O   UNL     1      -9.442   7.738  70.716  1.00  0.00    -0.161 OA 
ENDROOT
BRANCH   4  13
HETATM   13  C   UNL     1      -7.535   7.162  68.594  1.00  0.00    -0.102 C  
HETATM   14  C   UNL     1      -7.594   5.870  68.240  1.00  0.00    -0.090 C  
BRANCH  14  15
HETATM   15  C   UNL     1      -8.388   5.284  67.214  1.00  0.00    -0.107 A  
HETATM   16  C   UNL     1      -8.037   5.032  65.887  1.00  0.00    -0.108 A  
HETATM   17  N   UNL     1      -9.086   4.694  65.045  1.00  0.00    -0.154 NA 
HETATM   18  S   UNL     1     -10.063   4.900  67.410  1.00  0.00    -0.116 SA 
HETATM   19  C   UNL     1      -6.681   5.118  65.274  1.00  0.00    -0.048 C  
HETATM   20  C   UNL     1     -10.198   4.613  65.734  1.00  0.00    -0.258 A  
ENDBRANCH  14  15
ENDBRANCH   4  13
BRANCH   5  21
HETATM   21  N   UNL     1      -9.566  12.814  67.212  1.00  0.00    -0.203 N  
HETATM   22  C   UNL     1      -9.804  13.941  67.979  1.00  0.00    -0.234 C  
HETATM   23  O   UNL     1      -8.840  14.648  68.279  1.00  0.00    -0.163 OA 
HETATM   24  H   UNL     1      -8.633  12.795  66.798  1.00  0.00     0.000 HD 
BRANCH  22  25
HETATM   25  C   UNL     1     -11.183  14.465  68.332  1.00  0.00    -0.273 C  
BRANCH  25  26
HETATM   26  C   UNL     1     -11.594  14.628  69.750  1.00  0.00    -0.296 A  
HETATM   27  H2  UNL     1     -12.353  16.552  73.494  1.00  0.00     0.000 HD 
HETATM   28  H1  UNL     1     -11.282  17.497  72.456  1.00  0.00     0.000 HD 
HETATM   29  C   UNL     1     -12.378  13.699  70.423  1.00  0.00    -0.345 A  
HETATM   30  N   UNL     1     -11.259  15.731  70.540  1.00  0.00    -0.345 NA 
HETATM   31  S   UNL     1     -12.802  14.264  71.976  1.00  0.00    -0.345 SA 
HETATM   32  N   UNL     1     -11.833  16.655  72.623  1.00  0.00    -0.415 NA 
HETATM   33  C   UNL     1     -11.877  15.681  71.697  1.00  0.00    -0.429 A  
ENDBRANCH  25  26
BRANCH  25  34
HETATM   34  N   UNL     1     -12.059  14.932  67.485  1.00  0.00    -0.467 NA 
HETATM   35  H   UNL     1     -12.889  15.403  67.843  1.00  0.00     0.000 HD 
BRANCH  34  36
HETATM   36  O   UNL     1     -11.893  14.805  66.102  1.00  0.00    -0.311 OA 
HETATM   37  C   UNL     1     -12.652  13.862  65.371  1.00  0.00    -0.507 C  
ENDBRANCH  34  36
ENDBRANCH  25  34
ENDBRANCH  22  25
ENDBRANCH   5  21
TORSDOF 7
ENDMDL
MODEL       68
REMARK 921   NORMALIZED FREE ENERGY PREDICTED BY IDOCK:   -5.60 KCAL/MOL
REMARK 922        TOTAL FREE ENERGY PREDICTED BY IDOCK:   -9.40 KCAL/MOL
REMARK 923 INTER-LIGAND FREE ENERGY PREDICTED BY IDOCK:   -7.60 KCAL/MOL
REMARK 924 INTRA-LIGAND FREE ENERGY PREDICTED BY IDOCK:   -1.80 KCAL/MOL
REMARK 927      BINDING AFFINITY PREDICTED BY RF-SCORE:    0.00 PKD
ROOT
HETATM    1  C   UNL     1     -10.759   9.452  70.949  1.00  0.00    -0.323 C  
HETATM    2  S   UNL     1     -11.777   8.018  71.273  1.00  0.00    -0.285 SA 
HETATM    3  C   UNL     1     -11.005   7.649  72.839  1.00  0.00    -0.400 C  
HETATM    4  C   UNL     1      -9.493   7.808  72.918  1.00  0.00    -0.294 C  
HETATM    5  CA  UNL     1     -10.513   9.763  69.443  1.00  0.00    -0.223 C  
HETATM    6  CA  UNL     1      -8.723   8.504  72.040  1.00  0.00    -0.196 C  
HETATM    7  OXT UNL     1      -6.593   9.607  71.696  1.00  0.00    -0.307 OA 
HETATM    8  N   UNL     1      -9.337   9.133  70.986  1.00  0.00    -0.266 N  
HETATM    9  C   UNL     1      -7.210   8.634  72.109  1.00  0.00    -0.023 C  
HETATM   10  O   UNL     1      -8.079  10.569  69.578  1.00  0.00    -0.154 OA 
HETATM   11  C   UNL     1      -9.033   9.928  69.940  1.00  0.00    -0.202 C  
HETATM   12  O   UNL     1      -6.546   7.594  72.660  1.00  0.00    -0.058 OA 
ENDROOT
BRANCH   4  13
HETATM   13  C   UNL     1      -9.027   7.084  74.094  1.00  0.00    -0.233 C  
HETATM   14  C   UNL     1      -8.782   5.775  74.251  1.00  0.00    -0.122 C  
BRANCH  14  15
HETATM   15  C   UNL     1      -8.903   4.743  73.278  1.00  0.00    -0.107 A  
HETATM   16  C   UNL     1     -10.008   3.937  73.005  1.00  0.00    -0.137 A  
HETATM   17  N   UNL     1      -9.764   2.844  72.188  1.00  0.00    -0.146 NA 
HETATM   18  S   UNL     1      -7.578   4.182  72.318  1.00  0.00    -0.077 SA 
HETATM   19  C   UNL     1     -11.399   4.099  73.516  1.00  0.00    -0.297 C  
HETATM   20  C   UNL     1      -8.518   2.863  71.783  1.00  0.00    -0.064 A  
ENDBRANCH  14  15
ENDBRANCH   4  13
BRANCH   5  21
HETATM   21  N   UNL     1     -10.926   8.710  68.461  1.00  0.00    -0.441 N  
HETATM   22  C   UNL     1     -10.507   8.392  67.180  1.00  0.00    -0.310 C  
HETATM   23  O   UNL     1     -10.871   7.314  66.706  1.00  0.00    -0.311 OA 
HETATM   24  H   UNL     1     -11.668   8.102  68.807  1.00  0.00     0.000 HD 
BRANCH  22  25
HETATM   25  C   UNL     1      -9.780   9.345  66.252  1.00  0.00    -0.264 C  
BRANCH  25  26
HETATM   26  C   UNL     1     -10.488  10.499  65.640  1.00  0.00    -0.143 A  
HETATM   27  H2  UNL     1     -12.727  14.134  65.383  1.00  0.00     0.000 HD 
HETATM   28  H1  UNL     1     -12.853  13.377  66.973  1.00  0.00     0.000 HD 
HETATM   29  C   UNL     1     -10.314  10.877  64.314  1.00  0.00    -0.368 A  
HETATM   30  N   UNL     1     -11.376  11.328  66.329  1.00  0.00    -0.235 NA 
HETATM   31  S   UNL     1     -11.144  12.330  63.977  1.00  0.00    -0.428 SA 
HETATM   32  N   UNL     1     -12.500  13.367  66.016  1.00  0.00    -0.403 NA 
HETATM   33  C   UNL     1     -11.737  12.347  65.586  1.00  0.00    -0.414 A  
ENDBRANCH  25  26
BRANCH  25  34
HETATM   34  N   UNL     1      -8.498   9.342  66.010  1.00  0.00    -0.132 NA 
HETATM   35  H   UNL     1      -7.948  10.166  66.249  1.00  0.00     0.000 HD 
BRANCH  34  36
HETATM   36  O   UNL     1      -7.855   8.241  65.433  1.00  0.00    -0.100 OA 
HETATM   37  C   UNL     1      -7.706   8.152  64.030  1.00  0.00    -0.137 C  
ENDBRANCH  34  36
ENDBRANCH  25  34
ENDBRANCH  22  25
ENDBRANCH   5  21
TORSDOF 7
ENDMDL
MODEL       69
REMARK 921   NORMALIZED FREE ENERGY PREDICTED BY IDOCK:   -5.58 KCAL/MOL
REMARK 922        TOTAL FREE ENERGY PREDICTED BY IDOCK:   -9.38 KCAL/MOL
REMARK 923 INTER-LIGAND FREE ENERGY PREDICTED BY IDOCK:   -9.95 KCAL/MOL
REMARK 924 INTRA-LIGAND FREE ENERGY PREDICTED BY IDOCK:    0.56 KCAL/MOL
REMARK 927      BINDING AFFINITY PREDICTED BY RF-SCORE:    0.00 PKD
ROOT
HETATM    1  C   UNL     1     -11.983  12.678  68.359  1.00  0.00    -0.221 C  
HETATM    2  S   UNL     1     -11.248  11.074  68.648  1.00  0.00    -0.290 SA 
HETATM    3  C   UNL     1     -12.396  10.624  69.938  1.00  0.00    -0.235 C  
HETATM    4  C   UNL     1     -12.781  11.713  70.930  1.00  0.00    -0.351 C  
HETATM    5  CA  UNL     1     -11.003  13.773  67.843  1.00  0.00    -0.253 C  
HETATM    6  CA  UNL     1     -12.605  13.048  70.749  1.00  0.00    -0.241 C  
HETATM    7  OXT UNL     1     -13.299  15.263  71.446  1.00  0.00    -0.419 OA 
HETATM    8  N   UNL     1     -12.041  13.481  69.575  1.00  0.00    -0.317 N  
HETATM    9  C   UNL     1     -12.965  14.127  71.757  1.00  0.00    -0.348 C  
HETATM   10  O   UNL     1     -11.950  15.803  69.099  1.00  0.00    -0.387 OA 
HETATM   11  C   UNL     1     -11.719  14.630  68.947  1.00  0.00    -0.309 C  
HETATM   12  O   UNL     1     -12.895  13.774  73.060  1.00  0.00    -0.306 OA 
ENDROOT
BRANCH   4  13
HETATM   13  C   UNL     1     -13.364  11.066  72.099  1.00  0.00    -0.285 C  
HETATM   14  C   UNL     1     -13.231   9.806  72.535  1.00  0.00    -0.225 C  
BRANCH  14  15
HETATM   15  C   UNL     1     -12.454   8.762  71.958  1.00  0.00    -0.386 A  
HETATM   16  C   UNL     1     -12.889   7.534  71.458  1.00  0.00    -0.360 A  
HETATM   17  N   UNL     1     -11.892   6.607  71.196  1.00  0.00    -0.348 NA 
HETATM   18  S   UNL     1     -10.725   8.778  71.913  1.00  0.00    -0.358 SA 
HETATM   19  C   UNL     1     -14.294   7.101  71.210  1.00  0.00    -0.286 C  
HETATM   20  C   UNL     1     -10.718   7.146  71.416  1.00  0.00    -0.225 A  
ENDBRANCH  14  15
ENDBRANCH   4  13
BRANCH   5  21
HETATM   21  N   UNL     1      -9.541  13.447  67.892  1.00  0.00    -0.209 N  
HETATM   22  C   UNL     1      -8.673  12.851  66.994  1.00  0.00    -0.195 C  
HETATM   23  O   UNL     1      -7.464  12.932  67.222  1.00  0.00    -0.147 OA 
HETATM   24  H   UNL     1      -9.095  13.719  68.768  1.00  0.00     0.000 HD 
BRANCH  22  25
HETATM   25  C   UNL     1      -9.102  11.960  65.845  1.00  0.00    -0.083 C  
BRANCH  25  26
HETATM   26  C   UNL     1     -10.338  12.254  65.075  1.00  0.00    -0.291 A  
HETATM   27  H2  UNL     1     -13.332  14.537  63.045  1.00  0.00     0.000 HD 
HETATM   28  H1  UNL     1     -12.341  15.529  64.117  1.00  0.00     0.000 HD 
HETATM   29  C   UNL     1     -11.034  11.287  64.360  1.00  0.00    -0.261 A  
HETATM   30  N   UNL     1     -10.912  13.524  64.972  1.00  0.00    -0.318 NA 
HETATM   31  S   UNL     1     -12.307  11.985  63.462  1.00  0.00    -0.465 SA 
HETATM   32  N   UNL     1     -12.580  14.617  63.729  1.00  0.00    -0.733 NA 
HETATM   33  C   UNL     1     -11.906  13.520  64.115  1.00  0.00    -0.437 A  
ENDBRANCH  25  26
BRANCH  25  34
HETATM   34  N   UNL     1      -8.408  10.975  65.345  1.00  0.00    -0.363 NA 
HETATM   35  H   UNL     1      -8.036  11.062  64.399  1.00  0.00     0.000 HD 
BRANCH  34  36
HETATM   36  O   UNL     1      -8.157   9.803  66.067  1.00  0.00    -0.111 OA 
HETATM   37  C   UNL     1      -8.685   8.566  65.632  1.00  0.00    -0.181 C  
ENDBRANCH  34  36
ENDBRANCH  25  34
ENDBRANCH  22  25
ENDBRANCH   5  21
TORSDOF 7
ENDMDL
MODEL       70
REMARK 921   NORMALIZED FREE ENERGY PREDICTED BY IDOCK:   -5.58 KCAL/MOL
REMARK 922        TOTAL FREE ENERGY PREDICTED BY IDOCK:   -9.38 KCAL/MOL
REMARK 923 INTER-LIGAND FREE ENERGY PREDICTED BY IDOCK:   -7.92 KCAL/MOL
REMARK 924 INTRA-LIGAND FREE ENERGY PREDICTED BY IDOCK:   -1.46 KCAL/MOL
REMARK 927      BINDING AFFINITY PREDICTED BY RF-SCORE:    0.00 PKD
ROOT
HETATM    1  C   UNL     1      -9.722  11.245  68.315  1.00  0.00    -0.198 C  
HETATM    2  S   UNL     1      -8.032  11.676  68.707  1.00  0.00    -0.034 SA 
HETATM    3  C   UNL     1      -7.603  10.046  69.290  1.00  0.00    -0.109 C  
HETATM    4  C   UNL     1      -8.644   9.317  70.131  1.00  0.00    -0.215 C  
HETATM    5  CA  UNL     1     -10.746  12.414  68.421  1.00  0.00    -0.235 C  
HETATM    6  CA  UNL     1      -9.963   9.633  70.206  1.00  0.00    -0.270 C  
HETATM    7  OXT UNL     1     -12.176   8.828  70.780  1.00  0.00    -0.182 OA 
HETATM    8  N   UNL     1     -10.427  10.691  69.465  1.00  0.00    -0.223 N  
HETATM    9  C   UNL     1     -10.990   8.919  71.070  1.00  0.00    -0.276 C  
HETATM   10  O   UNL     1     -12.757  11.120  69.357  1.00  0.00    -0.240 OA 
HETATM   11  C   UNL     1     -11.583  11.327  69.185  1.00  0.00    -0.319 C  
HETATM   12  O   UNL     1     -10.528   8.372  72.217  1.00  0.00    -0.292 OA 
ENDROOT
BRANCH   4  13
HETATM   13  C   UNL     1      -7.970   8.233  70.834  1.00  0.00    -0.101 C  
HETATM   14  C   UNL     1      -7.802   6.953  70.472  1.00  0.00    -0.105 C  
BRANCH  14  15
HETATM   15  C   UNL     1      -8.235   6.323  69.271  1.00  0.00    -0.114 A  
HETATM   16  C   UNL     1      -9.391   5.571  69.057  1.00  0.00    -0.121 A  
HETATM   17  N   UNL     1      -9.431   4.861  67.867  1.00  0.00    -0.132 NA 
HETATM   18  S   UNL     1      -7.275   6.254  67.834  1.00  0.00    -0.089 SA 
HETATM   19  C   UNL     1     -10.558   5.421  69.971  1.00  0.00    -0.354 C  
HETATM   20  C   UNL     1      -8.365   5.131  67.154  1.00  0.00    -0.107 A  
ENDBRANCH  14  15
ENDBRANCH   4  13
BRANCH   5  21
HETATM   21  N   UNL     1     -10.266  13.674  69.073  1.00  0.00    -0.431 N  
HETATM   22  C   UNL     1      -9.966  14.937  68.591  1.00  0.00    -0.224 C  
HETATM   23  O   UNL     1      -9.818  15.846  69.410  1.00  0.00    -0.251 OA 
HETATM   24  H   UNL     1     -10.131  13.583  70.081  1.00  0.00     0.000 HD 
BRANCH  22  25
HETATM   25  C   UNL     1      -9.636  15.248  67.144  1.00  0.00    -0.217 C  
BRANCH  25  26
HETATM   26  C   UNL     1      -9.297  16.632  66.723  1.00  0.00    -0.244 A  
HETATM   27  H2  UNL     1      -9.822  20.790  65.868  1.00  0.00     0.000 HD 
HETATM   28  H1  UNL     1     -11.357  19.921  65.955  1.00  0.00     0.000 HD 
HETATM   29  C   UNL     1      -7.991  17.096  66.627  1.00  0.00    -0.265 A  
HETATM   30  N   UNL     1     -10.245  17.607  66.403  1.00  0.00    -0.356 NA 
HETATM   31  S   UNL     1      -7.958  18.767  66.277  1.00  0.00    -0.230 SA 
HETATM   32  N   UNL     1     -10.338  19.919  65.994  1.00  0.00    -0.497 NA 
HETATM   33  C   UNL     1      -9.672  18.771  66.211  1.00  0.00    -0.330 A  
ENDBRANCH  25  26
BRANCH  25  34
HETATM   34  N   UNL     1      -9.486  14.369  66.192  1.00  0.00    -0.450 NA 
HETATM   35  H   UNL     1      -8.640  13.801  66.172  1.00  0.00     0.000 HD 
BRANCH  34  36
HETATM   36  O   UNL     1     -10.452  14.182  65.197  1.00  0.00    -0.353 OA 
HETATM   37  C   UNL     1     -11.822  14.382  65.481  1.00  0.00    -0.357 C  
ENDBRANCH  34  36
ENDBRANCH  25  34
ENDBRANCH  22  25
ENDBRANCH   5  21
TORSDOF 7
ENDMDL
MODEL       71
REMARK 921   NORMALIZED FREE ENERGY PREDICTED BY IDOCK:   -5.57 KCAL/MOL
REMARK 922        TOTAL FREE ENERGY PREDICTED BY IDOCK:   -9.36 KCAL/MOL
REMARK 923 INTER-LIGAND FREE ENERGY PREDICTED BY IDOCK:   -8.34 KCAL/MOL
REMARK 924 INTRA-LIGAND FREE ENERGY PREDICTED BY IDOCK:   -1.02 KCAL/MOL
REMARK 927      BINDING AFFINITY PREDICTED BY RF-SCORE:    0.00 PKD
ROOT
HETATM    1  C   UNL     1     -10.689   9.296  68.438  1.00  0.00    -0.145 C  
HETATM    2  S   UNL     1      -8.994   8.738  68.331  1.00  0.00    -0.141 SA 
HETATM    3  C   UNL     1      -9.286   7.228  69.236  1.00  0.00    -0.144 C  
HETATM    4  C   UNL     1     -10.209   7.315  70.444  1.00  0.00    -0.200 C  
HETATM    5  CA  UNL     1     -10.880  10.842  68.433  1.00  0.00    -0.222 C  
HETATM    6  CA  UNL     1     -11.078   8.327  70.706  1.00  0.00    -0.258 C  
HETATM    7  OXT UNL     1     -13.063   8.983  71.933  1.00  0.00    -0.344 OA 
HETATM    8  N   UNL     1     -11.156   9.370  69.818  1.00  0.00    -0.211 N  
HETATM    9  C   UNL     1     -11.976   8.420  71.930  1.00  0.00    -0.338 C  
HETATM   10  O   UNL     1     -12.832  11.025  70.090  1.00  0.00    -0.197 OA 
HETATM   11  C   UNL     1     -11.847  10.512  69.624  1.00  0.00    -0.234 C  
HETATM   12  O   UNL     1     -11.509   7.841  73.058  1.00  0.00    -0.372 OA 
ENDROOT
BRANCH   4  13
HETATM   13  C   UNL     1      -9.991   6.127  71.260  1.00  0.00    -0.215 C  
HETATM   14  C   UNL     1      -8.921   5.773  71.986  1.00  0.00    -0.140 C  
BRANCH  14  15
HETATM   15  C   UNL     1      -7.707   6.495  72.158  1.00  0.00    -0.097 A  
HETATM   16  C   UNL     1      -7.468   7.604  72.971  1.00  0.00    -0.097 A  
HETATM   17  N   UNL     1      -6.269   8.263  72.746  1.00  0.00    -0.074 NA 
HETATM   18  S   UNL     1      -6.283   6.197  71.223  1.00  0.00    -0.045 SA 
HETATM   19  C   UNL     1      -8.364   8.172  74.018  1.00  0.00    -0.309 C  
HETATM   20  C   UNL     1      -5.575   7.622  71.838  1.00  0.00    -0.036 A  
ENDBRANCH  14  15
ENDBRANCH   4  13
BRANCH   5  21
HETATM   21  N   UNL     1      -9.645  11.674  68.597  1.00  0.00    -0.317 N  
HETATM   22  C   UNL     1      -9.122  12.745  67.893  1.00  0.00    -0.204 C  
HETATM   23  O   UNL     1      -8.202  13.381  68.411  1.00  0.00    -0.153 OA 
HETATM   24  H   UNL     1      -9.071  11.393  69.393  1.00  0.00     0.000 HD 
BRANCH  22  25
HETATM   25  C   UNL     1      -9.480  13.088  66.460  1.00  0.00    -0.245 C  
BRANCH  25  26
HETATM   26  C   UNL     1      -9.827  14.480  66.075  1.00  0.00    -0.318 A  
HETATM   27  H2  UNL     1     -11.807  17.694  64.063  1.00  0.00     0.000 HD 
HETATM   28  H1  UNL     1     -12.015  16.150  63.233  1.00  0.00     0.000 HD 
HETATM   29  C   UNL     1      -9.478  15.587  66.840  1.00  0.00    -0.228 A  
HETATM   30  N   UNL     1     -10.552  14.818  64.929  1.00  0.00    -0.428 NA 
HETATM   31  S   UNL     1     -10.166  17.014  66.204  1.00  0.00    -0.304 SA 
HETATM   32  N   UNL     1     -11.616  16.694  63.997  1.00  0.00    -1.119 NA 
HETATM   33  C   UNL     1     -10.839  16.099  64.919  1.00  0.00    -0.334 A  
ENDBRANCH  25  26
BRANCH  25  34
HETATM   34  N   UNL     1      -9.396  12.278  65.440  1.00  0.00    -0.436 NA 
HETATM   35  H   UNL     1      -9.195  12.664  64.518  1.00  0.00     0.000 HD 
BRANCH  34  36
HETATM   36  O   UNL     1      -9.573  10.897  65.574  1.00  0.00    -0.198 OA 
HETATM   37  C   UNL     1      -9.062  10.010  64.599  1.00  0.00    -0.237 C  
ENDBRANCH  34  36
ENDBRANCH  25  34
ENDBRANCH  22  25
ENDBRANCH   5  21
TORSDOF 7
ENDMDL
MODEL       72
REMARK 921   NORMALIZED FREE ENERGY PREDICTED BY IDOCK:   -5.56 KCAL/MOL
REMARK 922        TOTAL FREE ENERGY PREDICTED BY IDOCK:   -9.35 KCAL/MOL
REMARK 923 INTER-LIGAND FREE ENERGY PREDICTED BY IDOCK:   -7.91 KCAL/MOL
REMARK 924 INTRA-LIGAND FREE ENERGY PREDICTED BY IDOCK:   -1.44 KCAL/MOL
REMARK 927      BINDING AFFINITY PREDICTED BY RF-SCORE:    0.00 PKD
ROOT
HETATM    1  C   UNL     1      -9.178   9.434  69.920  1.00  0.00    -0.208 C  
HETATM    2  S   UNL     1     -10.134   9.013  71.371  1.00  0.00    -0.326 SA 
HETATM    3  C   UNL     1     -10.052   7.253  71.087  1.00  0.00    -0.186 C  
HETATM    4  C   UNL     1     -10.205   6.779  69.647  1.00  0.00    -0.207 C  
HETATM    5  CA  UNL     1      -9.508  10.819  69.287  1.00  0.00    -0.082 C  
HETATM    6  CA  UNL     1     -10.068   7.554  68.539  1.00  0.00    -0.184 C  
HETATM    7  OXT UNL     1      -9.657   7.561  66.151  1.00  0.00    -0.114 OA 
HETATM    8  N   UNL     1      -9.758   8.881  68.702  1.00  0.00    -0.158 N  
HETATM    9  C   UNL     1     -10.250   7.079  67.106  1.00  0.00    -0.248 C  
HETATM   10  O   UNL     1      -9.254  10.213  66.805  1.00  0.00    -0.148 OA 
HETATM   11  C   UNL     1      -9.493   9.977  67.962  1.00  0.00    -0.137 C  
HETATM   12  O   UNL     1     -11.129   6.069  66.920  1.00  0.00    -0.303 OA 
ENDROOT
BRANCH   4  13
HETATM   13  C   UNL     1     -10.523   5.357  69.677  1.00  0.00    -0.361 C  
HETATM   14  C   UNL     1      -9.706   4.296  69.613  1.00  0.00    -0.284 C  
BRANCH  14  15
HETATM   15  C   UNL     1      -8.286   4.295  69.514  1.00  0.00    -0.059 A  
HETATM   16  C   UNL     1      -7.499   4.183  68.367  1.00  0.00    -0.059 A  
HETATM   17  N   UNL     1      -6.150   3.949  68.588  1.00  0.00    -0.030 NA 
HETATM   18  S   UNL     1      -7.237   4.281  70.889  1.00  0.00    -0.041 SA 
HETATM   19  C   UNL     1      -7.948   4.251  66.947  1.00  0.00    -0.098 C  
HETATM   20  C   UNL     1      -5.903   3.963  69.874  1.00  0.00    -0.018 A  
ENDBRANCH  14  15
ENDBRANCH   4  13
BRANCH   5  21
HETATM   21  N   UNL     1     -10.735  11.515  69.792  1.00  0.00    -0.433 N  
HETATM   22  C   UNL     1     -11.480  12.583  69.321  1.00  0.00    -0.293 C  
HETATM   23  O   UNL     1     -12.585  12.782  69.830  1.00  0.00     0.035 OA 
HETATM   24  H   UNL     1     -11.095  11.121  70.661  1.00  0.00     0.000 HD 
BRANCH  22  25
HETATM   25  C   UNL     1     -10.967  13.627  68.349  1.00  0.00    -0.262 C  
BRANCH  25  26
HETATM   26  C   UNL     1     -11.453  13.664  66.946  1.00  0.00    -0.345 A  
HETATM   27  H2  UNL     1     -13.589  12.506  63.426  1.00  0.00     0.000 HD 
HETATM   28  H1  UNL     1     -13.474  11.197  64.605  1.00  0.00     0.000 HD 
HETATM   29  C   UNL     1     -11.361  14.793  66.142  1.00  0.00    -0.330 A  
HETATM   30  N   UNL     1     -12.066  12.586  66.302  1.00  0.00    -0.605 NA 
HETATM   31  S   UNL     1     -12.154  14.551  64.650  1.00  0.00    -0.453 SA 
HETATM   32  N   UNL     1     -13.254  12.152  64.322  1.00  0.00    -0.725 NA 
HETATM   33  C   UNL     1     -12.524  12.945  65.125  1.00  0.00    -0.501 A  
ENDBRANCH  25  26
BRANCH  25  34
HETATM   34  N   UNL     1     -10.194  14.633  68.652  1.00  0.00    -0.238 NA 
HETATM   35  H   UNL     1      -9.287  14.716  68.192  1.00  0.00     0.000 HD 
BRANCH  34  36
HETATM   36  O   UNL     1     -10.570  15.602  69.590  1.00  0.00    -0.239 OA 
HETATM   37  C   UNL     1     -11.935  15.851  69.855  1.00  0.00    -0.269 C  
ENDBRANCH  34  36
ENDBRANCH  25  34
ENDBRANCH  22  25
ENDBRANCH   5  21
TORSDOF 7
ENDMDL
MODEL       73
REMARK 921   NORMALIZED FREE ENERGY PREDICTED BY IDOCK:   -5.55 KCAL/MOL
REMARK 922        TOTAL FREE ENERGY PREDICTED BY IDOCK:   -9.34 KCAL/MOL
REMARK 923 INTER-LIGAND FREE ENERGY PREDICTED BY IDOCK:   -7.71 KCAL/MOL
REMARK 924 INTRA-LIGAND FREE ENERGY PREDICTED BY IDOCK:   -1.63 KCAL/MOL
REMARK 927      BINDING AFFINITY PREDICTED BY RF-SCORE:    0.00 PKD
ROOT
HETATM    1  C   UNL     1     -11.338  12.165  65.850  1.00  0.00    -0.356 C  
HETATM    2  S   UNL     1     -10.013  12.012  64.659  1.00  0.00    -0.173 SA 
HETATM    3  C   UNL     1      -9.901  10.237  64.801  1.00  0.00    -0.334 C  
HETATM    4  C   UNL     1     -10.027   9.648  66.200  1.00  0.00    -0.346 C  
HETATM    5  CA  UNL     1     -11.374  13.512  66.631  1.00  0.00    -0.322 C  
HETATM    6  CA  UNL     1     -10.536  10.287  67.286  1.00  0.00    -0.267 C  
HETATM    7  OXT UNL     1     -11.499  10.009  69.492  1.00  0.00    -0.208 OA 
HETATM    8  N   UNL     1     -10.989  11.574  67.136  1.00  0.00    -0.270 N  
HETATM    9  C   UNL     1     -10.632   9.701  68.686  1.00  0.00    -0.217 C  
HETATM   10  O   UNL     1     -12.120  12.639  68.928  1.00  0.00    -0.262 OA 
HETATM   11  C   UNL     1     -11.580  12.550  67.854  1.00  0.00    -0.347 C  
HETATM   12  O   UNL     1      -9.684   8.798  69.020  1.00  0.00    -0.166 OA 
ENDROOT
BRANCH   4  13
HETATM   13  C   UNL     1      -9.506   8.287  66.160  1.00  0.00    -0.241 C  
HETATM   14  C   UNL     1      -8.268   7.853  65.887  1.00  0.00    -0.126 C  
BRANCH  14  15
HETATM   15  C   UNL     1      -7.119   8.635  65.575  1.00  0.00    -0.083 A  
HETATM   16  C   UNL     1      -6.383   9.464  66.421  1.00  0.00    -0.065 A  
HETATM   17  N   UNL     1      -5.475  10.305  65.794  1.00  0.00    -0.062 NA 
HETATM   18  S   UNL     1      -6.499   8.816  63.971  1.00  0.00    -0.076 SA 
HETATM   19  C   UNL     1      -6.486   9.571  67.905  1.00  0.00    -0.062 C  
HETATM   20  C   UNL     1      -5.465  10.063  64.506  1.00  0.00    -0.094 A  
ENDBRANCH  14  15
ENDBRANCH   4  13
BRANCH   5  21
HETATM   21  N   UNL     1     -10.178  14.404  66.493  1.00  0.00    -0.268 N  
HETATM   22  C   UNL     1      -9.771  15.552  67.150  1.00  0.00    -0.222 C  
HETATM   23  O   UNL     1      -8.613  15.935  66.977  1.00  0.00    -0.183 OA 
HETATM   24  H   UNL     1      -9.530  14.102  65.765  1.00  0.00     0.000 HD 
BRANCH  22  25
HETATM   25  C   UNL     1     -10.694  16.470  67.929  1.00  0.00    -0.337 C  
BRANCH  25  26
HETATM   26  C   UNL     1     -11.237  16.059  69.249  1.00  0.00    -0.346 A  
HETATM   27  H2  UNL     1     -14.114  14.995  72.230  1.00  0.00     0.000 HD 
HETATM   28  H1  UNL     1     -14.845  15.834  70.858  1.00  0.00     0.000 HD 
HETATM   29  C   UNL     1     -10.455  15.491  70.247  1.00  0.00    -0.263 A  
HETATM   30  N   UNL     1     -12.581  16.179  69.614  1.00  0.00     0.151 NA 
HETATM   31  S   UNL     1     -11.413  14.989  71.567  1.00  0.00    -0.251 SA 
HETATM   32  N   UNL     1     -14.018  15.467  71.331  1.00  0.00    -0.559 NA 
HETATM   33  C   UNL     1     -12.803  15.605  70.773  1.00  0.00    -0.404 A  
ENDBRANCH  25  26
BRANCH  25  34
HETATM   34  N   UNL     1     -10.988  17.701  67.612  1.00  0.00    -0.213 NA 
HETATM   35  H   UNL     1     -11.924  17.913  67.269  1.00  0.00     0.000 HD 
BRANCH  34  36
HETATM   36  O   UNL     1     -10.056  18.739  67.728  1.00  0.00    -0.332 OA 
HETATM   37  C   UNL     1     -10.269  19.795  68.642  1.00  0.00    -0.405 C  
ENDBRANCH  34  36
ENDBRANCH  25  34
ENDBRANCH  22  25
ENDBRANCH   5  21
TORSDOF 7
ENDMDL
MODEL       74
REMARK 921   NORMALIZED FREE ENERGY PREDICTED BY IDOCK:   -5.54 KCAL/MOL
REMARK 922        TOTAL FREE ENERGY PREDICTED BY IDOCK:   -9.32 KCAL/MOL
REMARK 923 INTER-LIGAND FREE ENERGY PREDICTED BY IDOCK:   -8.02 KCAL/MOL
REMARK 924 INTRA-LIGAND FREE ENERGY PREDICTED BY IDOCK:   -1.30 KCAL/MOL
REMARK 927      BINDING AFFINITY PREDICTED BY RF-SCORE:    0.00 PKD
ROOT
HETATM    1  C   UNL     1      -9.895  12.351  67.349  1.00  0.00    -0.199 C  
HETATM    2  S   UNL     1     -11.210  11.781  66.280  1.00  0.00    -0.273 SA 
HETATM    3  C   UNL     1     -10.531  10.142  66.084  1.00  0.00    -0.103 C  
HETATM    4  C   UNL     1      -9.021  10.037  65.915  1.00  0.00    -0.182 C  
HETATM    5  CA  UNL     1      -9.596  13.878  67.274  1.00  0.00    -0.243 C  
HETATM    6  CA  UNL     1      -8.120  11.007  66.221  1.00  0.00    -0.159 C  
HETATM    7  OXT UNL     1      -5.797  11.483  66.722  1.00  0.00    -0.120 OA 
HETATM    8  N   UNL     1      -8.582  12.192  66.735  1.00  0.00    -0.186 N  
HETATM    9  C   UNL     1      -6.616  10.904  66.021  1.00  0.00    -0.080 C  
HETATM   10  O   UNL     1      -7.041  13.812  67.525  1.00  0.00    -0.173 OA 
HETATM   11  C   UNL     1      -8.113  13.366  67.205  1.00  0.00    -0.137 C  
HETATM   12  O   UNL     1      -6.202  10.124  64.997  1.00  0.00    -0.107 OA 
ENDROOT
BRANCH   4  13
HETATM   13  C   UNL     1      -8.724   8.719  65.368  1.00  0.00    -0.217 C  
HETATM   14  C   UNL     1      -8.918   7.506  65.906  1.00  0.00    -0.128 C  
BRANCH  14  15
HETATM   15  C   UNL     1      -9.492   7.196  67.171  1.00  0.00    -0.147 A  
HETATM   16  C   UNL     1      -8.922   7.336  68.437  1.00  0.00    -0.126 A  
HETATM   17  N   UNL     1      -9.604   6.715  69.472  1.00  0.00    -0.147 NA 
HETATM   18  S   UNL     1     -11.021   6.409  67.354  1.00  0.00    -0.330 SA 
HETATM   19  C   UNL     1      -7.657   8.042  68.791  1.00  0.00    -0.103 C  
HETATM   20  C   UNL     1     -10.711   6.182  69.016  1.00  0.00    -0.312 A  
ENDBRANCH  14  15
ENDBRANCH   4  13
BRANCH   5  21
HETATM   21  N   UNL     1     -10.244  14.639  66.158  1.00  0.00    -0.287 N  
HETATM   22  C   UNL     1     -10.280  15.981  65.821  1.00  0.00    -0.377 C  
HETATM   23  O   UNL     1     -10.701  16.282  64.702  1.00  0.00    -0.670 OA 
HETATM   24  H   UNL     1     -10.766  14.044  65.513  1.00  0.00     0.000 HD 
BRANCH  22  25
HETATM   25  C   UNL     1     -10.003  17.117  66.786  1.00  0.00    -0.291 C  
BRANCH  25  26
HETATM   26  C   UNL     1      -8.843  18.021  66.583  1.00  0.00    -0.266 A  
HETATM   27  H2  UNL     1      -5.208  19.546  64.922  1.00  0.00     0.000 HD 
HETATM   28  H1  UNL     1      -5.463  17.842  64.535  1.00  0.00     0.000 HD 
HETATM   29  C   UNL     1      -8.805  19.325  67.063  1.00  0.00    -0.293 A  
HETATM   30  N   UNL     1      -7.689  17.668  65.878  1.00  0.00    -0.544 NA 
HETATM   31  S   UNL     1      -7.406  20.139  66.520  1.00  0.00    -0.271 SA 
HETATM   32  N   UNL     1      -5.765  18.696  65.004  1.00  0.00    -0.233 NA 
HETATM   33  C   UNL     1      -6.897  18.704  65.730  1.00  0.00    -0.272 A  
ENDBRANCH  25  26
BRANCH  25  34
HETATM   34  N   UNL     1     -10.782  17.490  67.764  1.00  0.00    -0.372 NA 
HETATM   35  H   UNL     1     -11.433  18.260  67.612  1.00  0.00     0.000 HD 
BRANCH  34  36
HETATM   36  O   UNL     1     -10.750  16.867  69.016  1.00  0.00    -0.328 OA 
HETATM   37  C   UNL     1     -11.682  15.853  69.337  1.00  0.00    -0.343 C  
ENDBRANCH  34  36
ENDBRANCH  25  34
ENDBRANCH  22  25
ENDBRANCH   5  21
TORSDOF 7
ENDMDL
MODEL       75
REMARK 921   NORMALIZED FREE ENERGY PREDICTED BY IDOCK:   -5.53 KCAL/MOL
REMARK 922        TOTAL FREE ENERGY PREDICTED BY IDOCK:   -9.31 KCAL/MOL
REMARK 923 INTER-LIGAND FREE ENERGY PREDICTED BY IDOCK:   -7.94 KCAL/MOL
REMARK 924 INTRA-LIGAND FREE ENERGY PREDICTED BY IDOCK:   -1.37 KCAL/MOL
REMARK 927      BINDING AFFINITY PREDICTED BY RF-SCORE:    0.00 PKD
ROOT
HETATM    1  C   UNL     1      -9.326   9.981  69.607  1.00  0.00    -0.220 C  
HETATM    2  S   UNL     1     -10.549   9.841  70.902  1.00  0.00    -0.184 SA 
HETATM    3  C   UNL     1     -10.616   8.059  70.840  1.00  0.00    -0.213 C  
HETATM    4  C   UNL     1     -10.579   7.415  69.460  1.00  0.00    -0.244 C  
HETATM    5  CA  UNL     1      -9.392  11.295  68.772  1.00  0.00    -0.128 C  
HETATM    6  CA  UNL     1     -10.175   8.022  68.313  1.00  0.00    -0.205 C  
HETATM    7  OXT UNL     1      -9.376   7.680  66.051  1.00  0.00    -0.125 OA 
HETATM    8  N   UNL     1      -9.753   9.327  68.376  1.00  0.00    -0.151 N  
HETATM    9  C   UNL     1     -10.169   7.382  66.934  1.00  0.00    -0.276 C  
HETATM   10  O   UNL     1      -8.798  10.348  66.460  1.00  0.00    -0.136 OA 
HETATM   11  C   UNL     1      -9.250  10.289  67.576  1.00  0.00    -0.141 C  
HETATM   12  O   UNL     1     -11.110   6.438  66.710  1.00  0.00    -0.358 OA 
ENDROOT
BRANCH   4  13
HETATM   13  C   UNL     1     -11.052   6.043  69.594  1.00  0.00    -0.474 C  
HETATM   14  C   UNL     1     -10.517   5.016  70.269  1.00  0.00    -0.243 C  
BRANCH  14  15
HETATM   15  C   UNL     1      -9.332   5.014  71.057  1.00  0.00    -0.152 A  
HETATM   16  C   UNL     1      -9.213   5.152  72.441  1.00  0.00    -0.133 A  
HETATM   17  N   UNL     1      -7.928   5.375  72.912  1.00  0.00    -0.102 NA 
HETATM   18  S   UNL     1      -7.740   4.991  70.381  1.00  0.00    -0.071 SA 
HETATM   19  C   UNL     1     -10.306   5.120  73.454  1.00  0.00    -0.242 C  
HETATM   20  C   UNL     1      -7.077   5.329  71.916  1.00  0.00    -0.079 A  
ENDBRANCH  14  15
ENDBRANCH   4  13
BRANCH   5  21
HETATM   21  N   UNL     1     -10.602  12.157  68.967  1.00  0.00    -0.399 N  
HETATM   22  C   UNL     1     -11.298  13.016  68.134  1.00  0.00    -0.294 C  
HETATM   23  O   UNL     1     -12.404  13.410  68.508  1.00  0.00    -0.194 OA 
HETATM   24  H   UNL     1     -10.992  12.099  69.908  1.00  0.00     0.000 HD 
BRANCH  22  25
HETATM   25  C   UNL     1     -10.728  13.644  66.877  1.00  0.00    -0.275 C  
BRANCH  25  26
HETATM   26  C   UNL     1     -11.018  13.065  65.539  1.00  0.00    -0.274 A  
HETATM   27  H2  UNL     1     -10.347  11.047  61.828  1.00  0.00     0.000 HD 
HETATM   28  H1  UNL     1      -8.844  11.577  62.588  1.00  0.00     0.000 HD 
HETATM   29  C   UNL     1     -12.307  12.808  65.089  1.00  0.00    -0.496 A  
HETATM   30  N   UNL     1     -10.036  12.702  64.614  1.00  0.00    -0.270 NA 
HETATM   31  S   UNL     1     -12.282  11.997  63.587  1.00  0.00    -0.502 SA 
HETATM   32  N   UNL     1      -9.863  11.525  62.588  1.00  0.00    -0.102 NA 
HETATM   33  C   UNL     1     -10.569  12.084  63.586  1.00  0.00    -0.454 A  
ENDBRANCH  25  26
BRANCH  25  34
HETATM   34  N   UNL     1     -10.074  14.771  66.819  1.00  0.00    -0.252 NA 
HETATM   35  H   UNL     1      -9.285  14.917  67.448  1.00  0.00     0.000 HD 
BRANCH  34  36
HETATM   36  O   UNL     1     -10.422  15.785  65.920  1.00  0.00    -0.315 OA 
HETATM   37  C   UNL     1      -9.824  17.062  66.012  1.00  0.00    -0.241 C  
ENDBRANCH  34  36
ENDBRANCH  25  34
ENDBRANCH  22  25
ENDBRANCH   5  21
TORSDOF 7
ENDMDL
MODEL       76
REMARK 921   NORMALIZED FREE ENERGY PREDICTED BY IDOCK:   -5.49 KCAL/MOL
REMARK 922        TOTAL FREE ENERGY PREDICTED BY IDOCK:   -9.24 KCAL/MOL
REMARK 923 INTER-LIGAND FREE ENERGY PREDICTED BY IDOCK:   -7.90 KCAL/MOL
REMARK 924 INTRA-LIGAND FREE ENERGY PREDICTED BY IDOCK:   -1.34 KCAL/MOL
REMARK 927      BINDING AFFINITY PREDICTED BY RF-SCORE:    0.00 PKD
ROOT
HETATM    1  C   UNL     1      -8.368   9.611  68.743  1.00  0.00    -0.111 C  
HETATM    2  S   UNL     1      -8.202   9.420  70.513  1.00  0.00    -0.163 SA 
HETATM    3  C   UNL     1      -7.523   7.772  70.414  1.00  0.00    -0.078 C  
HETATM    4  C   UNL     1      -8.139   6.833  69.385  1.00  0.00    -0.123 C  
HETATM    5  CA  UNL     1      -9.523  10.549  68.284  1.00  0.00    -0.155 C  
HETATM    6  CA  UNL     1      -8.910   7.209  68.331  1.00  0.00    -0.127 C  
HETATM    7  OXT UNL     1      -9.771   6.562  66.160  1.00  0.00    -0.072 OA 
HETATM    8  N   UNL     1      -9.167   8.545  68.150  1.00  0.00    -0.138 N  
HETATM    9  C   UNL     1      -9.546   6.263  67.325  1.00  0.00    -0.123 C  
HETATM   10  O   UNL     1     -10.284   9.274  66.189  1.00  0.00    -0.273 OA 
HETATM   11  C   UNL     1      -9.798   9.368  67.287  1.00  0.00    -0.179 C  
HETATM   12  O   UNL     1      -9.870   5.034  67.785  1.00  0.00    -0.146 OA 
ENDROOT
BRANCH   4  13
HETATM   13  C   UNL     1      -7.755   5.472  69.736  1.00  0.00    -0.078 C  
HETATM   14  C   UNL     1      -8.156   4.708  70.762  1.00  0.00    -0.084 C  
BRANCH  14  15
HETATM   15  C   UNL     1      -9.093   5.039  71.781  1.00  0.00    -0.137 A  
HETATM   16  C   UNL     1      -8.910   5.019  73.164  1.00  0.00    -0.111 A  
HETATM   17  N   UNL     1     -10.065   5.137  73.923  1.00  0.00    -0.183 NA 
HETATM   18  S   UNL     1     -10.755   5.399  71.464  1.00  0.00    -0.145 SA 
HETATM   19  C   UNL     1      -7.630   4.853  73.909  1.00  0.00    -0.094 C  
HETATM   20  C   UNL     1     -11.095   5.323  73.134  1.00  0.00    -0.324 A  
ENDBRANCH  14  15
ENDBRANCH   4  13
BRANCH   5  21
HETATM   21  N   UNL     1     -10.506  10.972  69.332  1.00  0.00    -0.386 N  
HETATM   22  C   UNL     1     -11.323  12.081  69.474  1.00  0.00    -0.228 C  
HETATM   23  O   UNL     1     -12.206  12.038  70.332  1.00  0.00    -0.334 OA 
HETATM   24  H   UNL     1     -10.591  10.305  70.099  1.00  0.00     0.000 HD 
BRANCH  22  25
HETATM   25  C   UNL     1     -11.101  13.407  68.772  1.00  0.00    -0.262 C  
BRANCH  25  26
HETATM   26  C   UNL     1     -11.466  13.581  67.343  1.00  0.00    -0.336 A  
HETATM   27  H2  UNL     1     -13.445  12.899  63.613  1.00  0.00     0.000 HD 
HETATM   28  H1  UNL     1     -13.588  11.524  64.712  1.00  0.00     0.000 HD 
HETATM   29  C   UNL     1     -11.171  14.730  66.620  1.00  0.00    -0.346 A  
HETATM   30  N   UNL     1     -12.157  12.628  66.590  1.00  0.00    -0.539 NA 
HETATM   31  S   UNL     1     -11.868  14.672  65.063  1.00  0.00    -0.358 SA 
HETATM   32  N   UNL     1     -13.229  12.457  64.506  1.00  0.00    -0.771 NA 
HETATM   33  C   UNL     1     -12.472  13.105  65.409  1.00  0.00    -0.481 A  
ENDBRANCH  25  26
BRANCH  25  34
HETATM   34  N   UNL     1     -10.717  14.515  69.344  1.00  0.00    -0.348 NA 
HETATM   35  H   UNL     1      -9.755  14.828  69.218  1.00  0.00     0.000 HD 
BRANCH  34  36
HETATM   36  O   UNL     1     -11.586  15.286  70.124  1.00  0.00    -0.254 OA 
HETATM   37  C   UNL     1     -11.426  15.349  71.527  1.00  0.00    -0.413 C  
ENDBRANCH  34  36
ENDBRANCH  25  34
ENDBRANCH  22  25
ENDBRANCH   5  21
TORSDOF 7
ENDMDL
MODEL       77
REMARK 921   NORMALIZED FREE ENERGY PREDICTED BY IDOCK:   -5.49 KCAL/MOL
REMARK 922        TOTAL FREE ENERGY PREDICTED BY IDOCK:   -9.24 KCAL/MOL
REMARK 923 INTER-LIGAND FREE ENERGY PREDICTED BY IDOCK:   -7.34 KCAL/MOL
REMARK 924 INTRA-LIGAND FREE ENERGY PREDICTED BY IDOCK:   -1.90 KCAL/MOL
REMARK 927      BINDING AFFINITY PREDICTED BY RF-SCORE:    0.00 PKD
ROOT
HETATM    1  C   UNL     1      -9.801   7.877  70.379  1.00  0.00    -0.183 C  
HETATM    2  S   UNL     1     -11.404   7.086  70.357  1.00  0.00    -0.307 SA 
HETATM    3  C   UNL     1     -10.870   5.713  69.349  1.00  0.00    -0.264 C  
HETATM    4  C   UNL     1      -9.922   6.029  68.199  1.00  0.00    -0.168 C  
HETATM    5  CA  UNL     1      -9.829   9.428  70.518  1.00  0.00    -0.270 C  
HETATM    6  CA  UNL     1      -9.194   7.169  68.063  1.00  0.00    -0.130 C  
HETATM    7  OXT UNL     1      -7.276   8.193  66.993  1.00  0.00    -0.080 OA 
HETATM    8  N   UNL     1      -9.298   8.133  69.035  1.00  0.00    -0.148 N  
HETATM    9  C   UNL     1      -8.273   7.489  66.897  1.00  0.00    -0.124 C  
HETATM   10  O   UNL     1      -7.860  10.018  68.980  1.00  0.00    -0.087 OA 
HETATM   11  C   UNL     1      -8.781   9.337  69.353  1.00  0.00    -0.148 C  
HETATM   12  O   UNL     1      -8.611   6.952  65.704  1.00  0.00    -0.149 OA 
ENDROOT
BRANCH   4  13
HETATM   13  C   UNL     1      -9.941   4.898  67.281  1.00  0.00    -0.220 C  
HETATM   14  C   UNL     1      -9.145   3.820  67.235  1.00  0.00    -0.181 C  
BRANCH  14  15
HETATM   15  C   UNL     1      -8.065   3.497  68.105  1.00  0.00    -0.078 A  
HETATM   16  C   UNL     1      -8.113   2.855  69.342  1.00  0.00    -0.047 A  
HETATM   17  N   UNL     1      -6.945   2.903  70.088  1.00  0.00    -0.034 NA 
HETATM   18  S   UNL     1      -6.436   4.009  67.828  1.00  0.00    -0.038 SA 
HETATM   19  C   UNL     1      -9.279   2.159  69.959  1.00  0.00    -0.183 C  
HETATM   20  C   UNL     1      -6.005   3.500  69.399  1.00  0.00    -0.023 A  
ENDBRANCH  14  15
ENDBRANCH   4  13
BRANCH   5  21
HETATM   21  N   UNL     1     -11.161  10.095  70.360  1.00  0.00    -0.308 N  
HETATM   22  C   UNL     1     -11.691  10.939  69.398  1.00  0.00    -0.325 C  
HETATM   23  O   UNL     1     -12.907  11.139  69.415  1.00  0.00    -0.145 OA 
HETATM   24  H   UNL     1     -11.812   9.884  71.117  1.00  0.00     0.000 HD 
BRANCH  22  25
HETATM   25  C   UNL     1     -10.865  11.770  68.436  1.00  0.00    -0.223 C  
BRANCH  25  26
HETATM   26  C   UNL     1     -11.100  11.693  66.971  1.00  0.00    -0.302 A  
HETATM   27  H2  UNL     1     -12.652  12.701  63.115  1.00  0.00     0.000 HD 
HETATM   28  H1  UNL     1     -13.586  13.424  64.427  1.00  0.00     0.000 HD 
HETATM   29  C   UNL     1     -10.280  10.975  66.109  1.00  0.00    -0.247 A  
HETATM   30  N   UNL     1     -12.144  12.345  66.310  1.00  0.00    -0.630 NA 
HETATM   31  S   UNL     1     -10.730  11.226  64.482  1.00  0.00    -0.292 SA 
HETATM   32  N   UNL     1     -12.818  12.831  64.112  1.00  0.00    -0.710 NA 
HETATM   33  C   UNL     1     -12.023  12.222  65.009  1.00  0.00    -0.354 A  
ENDBRANCH  25  26
BRANCH  25  34
HETATM   34  N   UNL     1     -10.004  12.690  68.771  1.00  0.00    -0.424 NA 
HETATM   35  H   UNL     1      -9.108  12.408  69.168  1.00  0.00     0.000 HD 
BRANCH  34  36
HETATM   36  O   UNL     1     -10.272  14.053  68.603  1.00  0.00    -0.236 OA 
HETATM   37  C   UNL     1     -11.346  14.663  69.289  1.00  0.00    -0.286 C  
ENDBRANCH  34  36
ENDBRANCH  25  34
ENDBRANCH  22  25
ENDBRANCH   5  21
TORSDOF 7
ENDMDL
MODEL       78
REMARK 921   NORMALIZED FREE ENERGY PREDICTED BY IDOCK:   -5.48 KCAL/MOL
REMARK 922        TOTAL FREE ENERGY PREDICTED BY IDOCK:   -9.23 KCAL/MOL
REMARK 923 INTER-LIGAND FREE ENERGY PREDICTED BY IDOCK:   -7.73 KCAL/MOL
REMARK 924 INTRA-LIGAND FREE ENERGY PREDICTED BY IDOCK:   -1.50 KCAL/MOL
REMARK 927      BINDING AFFINITY PREDICTED BY RF-SCORE:    0.00 PKD
ROOT
HETATM    1  C   UNL     1      -7.328  14.048  67.247  1.00  0.00     0.003 C  
HETATM    2  S   UNL     1      -6.916  13.209  68.771  1.00  0.00    -0.094 SA 
HETATM    3  C   UNL     1      -8.267  12.049  68.663  1.00  0.00    -0.052 C  
HETATM    4  C   UNL     1      -9.606  12.592  68.181  1.00  0.00    -0.215 C  
HETATM    5  CA  UNL     1      -6.924  15.551  67.188  1.00  0.00    -0.090 C  
HETATM    6  CA  UNL     1      -9.794  13.766  67.523  1.00  0.00    -0.230 C  
HETATM    7  OXT UNL     1     -11.282  15.031  66.088  1.00  0.00    -0.342 OA 
HETATM    8  N   UNL     1      -8.698  14.547  67.250  1.00  0.00    -0.198 N  
HETATM    9  C   UNL     1     -11.137  14.315  67.070  1.00  0.00    -0.312 C  
HETATM   10  O   UNL     1      -8.935  16.470  65.883  1.00  0.00    -0.461 OA 
HETATM   11  C   UNL     1      -8.382  15.700  66.626  1.00  0.00    -0.275 C  
HETATM   12  O   UNL     1     -12.206  13.974  67.824  1.00  0.00    -0.334 OA 
ENDROOT
BRANCH   4  13
HETATM   13  C   UNL     1     -10.637  11.632  68.552  1.00  0.00    -0.241 C  
HETATM   14  C   UNL     1     -10.781  10.348  68.192  1.00  0.00    -0.277 C  
BRANCH  14  15
HETATM   15  C   UNL     1      -9.929   9.580  67.349  1.00  0.00    -0.189 A  
HETATM   16  C   UNL     1      -9.763   9.678  65.967  1.00  0.00    -0.264 A  
HETATM   17  N   UNL     1      -9.069   8.636  65.372  1.00  0.00    -0.143 NA 
HETATM   18  S   UNL     1      -9.019   8.218  67.904  1.00  0.00    -0.133 SA 
HETATM   19  C   UNL     1     -10.273  10.750  65.065  1.00  0.00    -0.373 C  
HETATM   20  C   UNL     1      -8.647   7.803  66.292  1.00  0.00    -0.150 A  
ENDBRANCH  14  15
ENDBRANCH   4  13
BRANCH   5  21
HETATM   21  N   UNL     1      -6.482  16.182  68.472  1.00  0.00    -0.114 N  
HETATM   22  C   UNL     1      -6.545  17.474  68.965  1.00  0.00    -0.243 C  
HETATM   23  O   UNL     1      -6.311  17.646  70.163  1.00  0.00    -0.062 OA 
HETATM   24  H   UNL     1      -6.044  15.523  69.117  1.00  0.00     0.000 HD 
BRANCH  22  25
HETATM   25  C   UNL     1      -6.709  18.714  68.107  1.00  0.00    -0.224 C  
BRANCH  25  26
HETATM   26  C   UNL     1      -8.059  19.197  67.721  1.00  0.00    -0.278 A  
HETATM   27  H2  UNL     1     -11.325  20.342  65.208  1.00  0.00     0.000 HD 
HETATM   28  H1  UNL     1      -9.789  20.304  64.339  1.00  0.00     0.000 HD 
HETATM   29  C   UNL     1      -9.132  19.234  68.604  1.00  0.00    -0.380 A  
HETATM   30  N   UNL     1      -8.395  19.639  66.439  1.00  0.00    -0.340 NA 
HETATM   31  S   UNL     1     -10.571  19.685  67.803  1.00  0.00    -0.323 SA 
HETATM   32  N   UNL     1     -10.316  20.197  65.206  1.00  0.00    -0.121 NA 
HETATM   33  C   UNL     1      -9.685  19.865  66.345  1.00  0.00    -0.447 A  
ENDBRANCH  25  26
BRANCH  25  34
HETATM   34  N   UNL     1      -5.751  19.523  67.749  1.00  0.00    -0.194 NA 
HETATM   35  H   UNL     1      -5.092  19.221  67.032  1.00  0.00     0.000 HD 
BRANCH  34  36
HETATM   36  O   UNL     1      -5.600  20.792  68.318  1.00  0.00    -0.259 OA 
HETATM   37  C   UNL     1      -5.192  20.931  69.664  1.00  0.00    -0.375 C  
ENDBRANCH  34  36
ENDBRANCH  25  34
ENDBRANCH  22  25
ENDBRANCH   5  21
TORSDOF 7
ENDMDL
MODEL       79
REMARK 921   NORMALIZED FREE ENERGY PREDICTED BY IDOCK:   -5.45 KCAL/MOL
REMARK 922        TOTAL FREE ENERGY PREDICTED BY IDOCK:   -9.19 KCAL/MOL
REMARK 923 INTER-LIGAND FREE ENERGY PREDICTED BY IDOCK:   -7.85 KCAL/MOL
REMARK 924 INTRA-LIGAND FREE ENERGY PREDICTED BY IDOCK:   -1.34 KCAL/MOL
REMARK 927      BINDING AFFINITY PREDICTED BY RF-SCORE:    0.00 PKD
ROOT
HETATM    1  C   UNL     1      -8.793   8.980  67.418  1.00  0.00    -0.118 C  
HETATM    2  S   UNL     1     -10.103   9.223  66.226  1.00  0.00    -0.198 SA 
HETATM    3  C   UNL     1     -10.806  10.628  67.072  1.00  0.00    -0.238 C  
HETATM    4  C   UNL     1     -10.873  10.555  68.592  1.00  0.00    -0.276 C  
HETATM    5  CA  UNL     1      -8.298   7.512  67.570  1.00  0.00    -0.117 C  
HETATM    6  CA  UNL     1     -10.168   9.697  69.376  1.00  0.00    -0.209 C  
HETATM    7  OXT UNL     1      -9.335   9.265  71.610  1.00  0.00    -0.301 OA 
HETATM    8  N   UNL     1      -9.310   8.812  68.772  1.00  0.00    -0.141 N  
HETATM    9  C   UNL     1     -10.263   9.611  70.891  1.00  0.00    -0.232 C  
HETATM   10  O   UNL     1      -7.870   7.477  70.101  1.00  0.00    -0.095 OA 
HETATM   11  C   UNL     1      -8.417   7.855  69.097  1.00  0.00    -0.137 C  
HETATM   12  O   UNL     1     -11.456   9.938  71.434  1.00  0.00    -0.371 OA 
ENDROOT
BRANCH   4  13
HETATM   13  C   UNL     1     -11.822  11.563  69.046  1.00  0.00    -0.408 C  
HETATM   14  C   UNL     1     -11.905  12.864  68.732  1.00  0.00    -0.353 C  
BRANCH  14  15
HETATM   15  C   UNL     1     -11.073  13.599  67.841  1.00  0.00    -0.261 A  
HETATM   16  C   UNL     1     -11.337  13.976  66.524  1.00  0.00    -0.336 A  
HETATM   17  N   UNL     1     -10.250  14.457  65.809  1.00  0.00    -0.320 NA 
HETATM   18  S   UNL     1      -9.443  14.044  68.211  1.00  0.00    -0.217 SA 
HETATM   19  C   UNL     1     -12.636  13.889  65.797  1.00  0.00    -0.533 C  
HETATM   20  C   UNL     1      -9.200  14.519  66.590  1.00  0.00    -0.266 A  
ENDBRANCH  14  15
ENDBRANCH   4  13
BRANCH   5  21
HETATM   21  N   UNL     1      -9.125   6.450  66.911  1.00  0.00    -0.129 N  
HETATM   22  C   UNL     1      -9.900   5.412  67.399  1.00  0.00    -0.154 C  
HETATM   23  O   UNL     1     -10.660   4.842  66.614  1.00  0.00    -0.256 OA 
HETATM   24  H   UNL     1      -9.114   6.503  65.892  1.00  0.00     0.000 HD 
BRANCH  22  25
HETATM   25  C   UNL     1      -9.758   4.812  68.784  1.00  0.00    -0.167 C  
BRANCH  25  26
HETATM   26  C   UNL     1     -10.477   5.397  69.944  1.00  0.00    -0.308 A  
HETATM   27  H2  UNL     1     -13.577   7.348  72.153  1.00  0.00     0.000 HD 
HETATM   28  H1  UNL     1     -13.715   7.621  70.414  1.00  0.00     0.000 HD 
HETATM   29  C   UNL     1     -10.141   5.118  71.264  1.00  0.00    -0.210 A  
HETATM   30  N   UNL     1     -11.569   6.262  69.833  1.00  0.00    -0.402 NA 
HETATM   31  S   UNL     1     -11.261   5.819  72.344  1.00  0.00    -0.286 SA 
HETATM   32  N   UNL     1     -13.219   7.215  71.207  1.00  0.00    -0.342 NA 
HETATM   33  C   UNL     1     -12.095   6.504  71.010  1.00  0.00    -0.243 A  
ENDBRANCH  25  26
BRANCH  25  34
HETATM   34  N   UNL     1      -9.136   3.701  69.071  1.00  0.00    -0.127 NA 
HETATM   35  H   UNL     1      -9.622   2.990  69.618  1.00  0.00     0.000 HD 
BRANCH  34  36
HETATM   36  O   UNL     1      -7.824   3.456  68.652  1.00  0.00    -0.055 OA 
HETATM   37  C   UNL     1      -6.759   4.256  69.124  1.00  0.00    -0.045 C  
ENDBRANCH  34  36
ENDBRANCH  25  34
ENDBRANCH  22  25
ENDBRANCH   5  21
TORSDOF 7
ENDMDL
MODEL       80
REMARK 921   NORMALIZED FREE ENERGY PREDICTED BY IDOCK:   -5.42 KCAL/MOL
REMARK 922        TOTAL FREE ENERGY PREDICTED BY IDOCK:   -9.15 KCAL/MOL
REMARK 923 INTER-LIGAND FREE ENERGY PREDICTED BY IDOCK:   -7.40 KCAL/MOL
REMARK 924 INTRA-LIGAND FREE ENERGY PREDICTED BY IDOCK:   -1.75 KCAL/MOL
REMARK 927      BINDING AFFINITY PREDICTED BY RF-SCORE:    0.00 PKD
ROOT
HETATM    1  C   UNL     1      -8.495   9.788  66.650  1.00  0.00    -0.124 C  
HETATM    2  S   UNL     1      -9.169   9.709  64.996  1.00  0.00    -0.243 SA 
HETATM    3  C   UNL     1     -10.151  11.188  65.174  1.00  0.00    -0.281 C  
HETATM    4  C   UNL     1     -10.859  11.390  66.507  1.00  0.00    -0.334 C  
HETATM    5  CA  UNL     1      -8.126   8.413  67.281  1.00  0.00    -0.105 C  
HETATM    6  CA  UNL     1     -10.564  10.745  67.667  1.00  0.00    -0.231 C  
HETATM    7  OXT UNL     1     -10.766  10.794  70.081  1.00  0.00    -0.188 OA 
HETATM    8  N   UNL     1      -9.539   9.832  67.666  1.00  0.00    -0.143 N  
HETATM    9  C   UNL     1     -11.295  10.931  68.987  1.00  0.00    -0.281 C  
HETATM   10  O   UNL     1      -8.816   8.875  69.711  1.00  0.00    -0.135 OA 
HETATM   11  C   UNL     1      -8.880   9.020  68.517  1.00  0.00    -0.134 C  
HETATM   12  O   UNL     1     -12.603  11.262  68.903  1.00  0.00    -0.327 OA 
ENDROOT
BRANCH   4  13
HETATM   13  C   UNL     1     -11.901  12.390  66.313  1.00  0.00    -0.431 C  
HETATM   14  C   UNL     1     -11.904  13.695  66.624  1.00  0.00    -0.447 C  
BRANCH  14  15
HETATM   15  C   UNL     1     -10.856  14.450  67.222  1.00  0.00    -0.290 A  
HETATM   16  C   UNL     1     -10.823  15.029  68.491  1.00  0.00    -0.250 A  
HETATM   17  N   UNL     1      -9.788  15.924  68.713  1.00  0.00    -0.207 NA 
HETATM   18  S   UNL     1      -9.428  14.931  66.374  1.00  0.00    -0.308 SA 
HETATM   19  C   UNL     1     -11.786  14.820  69.610  1.00  0.00    -0.354 C  
HETATM   20  C   UNL     1      -9.005  15.965  67.664  1.00  0.00    -0.190 A  
ENDBRANCH  14  15
ENDBRANCH   4  13
BRANCH   5  21
HETATM   21  N   UNL     1      -8.604   7.190  66.561  1.00  0.00    -0.124 N  
HETATM   22  C   UNL     1      -9.132   5.983  66.988  1.00  0.00    -0.117 C  
HETATM   23  O   UNL     1      -9.659   5.255  66.145  1.00  0.00    -0.153 OA 
HETATM   24  H   UNL     1      -8.525   7.261  65.546  1.00  0.00     0.000 HD 
BRANCH  22  25
HETATM   25  C   UNL     1      -8.956   5.414  68.382  1.00  0.00    -0.108 C  
BRANCH  25  26
HETATM   26  C   UNL     1      -9.886   5.786  69.478  1.00  0.00    -0.178 A  
HETATM   27  H2  UNL     1     -11.228   6.778  73.417  1.00  0.00     0.000 HD 
HETATM   28  H1  UNL     1      -9.648   5.989  73.422  1.00  0.00     0.000 HD 
HETATM   29  C   UNL     1     -11.151   6.317  69.251  1.00  0.00    -0.393 A  
HETATM   30  N   UNL     1      -9.584   5.666  70.837  1.00  0.00    -0.165 NA 
HETATM   31  S   UNL     1     -11.892   6.784  70.716  1.00  0.00    -0.369 SA 
HETATM   32  N   UNL     1     -10.461   6.334  72.912  1.00  0.00    -0.207 NA 
HETATM   33  C   UNL     1     -10.526   6.204  71.575  1.00  0.00    -0.222 A  
ENDBRANCH  25  26
BRANCH  25  34
HETATM   34  N   UNL     1      -8.105   4.485  68.723  1.00  0.00    -0.081 NA 
HETATM   35  H   UNL     1      -7.380   4.706  69.405  1.00  0.00     0.000 HD 
BRANCH  34  36
HETATM   36  O   UNL     1      -8.157   3.197  68.181  1.00  0.00    -0.072 OA 
HETATM   37  C   UNL     1      -9.305   2.391  68.353  1.00  0.00    -0.204 C  
ENDBRANCH  34  36
ENDBRANCH  25  34
ENDBRANCH  22  25
ENDBRANCH   5  21
TORSDOF 7
ENDMDL
MODEL       81
REMARK 921   NORMALIZED FREE ENERGY PREDICTED BY IDOCK:   -5.38 KCAL/MOL
REMARK 922        TOTAL FREE ENERGY PREDICTED BY IDOCK:   -9.10 KCAL/MOL
REMARK 923 INTER-LIGAND FREE ENERGY PREDICTED BY IDOCK:   -7.43 KCAL/MOL
REMARK 924 INTRA-LIGAND FREE ENERGY PREDICTED BY IDOCK:   -1.67 KCAL/MOL
REMARK 927      BINDING AFFINITY PREDICTED BY RF-SCORE:    0.00 PKD
ROOT
HETATM    1  C   UNL     1     -10.533   8.562  68.142  1.00  0.00    -0.182 C  
HETATM    2  S   UNL     1      -8.941   7.757  68.254  1.00  0.00    -0.130 SA 
HETATM    3  C   UNL     1      -9.490   6.521  69.419  1.00  0.00    -0.145 C  
HETATM    4  C   UNL     1     -10.429   6.985  70.525  1.00  0.00    -0.227 C  
HETATM    5  CA  UNL     1     -10.484  10.085  67.820  1.00  0.00    -0.234 C  
HETATM    6  CA  UNL     1     -11.140   8.143  70.527  1.00  0.00    -0.253 C  
HETATM    7  OXT UNL     1     -13.039   9.314  71.473  1.00  0.00    -0.337 OA 
HETATM    8  N   UNL     1     -11.027   8.983  69.448  1.00  0.00    -0.131 N  
HETATM    9  C   UNL     1     -12.052   8.613  71.650  1.00  0.00    -0.326 C  
HETATM   10  O   UNL     1     -12.438  10.882  69.282  1.00  0.00    -0.392 OA 
HETATM   11  C   UNL     1     -11.529  10.148  68.990  1.00  0.00    -0.078 C  
HETATM   12  O   UNL     1     -11.716   8.216  72.897  1.00  0.00    -0.373 OA 
ENDROOT
BRANCH   4  13
HETATM   13  C   UNL     1     -10.422   5.970  71.572  1.00  0.00    -0.278 C  
HETATM   14  C   UNL     1      -9.549   5.777  72.571  1.00  0.00    -0.168 C  
BRANCH  14  15
HETATM   15  C   UNL     1      -8.390   6.546  72.876  1.00  0.00    -0.115 A  
HETATM   16  C   UNL     1      -7.063   6.285  72.532  1.00  0.00    -0.083 A  
HETATM   17  N   UNL     1      -6.113   7.060  73.180  1.00  0.00    -0.057 NA 
HETATM   18  S   UNL     1      -8.414   7.933  73.909  1.00  0.00    -0.263 SA 
HETATM   19  C   UNL     1      -6.558   5.253  71.582  1.00  0.00    -0.040 C  
HETATM   20  C   UNL     1      -6.709   7.946  73.940  1.00  0.00    -0.105 A  
ENDBRANCH  14  15
ENDBRANCH   4  13
BRANCH   5  21
HETATM   21  N   UNL     1      -9.142  10.747  67.894  1.00  0.00    -0.147 N  
HETATM   22  C   UNL     1      -8.732  12.068  67.830  1.00  0.00    -0.170 C  
HETATM   23  O   UNL     1      -7.573  12.327  68.162  1.00  0.00    -0.108 OA 
HETATM   24  H   UNL     1      -8.372  10.089  68.018  1.00  0.00     0.000 HD 
BRANCH  22  25
HETATM   25  C   UNL     1      -9.545  13.192  67.218  1.00  0.00    -0.233 C  
BRANCH  25  26
HETATM   26  C   UNL     1     -10.190  14.218  68.077  1.00  0.00    -0.226 A  
HETATM   27  H2  UNL     1     -12.901  15.925  70.911  1.00  0.00     0.000 HD 
HETATM   28  H1  UNL     1     -13.477  14.383  70.273  1.00  0.00     0.000 HD 
HETATM   29  C   UNL     1      -9.591  15.433  68.387  1.00  0.00    -0.200 A  
HETATM   30  N   UNL     1     -11.444  14.062  68.675  1.00  0.00    -0.281 NA 
HETATM   31  S   UNL     1     -10.523  16.305  69.520  1.00  0.00    -0.294 SA 
HETATM   32  N   UNL     1     -12.779  15.126  70.289  1.00  0.00    -0.330 NA 
HETATM   33  C   UNL     1     -11.698  15.056  69.493  1.00  0.00    -0.322 A  
ENDBRANCH  25  26
BRANCH  25  34
HETATM   34  N   UNL     1      -9.650  13.448  65.943  1.00  0.00    -0.480 NA 
HETATM   35  H   UNL     1      -8.801  13.589  65.396  1.00  0.00     0.000 HD 
BRANCH  34  36
HETATM   36  O   UNL     1     -10.891  13.536  65.304  1.00  0.00    -0.291 OA 
HETATM   37  C   UNL     1     -11.814  12.468  65.380  1.00  0.00    -0.428 C  
ENDBRANCH  34  36
ENDBRANCH  25  34
ENDBRANCH  22  25
ENDBRANCH   5  21
TORSDOF 7
ENDMDL
MODEL       82
REMARK 921   NORMALIZED FREE ENERGY PREDICTED BY IDOCK:   -5.37 KCAL/MOL
REMARK 922        TOTAL FREE ENERGY PREDICTED BY IDOCK:   -9.08 KCAL/MOL
REMARK 923 INTER-LIGAND FREE ENERGY PREDICTED BY IDOCK:   -7.53 KCAL/MOL
REMARK 924 INTRA-LIGAND FREE ENERGY PREDICTED BY IDOCK:   -1.55 KCAL/MOL
REMARK 927      BINDING AFFINITY PREDICTED BY RF-SCORE:    0.00 PKD
ROOT
HETATM    1  C   UNL     1      -7.829   8.610  69.427  1.00  0.00    -0.096 C  
HETATM    2  S   UNL     1      -6.681   9.476  70.489  1.00  0.00    -0.113 SA 
HETATM    3  C   UNL     1      -7.146   8.579  71.960  1.00  0.00    -0.084 C  
HETATM    4  C   UNL     1      -8.630   8.295  72.154  1.00  0.00    -0.249 C  
HETATM    5  CA  UNL     1      -8.349   9.428  68.208  1.00  0.00    -0.119 C  
HETATM    6  CA  UNL     1      -9.582   8.359  71.186  1.00  0.00    -0.177 C  
HETATM    7  OXT UNL     1     -11.806   7.657  70.528  1.00  0.00    -0.210 OA 
HETATM    8  N   UNL     1      -9.200   8.701  69.913  1.00  0.00    -0.152 N  
HETATM    9  C   UNL     1     -11.066   8.103  71.395  1.00  0.00    -0.247 C  
HETATM   10  O   UNL     1     -10.770   8.576  68.140  1.00  0.00    -0.157 OA 
HETATM   11  C   UNL     1      -9.729   8.848  68.681  1.00  0.00    -0.161 C  
HETATM   12  O   UNL     1     -11.558   8.403  72.618  1.00  0.00    -0.385 OA 
ENDROOT
BRANCH   4  13
HETATM   13  C   UNL     1      -8.840   7.947  73.554  1.00  0.00    -0.333 C  
HETATM   14  C   UNL     1      -9.109   6.756  74.108  1.00  0.00    -0.219 C  
BRANCH  14  15
HETATM   15  C   UNL     1      -9.246   5.501  73.452  1.00  0.00    -0.131 A  
HETATM   16  C   UNL     1      -8.263   4.753  72.802  1.00  0.00    -0.101 A  
HETATM   17  N   UNL     1      -8.727   3.699  72.029  1.00  0.00    -0.090 NA 
HETATM   18  S   UNL     1     -10.768   4.718  73.205  1.00  0.00    -0.268 SA 
HETATM   19  C   UNL     1      -6.790   4.980  72.819  1.00  0.00    -0.071 C  
HETATM   20  C   UNL     1     -10.027   3.598  72.152  1.00  0.00    -0.168 A  
ENDBRANCH  14  15
ENDBRANCH   4  13
BRANCH   5  21
HETATM   21  N   UNL     1      -8.045  10.894  68.200  1.00  0.00    -0.114 N  
HETATM   22  C   UNL     1      -8.840  12.028  68.225  1.00  0.00    -0.182 C  
HETATM   23  O   UNL     1      -8.293  13.109  68.452  1.00  0.00    -0.157 OA 
HETATM   24  H   UNL     1      -7.046  11.100  68.171  1.00  0.00     0.000 HD 
BRANCH  22  25
HETATM   25  C   UNL     1     -10.301  12.061  67.824  1.00  0.00    -0.197 C  
BRANCH  25  26
HETATM   26  C   UNL     1     -10.700  11.959  66.396  1.00  0.00    -0.266 A  
HETATM   27  H2  UNL     1     -13.075  12.415  62.869  1.00  0.00     0.000 HD 
HETATM   28  H1  UNL     1     -14.015  12.639  64.347  1.00  0.00     0.000 HD 
HETATM   29  C   UNL     1      -9.800  11.673  65.377  1.00  0.00    -0.238 A  
HETATM   30  N   UNL     1     -12.002  12.158  65.931  1.00  0.00    -0.571 NA 
HETATM   31  S   UNL     1     -10.548  11.790  63.847  1.00  0.00    -0.439 SA 
HETATM   32  N   UNL     1     -13.130  12.424  63.887  1.00  0.00    -0.735 NA 
HETATM   33  C   UNL     1     -12.036  12.152  64.619  1.00  0.00    -0.323 A  
ENDBRANCH  25  26
BRANCH  25  34
HETATM   34  N   UNL     1     -11.316  12.046  68.644  1.00  0.00    -0.251 NA 
HETATM   35  H   UNL     1     -11.844  11.182  68.760  1.00  0.00     0.000 HD 
BRANCH  34  36
HETATM   36  O   UNL     1     -11.702  13.180  69.367  1.00  0.00    -0.294 OA 
HETATM   37  C   UNL     1     -12.482  13.053  70.538  1.00  0.00    -0.231 C  
ENDBRANCH  34  36
ENDBRANCH  25  34
ENDBRANCH  22  25
ENDBRANCH   5  21
TORSDOF 7
ENDMDL
MODEL       83
REMARK 921   NORMALIZED FREE ENERGY PREDICTED BY IDOCK:   -5.35 KCAL/MOL
REMARK 922        TOTAL FREE ENERGY PREDICTED BY IDOCK:   -9.06 KCAL/MOL
REMARK 923 INTER-LIGAND FREE ENERGY PREDICTED BY IDOCK:   -7.41 KCAL/MOL
REMARK 924 INTRA-LIGAND FREE ENERGY PREDICTED BY IDOCK:   -1.65 KCAL/MOL
REMARK 927      BINDING AFFINITY PREDICTED BY RF-SCORE:    0.00 PKD
ROOT
HETATM    1  C   UNL     1      -9.550  12.084  68.299  1.00  0.00    -0.204 C  
HETATM    2  S   UNL     1     -11.235  11.694  67.847  1.00  0.00    -0.294 SA 
HETATM    3  C   UNL     1     -10.895   9.975  67.505  1.00  0.00    -0.265 C  
HETATM    4  C   UNL     1      -9.593   9.661  66.780  1.00  0.00    -0.225 C  
HETATM    5  CA  UNL     1      -9.114  13.554  68.026  1.00  0.00    -0.201 C  
HETATM    6  CA  UNL     1      -8.529  10.499  66.662  1.00  0.00    -0.129 C  
HETATM    7  OXT UNL     1      -6.153  10.653  66.212  1.00  0.00    -0.087 OA 
HETATM    8  N   UNL     1      -8.606  11.740  67.242  1.00  0.00    -0.155 N  
HETATM    9  C   UNL     1      -7.244  10.188  65.911  1.00  0.00    -0.121 C  
HETATM   10  O   UNL     1      -6.690  13.137  67.289  1.00  0.00    -0.144 OA 
HETATM   11  C   UNL     1      -7.849  12.841  67.428  1.00  0.00    -0.172 C  
HETATM   12  O   UNL     1      -7.358   9.352  64.855  1.00  0.00    -0.100 OA 
ENDROOT
BRANCH   4  13
HETATM   13  C   UNL     1      -9.697   8.311  66.240  1.00  0.00    -0.253 C  
HETATM   14  C   UNL     1      -9.523   7.130  66.851  1.00  0.00    -0.200 C  
BRANCH  14  15
HETATM   15  C   UNL     1      -9.201   6.895  68.218  1.00  0.00    -0.123 A  
HETATM   16  C   UNL     1      -7.941   6.848  68.814  1.00  0.00    -0.120 A  
HETATM   17  N   UNL     1      -7.908   6.344  70.105  1.00  0.00    -0.105 NA 
HETATM   18  S   UNL     1     -10.376   6.455  69.409  1.00  0.00    -0.231 SA 
HETATM   19  C   UNL     1      -6.636   7.243  68.211  1.00  0.00    -0.049 C  
HETATM   20  C   UNL     1      -9.127   6.089  70.512  1.00  0.00    -0.149 A  
ENDBRANCH  14  15
ENDBRANCH   4  13
BRANCH   5  21
HETATM   21  N   UNL     1     -10.041  14.389  67.197  1.00  0.00    -0.251 N  
HETATM   22  C   UNL     1     -10.585  15.651  67.364  1.00  0.00    -0.301 C  
HETATM   23  O   UNL     1     -11.132  16.175  66.392  1.00  0.00    -0.110 OA 
HETATM   24  H   UNL     1     -10.332  13.934  66.331  1.00  0.00     0.000 HD 
BRANCH  22  25
HETATM   25  C   UNL     1     -10.711  16.364  68.697  1.00  0.00    -0.317 C  
BRANCH  25  26
HETATM   26  C   UNL     1     -11.359  15.698  69.856  1.00  0.00    -0.337 A  
HETATM   27  H2  UNL     1     -13.022  12.568  72.249  1.00  0.00     0.000 HD 
HETATM   28  H1  UNL     1     -12.890  12.116  70.548  1.00  0.00     0.000 HD 
HETATM   29  C   UNL     1     -11.441  16.281  71.115  1.00  0.00    -0.314 A  
HETATM   30  N   UNL     1     -11.928  14.423  69.809  1.00  0.00    -0.312 NA 
HETATM   31  S   UNL     1     -12.097  15.191  72.254  1.00  0.00    -0.404 SA 
HETATM   32  N   UNL     1     -12.773  12.806  71.290  1.00  0.00    -0.336 NA 
HETATM   33  C   UNL     1     -12.293  14.030  71.007  1.00  0.00    -0.369 A  
ENDBRANCH  25  26
BRANCH  25  34
HETATM   34  N   UNL     1     -10.176  17.515  68.998  1.00  0.00    -0.345 NA 
HETATM   35  H   UNL     1      -9.570  17.580  69.815  1.00  0.00     0.000 HD 
BRANCH  34  36
HETATM   36  O   UNL     1     -10.408  18.663  68.232  1.00  0.00    -0.374 OA 
HETATM   37  C   UNL     1      -9.328  19.385  67.676  1.00  0.00    -0.309 C  
ENDBRANCH  34  36
ENDBRANCH  25  34
ENDBRANCH  22  25
ENDBRANCH   5  21
TORSDOF 7
ENDMDL
MODEL       84
REMARK 921   NORMALIZED FREE ENERGY PREDICTED BY IDOCK:   -5.35 KCAL/MOL
REMARK 922        TOTAL FREE ENERGY PREDICTED BY IDOCK:   -9.05 KCAL/MOL
REMARK 923 INTER-LIGAND FREE ENERGY PREDICTED BY IDOCK:   -8.27 KCAL/MOL
REMARK 924 INTRA-LIGAND FREE ENERGY PREDICTED BY IDOCK:   -0.78 KCAL/MOL
REMARK 927      BINDING AFFINITY PREDICTED BY RF-SCORE:    0.00 PKD
ROOT
HETATM    1  C   UNL     1      -9.099  13.537  67.090  1.00  0.00    -0.232 C  
HETATM    2  S   UNL     1     -10.343  14.753  66.679  1.00  0.00    -0.280 SA 
HETATM    3  C   UNL     1      -9.190  15.883  65.918  1.00  0.00    -0.297 C  
HETATM    4  C   UNL     1      -7.843  16.061  66.606  1.00  0.00    -0.266 C  
HETATM    5  CA  UNL     1      -9.404  12.677  68.351  1.00  0.00    -0.148 C  
HETATM    6  CA  UNL     1      -7.309  15.221  67.532  1.00  0.00    -0.196 C  
HETATM    7  OXT UNL     1      -5.273  14.501  68.631  1.00  0.00    -0.086 OA 
HETATM    8  N   UNL     1      -8.022  14.105  67.892  1.00  0.00    -0.141 N  
HETATM    9  C   UNL     1      -5.976  15.421  68.235  1.00  0.00    -0.119 C  
HETATM   10  O   UNL     1      -7.027  12.479  69.303  1.00  0.00    -0.068 OA 
HETATM   11  C   UNL     1      -7.908  13.018  68.682  1.00  0.00    -0.050 C  
HETATM   12  O   UNL     1      -5.585  16.702  68.419  1.00  0.00    -0.116 OA 
ENDROOT
BRANCH   4  13
HETATM   13  C   UNL     1      -7.238  17.285  66.095  1.00  0.00    -0.304 C  
HETATM   14  C   UNL     1      -7.557  18.563  66.341  1.00  0.00    -0.287 C  
BRANCH  14  15
HETATM   15  C   UNL     1      -8.581  19.057  67.198  1.00  0.00    -0.281 A  
HETATM   16  C   UNL     1      -8.505  19.340  68.563  1.00  0.00    -0.366 A  
HETATM   17  N   UNL     1      -9.718  19.558  69.197  1.00  0.00    -0.395 NA 
HETATM   18  S   UNL     1     -10.224  19.257  66.698  1.00  0.00    -0.460 SA 
HETATM   19  C   UNL     1      -7.281  19.399  69.411  1.00  0.00    -0.276 C  
HETATM   20  C   UNL     1     -10.690  19.522  68.318  1.00  0.00    -0.039 A  
ENDBRANCH  14  15
ENDBRANCH   4  13
BRANCH   5  21
HETATM   21  N   UNL     1     -10.547  13.122  69.211  1.00  0.00    -0.436 N  
HETATM   22  C   UNL     1     -11.547  12.443  69.886  1.00  0.00    -0.186 C  
HETATM   23  O   UNL     1     -12.212  13.071  70.712  1.00  0.00    -0.363 OA 
HETATM   24  H   UNL     1     -10.598  14.136  69.322  1.00  0.00     0.000 HD 
BRANCH  22  25
HETATM   25  C   UNL     1     -11.998  11.033  69.561  1.00  0.00    -0.342 C  
BRANCH  25  26
HETATM   26  C   UNL     1     -11.390  10.281  68.434  1.00  0.00    -0.178 A  
HETATM   27  H2  UNL     1      -9.745   9.531  64.557  1.00  0.00     0.000 HD 
HETATM   28  H1  UNL     1     -10.681  11.027  64.613  1.00  0.00     0.000 HD 
HETATM   29  C   UNL     1     -10.771   9.047  68.593  1.00  0.00    -0.097 A  
HETATM   30  N   UNL     1     -11.355  10.740  67.114  1.00  0.00    -0.371 NA 
HETATM   31  S   UNL     1     -10.038   8.536  67.138  1.00  0.00    -0.289 SA 
HETATM   32  N   UNL     1     -10.328  10.188  65.074  1.00  0.00    -0.145 NA 
HETATM   33  C   UNL     1     -10.630   9.946  66.362  1.00  0.00    -0.056 A  
ENDBRANCH  25  26
BRANCH  25  34
HETATM   34  N   UNL     1     -12.822  10.315  70.273  1.00  0.00    -0.564 NA 
HETATM   35  H   UNL     1     -13.662   9.942  69.831  1.00  0.00     0.000 HD 
BRANCH  34  36
HETATM   36  O   UNL     1     -12.588  10.040  71.625  1.00  0.00    -0.370 OA 
HETATM   37  C   UNL     1     -13.308   9.018  72.285  1.00  0.00    -0.467 C  
ENDBRANCH  34  36
ENDBRANCH  25  34
ENDBRANCH  22  25
ENDBRANCH   5  21
TORSDOF 7
ENDMDL
MODEL       85
REMARK 921   NORMALIZED FREE ENERGY PREDICTED BY IDOCK:   -5.35 KCAL/MOL
REMARK 922        TOTAL FREE ENERGY PREDICTED BY IDOCK:   -9.05 KCAL/MOL
REMARK 923 INTER-LIGAND FREE ENERGY PREDICTED BY IDOCK:   -7.76 KCAL/MOL
REMARK 924 INTRA-LIGAND FREE ENERGY PREDICTED BY IDOCK:   -1.29 KCAL/MOL
REMARK 927      BINDING AFFINITY PREDICTED BY RF-SCORE:    0.00 PKD
ROOT
HETATM    1  C   UNL     1      -9.133  11.215  67.844  1.00  0.00    -0.150 C  
HETATM    2  S   UNL     1      -7.404  10.983  68.234  1.00  0.00    -0.094 SA 
HETATM    3  C   UNL     1      -7.627   9.340  68.892  1.00  0.00    -0.075 C  
HETATM    4  C   UNL     1      -8.861   9.104  69.754  1.00  0.00    -0.165 C  
HETATM    5  CA  UNL     1      -9.630  12.691  67.889  1.00  0.00    -0.211 C  
HETATM    6  CA  UNL     1      -9.959   9.903  69.801  1.00  0.00    -0.243 C  
HETATM    7  OXT UNL     1     -12.307  10.033  70.388  1.00  0.00    -0.229 OA 
HETATM    8  N   UNL     1      -9.988  11.025  69.010  1.00  0.00    -0.195 N  
HETATM    9  C   UNL     1     -11.175   9.676  70.686  1.00  0.00    -0.320 C  
HETATM   10  O   UNL     1     -11.976  12.308  68.860  1.00  0.00    -0.308 OA 
HETATM   11  C   UNL     1     -10.813  12.042  68.691  1.00  0.00    -0.237 C  
HETATM   12  O   UNL     1     -10.949   9.046  71.859  1.00  0.00    -0.352 OA 
ENDROOT
BRANCH   4  13
HETATM   13  C   UNL     1      -8.650   7.876  70.510  1.00  0.00    -0.131 C  
HETATM   14  C   UNL     1      -8.900   6.605  70.166  1.00  0.00    -0.141 C  
BRANCH  14  15
HETATM   15  C   UNL     1      -9.433   6.124  68.936  1.00  0.00    -0.123 A  
HETATM   16  C   UNL     1      -8.757   5.506  67.883  1.00  0.00    -0.106 A  
HETATM   17  N   UNL     1      -9.475   5.378  66.704  1.00  0.00    -0.137 NA 
HETATM   18  S   UNL     1     -11.073   6.375  68.448  1.00  0.00    -0.193 SA 
HETATM   19  C   UNL     1      -7.353   5.005  67.875  1.00  0.00    -0.075 C  
HETATM   20  C   UNL     1     -10.697   5.817  66.880  1.00  0.00    -0.305 A  
ENDBRANCH  14  15
ENDBRANCH   4  13
BRANCH   5  21
HETATM   21  N   UNL     1      -8.699  13.698  68.490  1.00  0.00    -0.302 N  
HETATM   22  C   UNL     1      -8.880  14.975  68.993  1.00  0.00    -0.205 C  
HETATM   23  O   UNL     1      -7.960  15.473  69.644  1.00  0.00    -0.217 OA 
HETATM   24  H   UNL     1      -7.732  13.376  68.540  1.00  0.00     0.000 HD 
BRANCH  22  25
HETATM   25  C   UNL     1     -10.055  15.873  68.657  1.00  0.00    -0.216 C  
BRANCH  25  26
HETATM   26  C   UNL     1      -9.838  17.237  68.110  1.00  0.00    -0.290 A  
HETATM   27  H2  UNL     1     -10.447  20.722  65.706  1.00  0.00     0.000 HD 
HETATM   28  H1  UNL     1     -11.265  19.301  65.051  1.00  0.00     0.000 HD 
HETATM   29  C   UNL     1      -9.064  18.196  68.752  1.00  0.00    -0.224 A  
HETATM   30  N   UNL     1     -10.400  17.701  66.918  1.00  0.00    -0.335 NA 
HETATM   31  S   UNL     1      -9.153  19.697  67.945  1.00  0.00    -0.332 SA 
HETATM   32  N   UNL     1     -10.665  19.727  65.758  1.00  0.00    -0.468 NA 
HETATM   33  C   UNL     1     -10.161  18.981  66.757  1.00  0.00    -0.396 A  
ENDBRANCH  25  26
BRANCH  25  34
HETATM   34  N   UNL     1     -11.311  15.521  68.678  1.00  0.00    -0.324 NA 
HETATM   35  H   UNL     1     -11.643  14.833  68.002  1.00  0.00     0.000 HD 
BRANCH  34  36
HETATM   36  O   UNL     1     -12.216  16.059  69.600  1.00  0.00    -0.248 OA 
HETATM   37  C   UNL     1     -12.723  15.267  70.654  1.00  0.00    -0.416 C  
ENDBRANCH  34  36
ENDBRANCH  25  34
ENDBRANCH  22  25
ENDBRANCH   5  21
TORSDOF 7
ENDMDL
MODEL       86
REMARK 921   NORMALIZED FREE ENERGY PREDICTED BY IDOCK:   -5.34 KCAL/MOL
REMARK 922        TOTAL FREE ENERGY PREDICTED BY IDOCK:   -9.04 KCAL/MOL
REMARK 923 INTER-LIGAND FREE ENERGY PREDICTED BY IDOCK:   -7.33 KCAL/MOL
REMARK 924 INTRA-LIGAND FREE ENERGY PREDICTED BY IDOCK:   -1.71 KCAL/MOL
REMARK 927      BINDING AFFINITY PREDICTED BY RF-SCORE:    0.00 PKD
ROOT
HETATM    1  C   UNL     1      -8.102  10.287  69.587  1.00  0.00    -0.145 C  
HETATM    2  S   UNL     1      -7.915  10.235  67.810  1.00  0.00    -0.102 SA 
HETATM    3  C   UNL     1      -9.253  11.373  67.494  1.00  0.00    -0.160 C  
HETATM    4  C   UNL     1     -10.505  11.218  68.348  1.00  0.00    -0.219 C  
HETATM    5  CA  UNL     1      -7.674   8.990  70.337  1.00  0.00    -0.108 C  
HETATM    6  CA  UNL     1     -10.586  10.538  69.521  1.00  0.00    -0.246 C  
HETATM    7  OXT UNL     1     -11.845  10.238  71.569  1.00  0.00    -0.336 OA 
HETATM    8  N   UNL     1      -9.453   9.932  70.006  1.00  0.00    -0.230 N  
HETATM    9  C   UNL     1     -11.847  10.364  70.352  1.00  0.00    -0.328 C  
HETATM   10  O   UNL     1      -9.474   8.957  72.168  1.00  0.00    -0.327 OA 
HETATM   11  C   UNL     1      -9.039   9.224  71.077  1.00  0.00    -0.183 C  
HETATM   12  O   UNL     1     -13.013  10.348  69.670  1.00  0.00    -0.029 OA 
ENDROOT
BRANCH   4  13
HETATM   13  C   UNL     1     -11.591  11.926  67.680  1.00  0.00    -0.382 C  
HETATM   14  C   UNL     1     -11.976  13.205  67.796  1.00  0.00    -0.352 C  
BRANCH  14  15
HETATM   15  C   UNL     1     -11.396  14.220  68.609  1.00  0.00    -0.275 A  
HETATM   16  C   UNL     1     -11.697  14.546  69.931  1.00  0.00    -0.299 A  
HETATM   17  N   UNL     1     -11.165  15.742  70.389  1.00  0.00    -0.338 NA 
HETATM   18  S   UNL     1     -10.262  15.382  68.013  1.00  0.00    -0.237 SA 
HETATM   19  C   UNL     1     -12.547  13.778  70.886  1.00  0.00    -0.428 C  
HETATM   20  C   UNL     1     -10.409  16.274  69.460  1.00  0.00    -0.284 A  
ENDBRANCH  14  15
ENDBRANCH   4  13
BRANCH   5  21
HETATM   21  N   UNL     1      -7.406   7.782  69.494  1.00  0.00    -0.086 N  
HETATM   22  C   UNL     1      -8.201   6.738  69.052  1.00  0.00    -0.117 C  
HETATM   23  O   UNL     1      -7.752   6.006  68.168  1.00  0.00    -0.098 OA 
HETATM   24  H   UNL     1      -6.437   7.713  69.180  1.00  0.00     0.000 HD 
BRANCH  22  25
HETATM   25  C   UNL     1      -9.511   6.324  69.695  1.00  0.00    -0.146 C  
BRANCH  25  26
HETATM   26  C   UNL     1      -9.525   5.604  70.994  1.00  0.00    -0.166 A  
HETATM   27  H2  UNL     1     -11.025   4.061  74.690  1.00  0.00     0.000 HD 
HETATM   28  H1  UNL     1     -12.028   5.366  74.049  1.00  0.00     0.000 HD 
HETATM   29  C   UNL     1      -8.567   4.662  71.349  1.00  0.00    -0.111 A  
HETATM   30  N   UNL     1     -10.505   5.779  71.975  1.00  0.00    -0.211 NA 
HETATM   31  S   UNL     1      -8.965   3.909  72.828  1.00  0.00    -0.105 SA 
HETATM   32  N   UNL     1     -11.204   4.769  73.978  1.00  0.00    -0.212 NA 
HETATM   33  C   UNL     1     -10.351   4.912  72.948  1.00  0.00    -0.188 A  
ENDBRANCH  25  26
BRANCH  25  34
HETATM   34  N   UNL     1     -10.702   6.653  69.275  1.00  0.00    -0.242 NA 
HETATM   35  H   UNL     1     -11.241   7.336  69.806  1.00  0.00     0.000 HD 
BRANCH  34  36
HETATM   36  O   UNL     1     -11.261   6.096  68.120  1.00  0.00    -0.314 OA 
HETATM   37  C   UNL     1     -11.035   6.688  66.856  1.00  0.00    -0.326 C  
ENDBRANCH  34  36
ENDBRANCH  25  34
ENDBRANCH  22  25
ENDBRANCH   5  21
TORSDOF 7
ENDMDL
MODEL       87
REMARK 921   NORMALIZED FREE ENERGY PREDICTED BY IDOCK:   -5.33 KCAL/MOL
REMARK 922        TOTAL FREE ENERGY PREDICTED BY IDOCK:   -9.02 KCAL/MOL
REMARK 923 INTER-LIGAND FREE ENERGY PREDICTED BY IDOCK:   -7.79 KCAL/MOL
REMARK 924 INTRA-LIGAND FREE ENERGY PREDICTED BY IDOCK:   -1.23 KCAL/MOL
REMARK 927      BINDING AFFINITY PREDICTED BY RF-SCORE:    0.00 PKD
ROOT
HETATM    1  C   UNL     1     -11.099  12.121  67.610  1.00  0.00    -0.268 C  
HETATM    2  S   UNL     1      -9.757  11.723  66.497  1.00  0.00    -0.211 SA 
HETATM    3  C   UNL     1     -10.146   9.982  66.425  1.00  0.00    -0.241 C  
HETATM    4  C   UNL     1     -10.561   9.315  67.730  1.00  0.00    -0.307 C  
HETATM    5  CA  UNL     1     -10.842  13.338  68.547  1.00  0.00    -0.265 C  
HETATM    6  CA  UNL     1     -10.979   9.958  68.851  1.00  0.00    -0.179 C  
HETATM    7  OXT UNL     1     -12.189   9.742  70.940  1.00  0.00    -0.294 OA 
HETATM    8  N   UNL     1     -11.049  11.329  68.833  1.00  0.00    -0.218 N  
HETATM    9  C   UNL     1     -11.364   9.286  70.159  1.00  0.00    -0.164 C  
HETATM   10  O   UNL     1     -12.014  12.483  70.666  1.00  0.00    -0.305 OA 
HETATM   11  C   UNL     1     -11.419  12.355  69.626  1.00  0.00    -0.194 C  
HETATM   12  O   UNL     1     -10.735   8.123  70.440  1.00  0.00    -0.224 OA 
ENDROOT
BRANCH   4  13
HETATM   13  C   UNL     1     -10.428   7.874  67.556  1.00  0.00    -0.332 C  
HETATM   14  C   UNL     1      -9.331   7.137  67.329  1.00  0.00    -0.156 C  
BRANCH  14  15
HETATM   15  C   UNL     1      -7.986   7.590  67.213  1.00  0.00    -0.118 A  
HETATM   16  C   UNL     1      -7.124   8.004  68.229  1.00  0.00    -0.088 A  
HETATM   17  N   UNL     1      -5.965   8.638  67.807  1.00  0.00    -0.046 NA 
HETATM   18  S   UNL     1      -7.201   7.860  65.696  1.00  0.00    -0.072 SA 
HETATM   19  C   UNL     1      -7.323   7.874  69.700  1.00  0.00    -0.090 C  
HETATM   20  C   UNL     1      -5.909   8.634  66.498  1.00  0.00    -0.051 A  
ENDBRANCH  14  15
ENDBRANCH   4  13
BRANCH   5  21
HETATM   21  N   UNL     1      -9.442  13.867  68.598  1.00  0.00    -0.348 N  
HETATM   22  C   UNL     1      -8.829  14.982  68.052  1.00  0.00    -0.165 C  
HETATM   23  O   UNL     1      -7.708  15.283  68.466  1.00  0.00    -0.119 OA 
HETATM   24  H   UNL     1      -8.809  13.286  69.148  1.00  0.00     0.000 HD 
BRANCH  22  25
HETATM   25  C   UNL     1      -9.359  15.758  66.862  1.00  0.00    -0.227 C  
BRANCH  25  26
HETATM   26  C   UNL     1      -9.288  17.241  66.829  1.00  0.00    -0.259 A  
HETATM   27  H2  UNL     1      -8.162  21.159  65.535  1.00  0.00     0.000 HD 
HETATM   28  H1  UNL     1      -7.083  19.908  64.912  1.00  0.00     0.000 HD 
HETATM   29  C   UNL     1     -10.204  18.059  67.481  1.00  0.00    -0.369 A  
HETATM   30  N   UNL     1      -8.317  17.963  66.129  1.00  0.00    -0.486 NA 
HETATM   31  S   UNL     1      -9.933  19.702  67.108  1.00  0.00    -0.420 SA 
HETATM   32  N   UNL     1      -7.886  20.179  65.479  1.00  0.00    -0.182 NA 
HETATM   33  C   UNL     1      -8.582  19.248  66.154  1.00  0.00    -0.257 A  
ENDBRANCH  25  26
BRANCH  25  34
HETATM   34  N   UNL     1      -9.786  15.238  65.744  1.00  0.00    -0.345 NA 
HETATM   35  H   UNL     1      -9.582  14.260  65.545  1.00  0.00     0.000 HD 
BRANCH  34  36
HETATM   36  O   UNL     1     -10.515  15.984  64.811  1.00  0.00    -0.564 OA 
HETATM   37  C   UNL     1     -11.819  15.588  64.437  1.00  0.00    -0.219 C  
ENDBRANCH  34  36
ENDBRANCH  25  34
ENDBRANCH  22  25
ENDBRANCH   5  21
TORSDOF 7
ENDMDL
MODEL       88
REMARK 921   NORMALIZED FREE ENERGY PREDICTED BY IDOCK:   -5.28 KCAL/MOL
REMARK 922        TOTAL FREE ENERGY PREDICTED BY IDOCK:   -8.96 KCAL/MOL
REMARK 923 INTER-LIGAND FREE ENERGY PREDICTED BY IDOCK:   -7.15 KCAL/MOL
REMARK 924 INTRA-LIGAND FREE ENERGY PREDICTED BY IDOCK:   -1.80 KCAL/MOL
REMARK 927      BINDING AFFINITY PREDICTED BY RF-SCORE:    0.00 PKD
ROOT
HETATM    1  C   UNL     1      -7.871  11.651  68.646  1.00  0.00    -0.132 C  
HETATM    2  S   UNL     1      -6.818  12.584  67.542  1.00  0.00    -0.149 SA 
HETATM    3  C   UNL     1      -8.039  13.845  67.217  1.00  0.00    -0.145 C  
HETATM    4  C   UNL     1      -9.478  13.381  67.032  1.00  0.00    -0.247 C  
HETATM    5  CA  UNL     1      -7.593  10.119  68.689  1.00  0.00    -0.086 C  
HETATM    6  CA  UNL     1      -9.975  12.173  67.408  1.00  0.00    -0.199 C  
HETATM    7  OXT UNL     1     -11.982  10.920  67.934  1.00  0.00    -0.585 OA 
HETATM    8  N   UNL     1      -9.131  11.277  68.016  1.00  0.00    -0.150 N  
HETATM    9  C   UNL     1     -11.406  11.706  67.193  1.00  0.00    -0.306 C  
HETATM   10  O   UNL     1     -10.004   9.267  68.922  1.00  0.00    -0.171 OA 
HETATM   11  C   UNL     1      -9.157  10.050  68.573  1.00  0.00    -0.127 C  
HETATM   12  O   UNL     1     -12.041  12.207  66.110  1.00  0.00    -0.621 OA 
ENDROOT
BRANCH   4  13
HETATM   13  C   UNL     1     -10.215  14.458  66.383  1.00  0.00    -0.294 C  
HETATM   14  C   UNL     1     -10.965  15.428  66.924  1.00  0.00    -0.294 C  
BRANCH  14  15
HETATM   15  C   UNL     1     -11.223  15.663  68.304  1.00  0.00    -0.353 A  
HETATM   16  C   UNL     1     -10.720  16.680  69.116  1.00  0.00    -0.342 A  
HETATM   17  N   UNL     1     -10.929  16.517  70.477  1.00  0.00    -0.194 NA 
HETATM   18  S   UNL     1     -12.133  14.580  69.299  1.00  0.00    -0.251 SA 
HETATM   19  C   UNL     1      -9.963  17.891  68.691  1.00  0.00    -0.387 C  
HETATM   20  C   UNL     1     -11.645  15.440  70.689  1.00  0.00    -0.332 A  
ENDBRANCH  14  15
ENDBRANCH   4  13
BRANCH   5  21
HETATM   21  N   UNL     1      -6.677   9.570  67.639  1.00  0.00    -0.063 N  
HETATM   22  C   UNL     1      -6.895   8.912  66.441  1.00  0.00    -0.075 C  
HETATM   23  O   UNL     1      -5.942   8.790  65.669  1.00  0.00    -0.050 OA 
HETATM   24  H   UNL     1      -5.689   9.711  67.850  1.00  0.00     0.000 HD 
BRANCH  22  25
HETATM   25  C   UNL     1      -8.173   8.178  66.084  1.00  0.00    -0.117 C  
BRANCH  25  26
HETATM   26  C   UNL     1      -8.513   6.884  66.730  1.00  0.00    -0.118 A  
HETATM   27  H2  UNL     1      -8.404   3.686  69.568  1.00  0.00     0.000 HD 
HETATM   28  H1  UNL     1      -6.970   4.711  69.654  1.00  0.00     0.000 HD 
HETATM   29  C   UNL     1      -9.674   6.176  66.444  1.00  0.00    -0.110 A  
HETATM   30  N   UNL     1      -7.721   6.261  67.699  1.00  0.00    -0.097 NA 
HETATM   31  S   UNL     1      -9.837   4.823  67.473  1.00  0.00    -0.141 SA 
HETATM   32  N   UNL     1      -7.864   4.479  69.223  1.00  0.00    -0.062 NA 
HETATM   33  C   UNL     1      -8.333   5.214  68.199  1.00  0.00    -0.097 A  
ENDBRANCH  25  26
BRANCH  25  34
HETATM   34  N   UNL     1      -9.126   8.636  65.319  1.00  0.00    -0.413 NA 
HETATM   35  H   UNL     1      -9.962   8.070  65.178  1.00  0.00     0.000 HD 
BRANCH  34  36
HETATM   36  O   UNL     1      -9.034   9.881  64.687  1.00  0.00    -0.188 OA 
HETATM   37  C   UNL     1      -9.379  10.020  63.323  1.00  0.00    -0.256 C  
ENDBRANCH  34  36
ENDBRANCH  25  34
ENDBRANCH  22  25
ENDBRANCH   5  21
TORSDOF 7
ENDMDL
MODEL       89
REMARK 921   NORMALIZED FREE ENERGY PREDICTED BY IDOCK:   -5.27 KCAL/MOL
REMARK 922        TOTAL FREE ENERGY PREDICTED BY IDOCK:   -8.94 KCAL/MOL
REMARK 923 INTER-LIGAND FREE ENERGY PREDICTED BY IDOCK:   -7.59 KCAL/MOL
REMARK 924 INTRA-LIGAND FREE ENERGY PREDICTED BY IDOCK:   -1.35 KCAL/MOL
REMARK 927      BINDING AFFINITY PREDICTED BY RF-SCORE:    0.00 PKD
ROOT
HETATM    1  C   UNL     1     -11.155   7.850  69.260  1.00  0.00     0.131 C  
HETATM    2  S   UNL     1      -9.972   6.970  68.250  1.00  0.00    -0.158 SA 
HETATM    3  C   UNL     1     -10.067   5.464  69.202  1.00  0.00    -0.223 C  
HETATM    4  C   UNL     1     -10.140   5.608  70.716  1.00  0.00    -0.270 C  
HETATM    5  CA  UNL     1     -10.955   9.394  69.323  1.00  0.00    -0.117 C  
HETATM    6  CA  UNL     1     -10.467   6.743  71.389  1.00  0.00    -0.215 C  
HETATM    7  OXT UNL     1     -11.256   7.657  73.490  1.00  0.00    -0.283 OA 
HETATM    8  N   UNL     1     -10.769   7.870  70.666  1.00  0.00    -0.224 N  
HETATM    9  C   UNL     1     -10.509   6.886  72.902  1.00  0.00    -0.244 C  
HETATM   10  O   UNL     1     -11.594   9.795  71.777  1.00  0.00    -0.349 OA 
HETATM   11  C   UNL     1     -11.168   9.143  70.858  1.00  0.00    -0.295 C  
HETATM   12  O   UNL     1      -9.655   6.105  73.599  1.00  0.00    -0.142 OA 
ENDROOT
BRANCH   4  13
HETATM   13  C   UNL     1      -9.797   4.320  71.305  1.00  0.00    -0.257 C  
HETATM   14  C   UNL     1      -8.666   3.608  71.206  1.00  0.00    -0.123 C  
BRANCH  14  15
HETATM   15  C   UNL     1      -7.480   3.951  70.495  1.00  0.00    -0.041 A  
HETATM   16  C   UNL     1      -6.519   4.906  70.827  1.00  0.00    -0.030 A  
HETATM   17  N   UNL     1      -5.609   5.211  69.826  1.00  0.00    -0.011 NA 
HETATM   18  S   UNL     1      -7.088   3.311  68.937  1.00  0.00    -0.049 SA 
HETATM   19  C   UNL     1      -6.384   5.650  72.111  1.00  0.00    -0.048 C  
HETATM   20  C   UNL     1      -5.824   4.447  68.784  1.00  0.00    -0.025 A  
ENDBRANCH  14  15
ENDBRANCH   4  13
BRANCH   5  21
HETATM   21  N   UNL     1      -9.675   9.931  68.759  1.00  0.00    -0.155 N  
HETATM   22  C   UNL     1      -9.219  11.211  68.494  1.00  0.00    -0.183 C  
HETATM   23  O   UNL     1      -8.020  11.355  68.249  1.00  0.00    -0.121 OA 
HETATM   24  H   UNL     1      -9.000   9.203  68.522  1.00  0.00     0.000 HD 
BRANCH  22  25
HETATM   25  C   UNL     1     -10.114  12.421  68.312  1.00  0.00    -0.227 C  
BRANCH  25  26
HETATM   26  C   UNL     1     -10.627  12.792  66.968  1.00  0.00    -0.240 A  
HETATM   27  H2  UNL     1     -13.325  13.085  63.663  1.00  0.00     0.000 HD 
HETATM   28  H1  UNL     1     -13.779  11.805  64.791  1.00  0.00     0.000 HD 
HETATM   29  C   UNL     1     -10.053  13.787  66.186  1.00  0.00    -0.307 A  
HETATM   30  N   UNL     1     -11.741  12.202  66.365  1.00  0.00    -0.560 NA 
HETATM   31  S   UNL     1     -10.977  14.072  64.780  1.00  0.00    -0.400 SA 
HETATM   32  N   UNL     1     -13.140  12.549  64.510  1.00  0.00    -0.839 NA 
HETATM   33  C   UNL     1     -12.053  12.823  65.252  1.00  0.00    -0.457 A  
ENDBRANCH  25  26
BRANCH  25  34
HETATM   34  N   UNL     1     -10.615  13.148  69.273  1.00  0.00    -0.436 NA 
HETATM   35  H   UNL     1     -10.088  13.953  69.610  1.00  0.00     0.000 HD 
BRANCH  34  36
HETATM   36  O   UNL     1     -11.854  12.856  69.854  1.00  0.00    -0.323 OA 
HETATM   37  C   UNL     1     -12.453  13.762  70.758  1.00  0.00    -0.370 C  
ENDBRANCH  34  36
ENDBRANCH  25  34
ENDBRANCH  22  25
ENDBRANCH   5  21
TORSDOF 7
ENDMDL
MODEL       90
REMARK 921   NORMALIZED FREE ENERGY PREDICTED BY IDOCK:   -5.27 KCAL/MOL
REMARK 922        TOTAL FREE ENERGY PREDICTED BY IDOCK:   -8.93 KCAL/MOL
REMARK 923 INTER-LIGAND FREE ENERGY PREDICTED BY IDOCK:   -7.49 KCAL/MOL
REMARK 924 INTRA-LIGAND FREE ENERGY PREDICTED BY IDOCK:   -1.45 KCAL/MOL
REMARK 927      BINDING AFFINITY PREDICTED BY RF-SCORE:    0.00 PKD
ROOT
HETATM    1  C   UNL     1     -10.552  11.286  65.561  1.00  0.00    -0.246 C  
HETATM    2  S   UNL     1     -10.612  11.304  63.774  1.00  0.00    -0.380 SA 
HETATM    3  C   UNL     1      -9.307  10.102  63.577  1.00  0.00    -0.290 C  
HETATM    4  C   UNL     1      -8.112  10.222  64.514  1.00  0.00    -0.150 C  
HETATM    5  CA  UNL     1     -10.973  12.617  66.251  1.00  0.00    -0.283 C  
HETATM    6  CA  UNL     1      -8.084  10.926  65.676  1.00  0.00    -0.060 C  
HETATM    7  OXT UNL     1      -6.959  11.220  67.802  1.00  0.00    -0.071 OA 
HETATM    8  N   UNL     1      -9.219  11.592  66.067  1.00  0.00    -0.218 N  
HETATM    9  C   UNL     1      -6.878  11.065  66.591  1.00  0.00    -0.137 C  
HETATM   10  O   UNL     1      -9.306  12.617  68.204  1.00  0.00    -0.202 OA 
HETATM   11  C   UNL     1      -9.675  12.342  67.091  1.00  0.00    -0.207 C  
HETATM   12  O   UNL     1      -5.667  11.014  65.994  1.00  0.00    -0.135 OA 
ENDROOT
BRANCH   4  13
HETATM   13  C   UNL     1      -7.016   9.452  63.941  1.00  0.00    -0.096 C  
HETATM   14  C   UNL     1      -6.680   8.168  64.132  1.00  0.00    -0.066 C  
BRANCH  14  15
HETATM   15  C   UNL     1      -7.339   7.208  64.951  1.00  0.00    -0.084 A  
HETATM   16  C   UNL     1      -8.060   6.081  64.554  1.00  0.00    -0.126 A  
HETATM   17  N   UNL     1      -8.812   5.472  65.547  1.00  0.00    -0.154 NA 
HETATM   18  S   UNL     1      -7.493   7.368  66.666  1.00  0.00    -0.090 SA 
HETATM   19  C   UNL     1      -8.138   5.488  63.189  1.00  0.00    -0.103 C  
HETATM   20  C   UNL     1      -8.604   6.074  66.692  1.00  0.00    -0.113 A  
ENDBRANCH  14  15
ENDBRANCH   4  13
BRANCH   5  21
HETATM   21  N   UNL     1     -11.127  13.816  65.366  1.00  0.00    -0.296 N  
HETATM   22  C   UNL     1     -11.014  15.179  65.587  1.00  0.00    -0.355 C  
HETATM   23  O   UNL     1     -10.964  15.919  64.603  1.00  0.00    -0.528 OA 
HETATM   24  H   UNL     1     -11.363  13.580  64.402  1.00  0.00     0.000 HD 
BRANCH  22  25
HETATM   25  C   UNL     1     -11.123  15.840  66.947  1.00  0.00    -0.133 C  
BRANCH  25  26
HETATM   26  C   UNL     1     -10.260  16.997  67.301  1.00  0.00    -0.310 A  
HETATM   27  H2  UNL     1      -9.077  21.062  67.904  1.00  0.00     0.000 HD 
HETATM   28  H1  UNL     1     -10.504  20.922  66.873  1.00  0.00     0.000 HD 
HETATM   29  C   UNL     1      -9.103  16.874  68.060  1.00  0.00    -0.234 A  
HETATM   30  N   UNL     1     -10.530  18.317  66.931  1.00  0.00    -0.382 NA 
HETATM   31  S   UNL     1      -8.440  18.405  68.420  1.00  0.00    -0.326 SA 
HETATM   32  N   UNL     1      -9.763  20.483  67.419  1.00  0.00    -0.455 NA 
HETATM   33  C   UNL     1      -9.686  19.144  67.502  1.00  0.00    -0.316 A  
ENDBRANCH  25  26
BRANCH  25  34
HETATM   34  N   UNL     1     -12.024  15.575  67.853  1.00  0.00    -0.309 NA 
HETATM   35  H   UNL     1     -12.889  16.115  67.862  1.00  0.00     0.000 HD 
BRANCH  34  36
HETATM   36  O   UNL     1     -11.839  14.571  68.810  1.00  0.00    -0.308 OA 
HETATM   37  C   UNL     1     -12.109  14.823  70.175  1.00  0.00    -0.327 C  
ENDBRANCH  34  36
ENDBRANCH  25  34
ENDBRANCH  22  25
ENDBRANCH   5  21
TORSDOF 7
ENDMDL
MODEL       91
REMARK 921   NORMALIZED FREE ENERGY PREDICTED BY IDOCK:   -5.24 KCAL/MOL
REMARK 922        TOTAL FREE ENERGY PREDICTED BY IDOCK:   -8.90 KCAL/MOL
REMARK 923 INTER-LIGAND FREE ENERGY PREDICTED BY IDOCK:   -7.39 KCAL/MOL
REMARK 924 INTRA-LIGAND FREE ENERGY PREDICTED BY IDOCK:   -1.52 KCAL/MOL
REMARK 927      BINDING AFFINITY PREDICTED BY RF-SCORE:    0.00 PKD
ROOT
HETATM    1  C   UNL     1      -9.104   9.303  68.751  1.00  0.00    -0.136 C  
HETATM    2  S   UNL     1     -10.658   9.933  68.134  1.00  0.00    -0.234 SA 
HETATM    3  C   UNL     1      -9.904  11.142  67.060  1.00  0.00    -0.185 C  
HETATM    4  C   UNL     1      -8.696  11.892  67.607  1.00  0.00    -0.162 C  
HETATM    5  CA  UNL     1      -9.150   8.727  70.198  1.00  0.00    -0.167 C  
HETATM    6  CA  UNL     1      -7.945  11.513  68.675  1.00  0.00    -0.135 C  
HETATM    7  OXT UNL     1      -5.810  11.753  69.795  1.00  0.00    -0.086 OA 
HETATM    8  N   UNL     1      -8.278  10.355  69.332  1.00  0.00    -0.163 N  
HETATM    9  C   UNL     1      -6.758  12.283  69.232  1.00  0.00    -0.075 C  
HETATM   10  O   UNL     1      -6.852   9.515  71.031  1.00  0.00    -0.199 OA 
HETATM   11  C   UNL     1      -7.844   9.586  70.351  1.00  0.00    -0.172 C  
HETATM   12  O   UNL     1      -6.793  13.625  69.081  1.00  0.00    -0.110 OA 
ENDROOT
BRANCH   4  13
HETATM   13  C   UNL     1      -8.496  13.078  66.784  1.00  0.00    -0.009 C  
HETATM   14  C   UNL     1      -9.067  14.288  66.875  1.00  0.00    -0.268 C  
BRANCH  14  15
HETATM   15  C   UNL     1     -10.023  14.731  67.832  1.00  0.00    -0.213 A  
HETATM   16  C   UNL     1     -11.415  14.689  67.747  1.00  0.00    -0.340 A  
HETATM   17  N   UNL     1     -12.095  15.424  68.707  1.00  0.00    -0.232 NA 
HETATM   18  S   UNL     1      -9.597  15.579  69.278  1.00  0.00    -0.278 SA 
HETATM   19  C   UNL     1     -12.242  13.979  66.731  1.00  0.00    -0.439 C  
HETATM   20  C   UNL     1     -11.241  15.947  69.551  1.00  0.00    -0.325 A  
ENDBRANCH  14  15
ENDBRANCH   4  13
BRANCH   5  21
HETATM   21  N   UNL     1     -10.393   8.993  70.990  1.00  0.00    -0.252 N  
HETATM   22  C   UNL     1     -11.251   8.179  71.710  1.00  0.00    -0.272 C  
HETATM   23  O   UNL     1     -12.065   8.721  72.459  1.00  0.00    -0.347 OA 
HETATM   24  H   UNL     1     -10.662   9.977  71.002  1.00  0.00     0.000 HD 
BRANCH  22  25
HETATM   25  C   UNL     1     -11.380   6.681  71.514  1.00  0.00    -0.281 C  
BRANCH  25  26
HETATM   26  C   UNL     1     -10.944   6.039  70.247  1.00  0.00    -0.342 A  
HETATM   27  H2  UNL     1     -10.308   5.507  66.051  1.00  0.00     0.000 HD 
HETATM   28  H1  UNL     1     -11.526   6.738  66.396  1.00  0.00     0.000 HD 
HETATM   29  C   UNL     1     -10.025   4.998  70.202  1.00  0.00    -0.258 A  
HETATM   30  N   UNL     1     -11.390   6.426  68.980  1.00  0.00    -0.335 NA 
HETATM   31  S   UNL     1      -9.623   4.603  68.591  1.00  0.00    -0.153 SA 
HETATM   32  N   UNL     1     -10.867   6.032  66.724  1.00  0.00    -0.316 NA 
HETATM   33  C   UNL     1     -10.731   5.790  68.039  1.00  0.00    -0.209 A  
ENDBRANCH  25  26
BRANCH  25  34
HETATM   34  N   UNL     1     -11.739   5.822  72.429  1.00  0.00    -0.333 NA 
HETATM   35  H   UNL     1     -12.505   5.180  72.230  1.00  0.00     0.000 HD 
BRANCH  34  36
HETATM   36  O   UNL     1     -11.103   5.756  73.673  1.00  0.00    -0.192 OA 
HETATM   37  C   UNL     1     -10.024   4.867  73.882  1.00  0.00    -0.165 C  
ENDBRANCH  34  36
ENDBRANCH  25  34
ENDBRANCH  22  25
ENDBRANCH   5  21
TORSDOF 7
ENDMDL
MODEL       92
REMARK 921   NORMALIZED FREE ENERGY PREDICTED BY IDOCK:   -5.24 KCAL/MOL
REMARK 922        TOTAL FREE ENERGY PREDICTED BY IDOCK:   -8.90 KCAL/MOL
REMARK 923 INTER-LIGAND FREE ENERGY PREDICTED BY IDOCK:   -7.27 KCAL/MOL
REMARK 924 INTRA-LIGAND FREE ENERGY PREDICTED BY IDOCK:   -1.63 KCAL/MOL
REMARK 927      BINDING AFFINITY PREDICTED BY RF-SCORE:    0.00 PKD
ROOT
HETATM    1  C   UNL     1      -9.377   6.436  68.117  1.00  0.00    -0.108 C  
HETATM    2  S   UNL     1     -10.617   7.253  67.122  1.00  0.00    -0.339 SA 
HETATM    3  C   UNL     1      -9.482   8.448  66.437  1.00  0.00    -0.227 C  
HETATM    4  C   UNL     1      -8.448   9.040  67.385  1.00  0.00    -0.115 C  
HETATM    5  CA  UNL     1      -9.906   5.777  69.425  1.00  0.00    -0.167 C  
HETATM    6  CA  UNL     1      -8.091   8.523  68.590  1.00  0.00    -0.121 C  
HETATM    7  OXT UNL     1      -6.390   8.482  70.316  1.00  0.00    -0.034 OA 
HETATM    8  N   UNL     1      -8.693   7.363  69.011  1.00  0.00    -0.133 N  
HETATM    9  C   UNL     1      -7.078   9.136  69.545  1.00  0.00    -0.059 C  
HETATM   10  O   UNL     1      -7.923   6.283  70.976  1.00  0.00    -0.112 OA 
HETATM   11  C   UNL     1      -8.651   6.493  70.039  1.00  0.00    -0.140 C  
HETATM   12  O   UNL     1      -6.967  10.483  69.511  1.00  0.00    -0.083 OA 
ENDROOT
BRANCH   4  13
HETATM   13  C   UNL     1      -7.919  10.251  66.770  1.00  0.00    -0.114 C  
HETATM   14  C   UNL     1      -8.524  11.422  66.529  1.00  0.00    -0.170 C  
BRANCH  14  15
HETATM   15  C   UNL     1      -9.865  11.790  66.837  1.00  0.00    -0.203 A  
HETATM   16  C   UNL     1     -10.926  12.007  65.957  1.00  0.00    -0.304 A  
HETATM   17  N   UNL     1     -12.048  12.607  66.509  1.00  0.00    -0.552 NA 
HETATM   18  S   UNL     1     -10.396  12.197  68.432  1.00  0.00    -0.228 SA 
HETATM   19  C   UNL     1     -10.973  11.702  64.499  1.00  0.00    -0.376 C  
HETATM   20  C   UNL     1     -11.874  12.768  67.798  1.00  0.00    -0.332 A  
ENDBRANCH  14  15
ENDBRANCH   4  13
BRANCH   5  21
HETATM   21  N   UNL     1     -11.309   6.112  69.829  1.00  0.00    -0.426 N  
HETATM   22  C   UNL     1     -11.882   6.512  71.025  1.00  0.00    -0.330 C  
HETATM   23  O   UNL     1     -13.035   6.947  70.994  1.00  0.00    -0.305 OA 
HETATM   24  H   UNL     1     -11.981   6.028  69.066  1.00  0.00     0.000 HD 
BRANCH  22  25
HETATM   25  C   UNL     1     -11.261   6.293  72.391  1.00  0.00    -0.280 C  
BRANCH  25  26
HETATM   26  C   UNL     1     -10.759   4.953  72.792  1.00  0.00    -0.228 A  
HETATM   27  H2  UNL     1      -8.906   1.114  72.448  1.00  0.00     0.000 HD 
HETATM   28  H1  UNL     1      -9.348   1.791  70.879  1.00  0.00     0.000 HD 
HETATM   29  C   UNL     1     -10.568   4.581  74.117  1.00  0.00    -0.277 A  
HETATM   30  N   UNL     1     -10.410   3.946  71.889  1.00  0.00    -0.067 NA 
HETATM   31  S   UNL     1      -9.832   3.045  74.223  1.00  0.00    -0.118 SA 
HETATM   32  N   UNL     1      -9.329   1.859  71.896  1.00  0.00    -0.087 NA 
HETATM   33  C   UNL     1      -9.862   2.929  72.512  1.00  0.00    -0.151 A  
ENDBRANCH  25  26
BRANCH  25  34
HETATM   34  N   UNL     1     -10.989   7.226  73.261  1.00  0.00    -0.525 NA 
HETATM   35  H   UNL     1     -11.525   7.265  74.128  1.00  0.00     0.000 HD 
BRANCH  34  36
HETATM   36  O   UNL     1      -9.984   8.174  73.042  1.00  0.00    -0.285 OA 
HETATM   37  C   UNL     1      -8.724   8.042  73.669  1.00  0.00    -0.268 C  
ENDBRANCH  34  36
ENDBRANCH  25  34
ENDBRANCH  22  25
ENDBRANCH   5  21
TORSDOF 7
ENDMDL
MODEL       93
REMARK 921   NORMALIZED FREE ENERGY PREDICTED BY IDOCK:   -5.24 KCAL/MOL
REMARK 922        TOTAL FREE ENERGY PREDICTED BY IDOCK:   -8.90 KCAL/MOL
REMARK 923 INTER-LIGAND FREE ENERGY PREDICTED BY IDOCK:   -7.73 KCAL/MOL
REMARK 924 INTRA-LIGAND FREE ENERGY PREDICTED BY IDOCK:   -1.17 KCAL/MOL
REMARK 927      BINDING AFFINITY PREDICTED BY RF-SCORE:    0.00 PKD
ROOT
HETATM    1  C   UNL     1      -9.501  10.473  69.044  1.00  0.00    -0.201 C  
HETATM    2  S   UNL     1      -8.752  10.173  67.448  1.00  0.00    -0.124 SA 
HETATM    3  C   UNL     1      -8.473  11.900  67.097  1.00  0.00    -0.173 C  
HETATM    4  C   UNL     1      -9.580  12.871  67.487  1.00  0.00    -0.200 C  
HETATM    5  CA  UNL     1     -10.548   9.411  69.494  1.00  0.00    -0.222 C  
HETATM    6  CA  UNL     1     -10.593  12.610  68.355  1.00  0.00    -0.243 C  
HETATM    7  OXT UNL     1     -12.278  13.580  69.802  1.00  0.00    -0.313 OA 
HETATM    8  N   UNL     1     -10.643  11.375  68.952  1.00  0.00    -0.203 N  
HETATM    9  C   UNL     1     -11.711  13.574  68.717  1.00  0.00    -0.337 C  
HETATM   10  O   UNL     1     -12.231  10.958  70.663  1.00  0.00    -0.314 OA 
HETATM   11  C   UNL     1     -11.376  10.694  69.856  1.00  0.00    -0.313 C  
HETATM   12  O   UNL     1     -12.072  14.456  67.758  1.00  0.00    -0.356 OA 
ENDROOT
BRANCH   4  13
HETATM   13  C   UNL     1      -9.357  14.117  66.765  1.00  0.00    -0.295 C  
HETATM   14  C   UNL     1      -9.806  14.500  65.561  1.00  0.00    -0.320 C  
BRANCH  14  15
HETATM   15  C   UNL     1     -10.647  13.772  64.673  1.00  0.00    -0.425 A  
HETATM   16  C   UNL     1     -11.931  14.099  64.235  1.00  0.00    -0.435 A  
HETATM   17  N   UNL     1     -12.617  13.086  63.583  1.00  0.00    -0.731 NA 
HETATM   18  S   UNL     1     -10.258  12.198  64.070  1.00  0.00    -0.371 SA 
HETATM   19  C   UNL     1     -12.652  15.391  64.420  1.00  0.00     0.196 C  
HETATM   20  C   UNL     1     -11.842  12.037  63.456  1.00  0.00    -0.492 A  
ENDBRANCH  14  15
ENDBRANCH   4  13
BRANCH   5  21
HETATM   21  N   UNL     1     -10.994   8.422  68.461  1.00  0.00    -0.429 N  
HETATM   22  C   UNL     1     -10.598   7.133  68.149  1.00  0.00    -0.192 C  
HETATM   23  O   UNL     1     -11.316   6.477  67.392  1.00  0.00    -0.304 OA 
HETATM   24  H   UNL     1     -11.744   8.772  67.864  1.00  0.00     0.000 HD 
BRANCH  22  25
HETATM   25  C   UNL     1      -9.260   6.529  68.529  1.00  0.00    -0.125 C  
BRANCH  25  26
HETATM   26  C   UNL     1      -8.479   5.733  67.547  1.00  0.00    -0.103 A  
HETATM   27  H2  UNL     1      -6.775   2.308  65.634  1.00  0.00     0.000 HD 
HETATM   28  H1  UNL     1      -7.306   1.964  67.282  1.00  0.00     0.000 HD 
HETATM   29  C   UNL     1      -8.070   6.236  66.318  1.00  0.00    -0.114 A  
HETATM   30  N   UNL     1      -8.097   4.403  67.745  1.00  0.00    -0.095 NA 
HETATM   31  S   UNL     1      -7.340   5.019  65.369  1.00  0.00    -0.073 SA 
HETATM   32  N   UNL     1      -7.181   2.624  66.514  1.00  0.00    -0.063 NA 
HETATM   33  C   UNL     1      -7.550   3.909  66.659  1.00  0.00    -0.088 A  
ENDBRANCH  25  26
BRANCH  25  34
HETATM   34  N   UNL     1      -8.619   6.742  69.645  1.00  0.00    -0.133 NA 
HETATM   35  H   UNL     1      -8.917   6.250  70.487  1.00  0.00     0.000 HD 
BRANCH  34  36
HETATM   36  O   UNL     1      -7.535   7.623  69.721  1.00  0.00    -0.086 OA 
HETATM   37  C   UNL     1      -7.150   8.182  70.961  1.00  0.00    -0.056 C  
ENDBRANCH  34  36
ENDBRANCH  25  34
ENDBRANCH  22  25
ENDBRANCH   5  21
TORSDOF 7
ENDMDL
MODEL       94
REMARK 921   NORMALIZED FREE ENERGY PREDICTED BY IDOCK:   -5.20 KCAL/MOL
REMARK 922        TOTAL FREE ENERGY PREDICTED BY IDOCK:   -8.84 KCAL/MOL
REMARK 923 INTER-LIGAND FREE ENERGY PREDICTED BY IDOCK:   -7.99 KCAL/MOL
REMARK 924 INTRA-LIGAND FREE ENERGY PREDICTED BY IDOCK:   -0.85 KCAL/MOL
REMARK 927      BINDING AFFINITY PREDICTED BY RF-SCORE:    0.00 PKD
ROOT
HETATM    1  C   UNL     1     -10.262  10.645  67.694  1.00  0.00    -0.194 C  
HETATM    2  S   UNL     1     -11.784  11.514  67.341  1.00  0.00    -0.034 SA 
HETATM    3  C   UNL     1     -11.028  12.672  66.215  1.00  0.00    -0.283 C  
HETATM    4  C   UNL     1      -9.660  13.219  66.603  1.00  0.00    -0.262 C  
HETATM    5  CA  UNL     1     -10.182   9.995  69.107  1.00  0.00    -0.210 C  
HETATM    6  CA  UNL     1      -8.826  12.680  67.531  1.00  0.00    -0.186 C  
HETATM    7  OXT UNL     1      -6.540  12.565  68.328  1.00  0.00    -0.062 OA 
HETATM    8  N   UNL     1      -9.222  11.540  68.185  1.00  0.00    -0.175 N  
HETATM    9  C   UNL     1      -7.475  13.249  67.934  1.00  0.00    -0.143 C  
HETATM   10  O   UNL     1      -7.701  10.418  69.617  1.00  0.00    -0.153 OA 
HETATM   11  C   UNL     1      -8.760  10.661  69.097  1.00  0.00    -0.126 C  
HETATM   12  O   UNL     1      -7.341  14.591  67.843  1.00  0.00    -0.123 OA 
ENDROOT
BRANCH   4  13
HETATM   13  C   UNL     1      -9.415  14.415  65.807  1.00  0.00    -0.130 C  
HETATM   14  C   UNL     1      -9.655  15.701  66.099  1.00  0.00    -0.362 C  
BRANCH  14  15
HETATM   15  C   UNL     1     -10.209  16.234  67.297  1.00  0.00    -0.279 A  
HETATM   16  C   UNL     1      -9.745  17.303  68.064  1.00  0.00    -0.277 A  
HETATM   17  N   UNL     1     -10.327  17.438  69.315  1.00  0.00    -0.297 NA 
HETATM   18  S   UNL     1     -11.541  15.511  68.132  1.00  0.00    -0.230 SA 
HETATM   19  C   UNL     1      -8.680  18.283  67.706  1.00  0.00    -0.263 C  
HETATM   20  C   UNL     1     -11.270  16.541  69.465  1.00  0.00    -0.169 A  
ENDBRANCH  14  15
ENDBRANCH   4  13
BRANCH   5  21
HETATM   21  N   UNL     1     -11.249  10.378  70.087  1.00  0.00    -0.301 N  
HETATM   22  C   UNL     1     -11.685   9.824  71.278  1.00  0.00    -0.394 C  
HETATM   23  O   UNL     1     -12.431  10.501  71.988  1.00  0.00    -0.260 OA 
HETATM   24  H   UNL     1     -11.760  11.220  69.820  1.00  0.00     0.000 HD 
BRANCH  22  25
HETATM   25  C   UNL     1     -11.453   8.384  71.692  1.00  0.00    -0.287 C  
BRANCH  25  26
HETATM   26  C   UNL     1     -10.296   8.015  72.547  1.00  0.00    -0.306 A  
HETATM   27  H2  UNL     1      -6.481   8.322  74.456  1.00  0.00     0.000 HD 
HETATM   28  H1  UNL     1      -6.633   9.414  73.077  1.00  0.00     0.000 HD 
HETATM   29  C   UNL     1     -10.364   7.039  73.534  1.00  0.00    -0.356 A  
HETATM   30  N   UNL     1      -9.038   8.619  72.465  1.00  0.00    -0.367 NA 
HETATM   31  S   UNL     1      -8.916   6.977  74.436  1.00  0.00    -0.191 SA 
HETATM   32  N   UNL     1      -7.025   8.685  73.674  1.00  0.00    -0.328 NA 
HETATM   33  C   UNL     1      -8.256   8.202  73.433  1.00  0.00    -0.206 A  
ENDBRANCH  25  26
BRANCH  25  34
HETATM   34  N   UNL     1     -12.269   7.389  71.472  1.00  0.00    -0.320 NA 
HETATM   35  H   UNL     1     -13.207   7.422  71.870  1.00  0.00     0.000 HD 
BRANCH  34  36
HETATM   36  O   UNL     1     -11.894   6.278  70.708  1.00  0.00    -0.307 OA 
HETATM   37  C   UNL     1     -11.170   6.446  69.506  1.00  0.00    -0.412 C  
ENDBRANCH  34  36
ENDBRANCH  25  34
ENDBRANCH  22  25
ENDBRANCH   5  21
TORSDOF 7
ENDMDL
MODEL       95
REMARK 921   NORMALIZED FREE ENERGY PREDICTED BY IDOCK:   -5.20 KCAL/MOL
REMARK 922        TOTAL FREE ENERGY PREDICTED BY IDOCK:   -8.84 KCAL/MOL
REMARK 923 INTER-LIGAND FREE ENERGY PREDICTED BY IDOCK:   -7.33 KCAL/MOL
REMARK 924 INTRA-LIGAND FREE ENERGY PREDICTED BY IDOCK:   -1.51 KCAL/MOL
REMARK 927      BINDING AFFINITY PREDICTED BY RF-SCORE:    0.00 PKD
ROOT
HETATM    1  C   UNL     1      -7.934  10.236  68.058  1.00  0.00    -0.101 C  
HETATM    2  S   UNL     1      -7.452  10.366  69.774  1.00  0.00    -0.115 SA 
HETATM    3  C   UNL     1      -6.994   8.648  69.922  1.00  0.00    -0.043 C  
HETATM    4  C   UNL     1      -7.899   7.631  69.238  1.00  0.00    -0.121 C  
HETATM    5  CA  UNL     1      -9.044  11.231  67.604  1.00  0.00    -0.149 C  
HETATM    6  CA  UNL     1      -8.812   7.908  68.271  1.00  0.00    -0.129 C  
HETATM    7  OXT UNL     1     -10.144   6.992  66.465  1.00  0.00    -0.173 OA 
HETATM    8  N   UNL     1      -8.947   9.208  67.850  1.00  0.00    -0.128 N  
HETATM    9  C   UNL     1      -9.733   6.892  67.613  1.00  0.00    -0.127 C  
HETATM   10  O   UNL     1     -10.334   9.705  65.991  1.00  0.00    -0.218 OA 
HETATM   11  C   UNL     1      -9.637   9.934  66.947  1.00  0.00    -0.179 C  
HETATM   12  O   UNL     1     -10.097   5.837  68.375  1.00  0.00    -0.146 OA 
ENDROOT
BRANCH   4  13
HETATM   13  C   UNL     1      -7.609   6.321  69.807  1.00  0.00    -0.086 C  
HETATM   14  C   UNL     1      -8.090   5.746  70.919  1.00  0.00    -0.119 C  
BRANCH  14  15
HETATM   15  C   UNL     1      -9.040   6.280  71.835  1.00  0.00    -0.143 A  
HETATM   16  C   UNL     1      -8.808   7.093  72.945  1.00  0.00    -0.129 A  
HETATM   17  N   UNL     1      -9.883   7.249  73.807  1.00  0.00    -0.303 NA 
HETATM   18  S   UNL     1     -10.719   5.865  71.813  1.00  0.00    -0.252 SA 
HETATM   19  C   UNL     1      -7.538   7.776  73.321  1.00  0.00    -0.149 C  
HETATM   20  C   UNL     1     -10.933   6.633  73.321  1.00  0.00    -0.207 A  
ENDBRANCH  14  15
ENDBRANCH   4  13
BRANCH   5  21
HETATM   21  N   UNL     1      -9.752  11.989  68.685  1.00  0.00    -0.367 N  
HETATM   22  C   UNL     1     -10.830  12.858  68.683  1.00  0.00    -0.258 C  
HETATM   23  O   UNL     1     -11.340  13.144  69.768  1.00  0.00    -0.176 OA 
HETATM   24  H   UNL     1      -9.359  11.834  69.613  1.00  0.00     0.000 HD 
BRANCH  22  25
HETATM   25  C   UNL     1     -11.320  13.617  67.465  1.00  0.00    -0.308 C  
BRANCH  25  26
HETATM   26  C   UNL     1     -10.566  14.786  66.944  1.00  0.00    -0.294 A  
HETATM   27  H2  UNL     1      -9.852  18.647  65.249  1.00  0.00     0.000 HD 
HETATM   28  H1  UNL     1     -11.503  18.085  64.972  1.00  0.00     0.000 HD 
HETATM   29  C   UNL     1      -9.217  14.996  67.208  1.00  0.00    -0.201 A  
HETATM   30  N   UNL     1     -11.131  15.797  66.162  1.00  0.00    -0.160 NA 
HETATM   31  S   UNL     1      -8.702  16.506  66.601  1.00  0.00    -0.279 SA 
HETATM   32  N   UNL     1     -10.567  17.927  65.347  1.00  0.00    -0.599 NA 
HETATM   33  C   UNL     1     -10.274  16.773  65.970  1.00  0.00    -0.346 A  
ENDBRANCH  25  26
BRANCH  25  34
HETATM   34  N   UNL     1     -12.320  13.269  66.703  1.00  0.00    -0.311 NA 
HETATM   35  H   UNL     1     -13.191  13.797  66.759  1.00  0.00     0.000 HD 
BRANCH  34  36
HETATM   36  O   UNL     1     -12.235  12.194  65.812  1.00  0.00    -0.586 OA 
HETATM   37  C   UNL     1     -12.037  12.420  64.431  1.00  0.00    -0.426 C  
ENDBRANCH  34  36
ENDBRANCH  25  34
ENDBRANCH  22  25
ENDBRANCH   5  21
TORSDOF 7
ENDMDL
MODEL       96
REMARK 921   NORMALIZED FREE ENERGY PREDICTED BY IDOCK:   -5.19 KCAL/MOL
REMARK 922        TOTAL FREE ENERGY PREDICTED BY IDOCK:   -8.83 KCAL/MOL
REMARK 923 INTER-LIGAND FREE ENERGY PREDICTED BY IDOCK:   -7.47 KCAL/MOL
REMARK 924 INTRA-LIGAND FREE ENERGY PREDICTED BY IDOCK:   -1.36 KCAL/MOL
REMARK 927      BINDING AFFINITY PREDICTED BY RF-SCORE:    0.00 PKD
ROOT
HETATM    1  C   UNL     1      -9.615  10.225  65.649  1.00  0.00    -0.232 C  
HETATM    2  S   UNL     1      -7.889  10.203  65.183  1.00  0.00    -0.139 SA 
HETATM    3  C   UNL     1      -7.611   8.534  65.752  1.00  0.00    -0.085 C  
HETATM    4  C   UNL     1      -8.272   8.135  67.065  1.00  0.00    -0.115 C  
HETATM    5  CA  UNL     1     -10.182  11.627  66.021  1.00  0.00    -0.232 C  
HETATM    6  CA  UNL     1      -9.297   8.792  67.668  1.00  0.00    -0.137 C  
HETATM    7  OXT UNL     1     -11.103   8.621  69.276  1.00  0.00    -0.048 OA 
HETATM    8  N   UNL     1      -9.805   9.913  67.060  1.00  0.00    -0.181 N  
HETATM    9  C   UNL     1      -9.932   8.403  68.994  1.00  0.00    -0.190 C  
HETATM   10  O   UNL     1     -11.755  10.943  67.932  1.00  0.00    -0.557 OA 
HETATM   11  C   UNL     1     -10.784  10.825  67.229  1.00  0.00    -0.274 C  
HETATM   12  O   UNL     1      -9.123   7.787  69.885  1.00  0.00    -0.146 OA 
ENDROOT
BRANCH   4  13
HETATM   13  C   UNL     1      -7.608   6.931  67.551  1.00  0.00    -0.109 C  
HETATM   14  C   UNL     1      -7.689   5.670  67.105  1.00  0.00    -0.101 C  
BRANCH  14  15
HETATM   15  C   UNL     1      -8.452   5.182  66.005  1.00  0.00    -0.118 A  
HETATM   16  C   UNL     1      -9.834   5.017  65.917  1.00  0.00    -0.164 A  
HETATM   17  N   UNL     1     -10.281   4.281  64.830  1.00  0.00    -0.202 NA 
HETATM   18  S   UNL     1      -7.740   4.537  64.567  1.00  0.00    -0.083 SA 
HETATM   19  C   UNL     1     -10.870   5.507  66.871  1.00  0.00    -0.224 C  
HETATM   20  C   UNL     1      -9.266   3.963  64.064  1.00  0.00    -0.141 A  
ENDBRANCH  14  15
ENDBRANCH   4  13
BRANCH   5  21
HETATM   21  N   UNL     1      -9.187  12.732  66.197  1.00  0.00    -0.441 N  
HETATM   22  C   UNL     1      -9.244  13.970  66.815  1.00  0.00    -0.265 C  
HETATM   23  O   UNL     1      -8.183  14.568  67.004  1.00  0.00    -0.200 OA 
HETATM   24  H   UNL     1      -8.280  12.532  65.774  1.00  0.00     0.000 HD 
BRANCH  22  25
HETATM   25  C   UNL     1     -10.526  14.721  67.119  1.00  0.00    -0.265 C  
BRANCH  25  26
HETATM   26  C   UNL     1     -10.560  16.206  67.102  1.00  0.00    -0.294 A  
HETATM   27  H2  UNL     1     -10.337  20.223  68.552  1.00  0.00     0.000 HD 
HETATM   28  H1  UNL     1     -10.552  19.049  69.853  1.00  0.00     0.000 HD 
HETATM   29  C   UNL     1     -10.469  16.952  65.933  1.00  0.00    -0.285 A  
HETATM   30  N   UNL     1     -10.662  16.999  68.248  1.00  0.00    -0.373 NA 
HETATM   31  S   UNL     1     -10.375  18.622  66.278  1.00  0.00    -0.428 SA 
HETATM   32  N   UNL     1     -10.465  19.259  68.858  1.00  0.00    -0.064 NA 
HETATM   33  C   UNL     1     -10.520  18.269  67.950  1.00  0.00    -0.388 A  
ENDBRANCH  25  26
BRANCH  25  34
HETATM   34  N   UNL     1     -11.703  14.181  67.284  1.00  0.00    -0.372 NA 
HETATM   35  H   UNL     1     -11.858  13.571  68.085  1.00  0.00     0.000 HD 
BRANCH  34  36
HETATM   36  O   UNL     1     -12.757  14.415  66.394  1.00  0.00    -0.242 OA 
HETATM   37  C   UNL     1     -12.892  13.637  65.221  1.00  0.00    -0.369 C  
ENDBRANCH  34  36
ENDBRANCH  25  34
ENDBRANCH  22  25
ENDBRANCH   5  21
TORSDOF 7
ENDMDL
MODEL       97
REMARK 921   NORMALIZED FREE ENERGY PREDICTED BY IDOCK:   -5.15 KCAL/MOL
REMARK 922        TOTAL FREE ENERGY PREDICTED BY IDOCK:   -8.77 KCAL/MOL
REMARK 923 INTER-LIGAND FREE ENERGY PREDICTED BY IDOCK:   -6.95 KCAL/MOL
REMARK 924 INTRA-LIGAND FREE ENERGY PREDICTED BY IDOCK:   -1.82 KCAL/MOL
REMARK 927      BINDING AFFINITY PREDICTED BY RF-SCORE:    0.00 PKD
ROOT
HETATM    1  C   UNL     1      -7.416  14.405  68.607  1.00  0.00    -0.126 C  
HETATM    2  S   UNL     1      -5.819  14.623  67.833  1.00  0.00    -0.096 SA 
HETATM    3  C   UNL     1      -6.184  16.256  67.213  1.00  0.00    -0.170 C  
HETATM    4  C   UNL     1      -7.581  16.483  66.649  1.00  0.00    -0.310 C  
HETATM    5  CA  UNL     1      -7.911  12.932  68.702  1.00  0.00    -0.024 C  
HETATM    6  CA  UNL     1      -8.662  15.688  66.864  1.00  0.00    -0.253 C  
HETATM    7  OXT UNL     1     -11.081  15.558  66.825  1.00  0.00    -0.299 OA 
HETATM    8  N   UNL     1      -8.512  14.580  67.661  1.00  0.00    -0.170 N  
HETATM    9  C   UNL     1     -10.045  15.905  66.273  1.00  0.00    -0.301 C  
HETATM   10  O   UNL     1     -10.416  13.308  68.279  1.00  0.00    -0.237 OA 
HETATM   11  C   UNL     1      -9.245  13.572  68.176  1.00  0.00    -0.208 C  
HETATM   12  O   UNL     1     -10.090  16.515  65.068  1.00  0.00    -0.483 OA 
ENDROOT
BRANCH   4  13
HETATM   13  C   UNL     1      -7.545  17.696  65.842  1.00  0.00    -0.160 C  
HETATM   14  C   UNL     1      -8.034  18.916  66.109  1.00  0.00    -0.256 C  
BRANCH  14  15
HETATM   15  C   UNL     1      -8.714  19.344  67.285  1.00  0.00    -0.296 A  
HETATM   16  C   UNL     1      -8.189  19.546  68.562  1.00  0.00    -0.338 A  
HETATM   17  N   UNL     1      -9.123  19.710  69.573  1.00  0.00     0.110 NA 
HETATM   18  S   UNL     1     -10.428  19.552  67.369  1.00  0.00    -0.482 SA 
HETATM   19  C   UNL     1      -6.752  19.570  68.960  1.00  0.00    -0.363 C  
HETATM   20  C   UNL     1     -10.330  19.713  69.064  1.00  0.00    -0.125 A  
ENDBRANCH  14  15
ENDBRANCH   4  13
BRANCH   5  21
HETATM   21  N   UNL     1      -7.140  11.910  67.924  1.00  0.00    -0.086 N  
HETATM   22  C   UNL     1      -7.514  10.904  67.049  1.00  0.00    -0.122 C  
HETATM   23  O   UNL     1      -6.632  10.371  66.374  1.00  0.00    -0.084 OA 
HETATM   24  H   UNL     1      -6.132  11.967  68.068  1.00  0.00     0.000 HD 
BRANCH  22  25
HETATM   25  C   UNL     1      -8.900  10.292  66.986  1.00  0.00    -0.136 C  
BRANCH  25  26
HETATM   26  C   UNL     1      -9.463   9.564  68.151  1.00  0.00    -0.133 A  
HETATM   27  H2  UNL     1     -11.360   8.936  71.933  1.00  0.00     0.000 HD 
HETATM   28  H1  UNL     1     -10.769  10.588  71.743  1.00  0.00     0.000 HD 
HETATM   29  C   UNL     1      -9.778   8.210  68.120  1.00  0.00    -0.161 A  
HETATM   30  N   UNL     1      -9.754  10.161  69.381  1.00  0.00    -0.219 NA 
HETATM   31  S   UNL     1     -10.553   7.727  69.562  1.00  0.00    -0.195 SA 
HETATM   32  N   UNL     1     -10.875   9.641  71.380  1.00  0.00    -0.305 NA 
HETATM   33  C   UNL     1     -10.376   9.319  70.173  1.00  0.00    -0.222 A  
ENDBRANCH  25  26
BRANCH  25  34
HETATM   34  N   UNL     1      -9.754  10.442  66.011  1.00  0.00    -0.199 NA 
HETATM   35  H   UNL     1      -9.513  10.094  65.084  1.00  0.00     0.000 HD 
BRANCH  34  36
HETATM   36  O   UNL     1     -10.992  11.068  66.201  1.00  0.00    -0.205 OA 
HETATM   37  C   UNL     1     -11.423  12.086  65.320  1.00  0.00    -0.302 C  
ENDBRANCH  34  36
ENDBRANCH  25  34
ENDBRANCH  22  25
ENDBRANCH   5  21
TORSDOF 7
ENDMDL
MODEL       98
REMARK 921   NORMALIZED FREE ENERGY PREDICTED BY IDOCK:   -5.15 KCAL/MOL
REMARK 922        TOTAL FREE ENERGY PREDICTED BY IDOCK:   -8.77 KCAL/MOL
REMARK 923 INTER-LIGAND FREE ENERGY PREDICTED BY IDOCK:   -8.01 KCAL/MOL
REMARK 924 INTRA-LIGAND FREE ENERGY PREDICTED BY IDOCK:   -0.76 KCAL/MOL
REMARK 927      BINDING AFFINITY PREDICTED BY RF-SCORE:    0.00 PKD
ROOT
HETATM    1  C   UNL     1     -10.650  14.083  68.678  1.00  0.00    -0.257 C  
HETATM    2  S   UNL     1      -9.493  15.068  69.619  1.00  0.00     0.077 SA 
HETATM    3  C   UNL     1     -10.166  16.630  69.079  1.00  0.00    -0.301 C  
HETATM    4  C   UNL     1     -10.572  16.737  67.615  1.00  0.00    -0.325 C  
HETATM    5  CA  UNL     1     -10.118  12.692  68.221  1.00  0.00    -0.233 C  
HETATM    6  CA  UNL     1     -10.781  15.691  66.772  1.00  0.00    -0.300 C  
HETATM    7  OXT UNL     1     -11.826  14.974  64.707  1.00  0.00    -0.387 OA 
HETATM    8  N   UNL     1     -10.626  14.417  67.258  1.00  0.00    -0.276 N  
HETATM    9  C   UNL     1     -11.158  15.807  65.304  1.00  0.00    -0.273 C  
HETATM   10  O   UNL     1     -11.228  12.562  65.909  1.00  0.00    -0.294 OA 
HETATM   11  C   UNL     1     -10.753  13.136  66.856  1.00  0.00    -0.263 C  
HETATM   12  O   UNL     1     -10.706  16.904  64.657  1.00  0.00    -0.756 OA 
ENDROOT
BRANCH   4  13
HETATM   13  C   UNL     1     -10.693  18.152  67.287  1.00  0.00    -0.336 C  
HETATM   14  C   UNL     1      -9.772  19.125  67.344  1.00  0.00    -0.389 C  
BRANCH  14  15
HETATM   15  C   UNL     1      -8.407  19.011  67.733  1.00  0.00    -0.288 A  
HETATM   16  C   UNL     1      -7.459  18.085  67.299  1.00  0.00    -0.199 A  
HETATM   17  N   UNL     1      -6.284  18.042  68.034  1.00  0.00    -0.173 NA 
HETATM   18  S   UNL     1      -7.696  19.960  68.992  1.00  0.00     0.000 SA 
HETATM   19  C   UNL     1      -7.580  17.124  66.166  1.00  0.00    -0.304 C  
HETATM   20  C   UNL     1      -6.306  18.970  68.958  1.00  0.00    -0.267 A  
ENDBRANCH  14  15
ENDBRANCH   4  13
BRANCH   5  21
HETATM   21  N   UNL     1      -8.650  12.443  68.389  1.00  0.00    -0.276 N  
HETATM   22  C   UNL     1      -7.905  11.305  68.650  1.00  0.00    -0.139 C  
HETATM   23  O   UNL     1      -6.684  11.370  68.497  1.00  0.00    -0.062 OA 
HETATM   24  H   UNL     1      -8.083  13.286  68.292  1.00  0.00     0.000 HD 
BRANCH  22  25
HETATM   25  C   UNL     1      -8.459  10.040  69.275  1.00  0.00    -0.163 C  
BRANCH  25  26
HETATM   26  C   UNL     1      -8.740   8.842  68.443  1.00  0.00    -0.135 A  
HETATM   27  H2  UNL     1     -10.989   5.937  66.253  1.00  0.00     0.000 HD 
HETATM   28  H1  UNL     1     -11.995   6.867  67.367  1.00  0.00     0.000 HD 
HETATM   29  C   UNL     1      -7.763   8.189  67.701  1.00  0.00    -0.102 A  
HETATM   30  N   UNL     1     -10.005   8.265  68.304  1.00  0.00    -0.184 NA 
HETATM   31  S   UNL     1      -8.447   6.957  66.737  1.00  0.00    -0.121 SA 
HETATM   32  N   UNL     1     -11.078   6.654  66.972  1.00  0.00    -0.403 NA 
HETATM   33  C   UNL     1      -9.988   7.315  67.398  1.00  0.00    -0.174 A  
ENDBRANCH  25  26
BRANCH  25  34
HETATM   34  N   UNL     1      -8.613   9.827  70.553  1.00  0.00    -0.345 NA 
HETATM   35  H   UNL     1      -9.554   9.824  70.944  1.00  0.00     0.000 HD 
BRANCH  34  36
HETATM   36  O   UNL     1      -7.524   9.602  71.403  1.00  0.00    -0.281 OA 
HETATM   37  C   UNL     1      -7.103   8.285  71.697  1.00  0.00    -0.082 C  
ENDBRANCH  34  36
ENDBRANCH  25  34
ENDBRANCH  22  25
ENDBRANCH   5  21
TORSDOF 7
ENDMDL
MODEL       99
REMARK 921   NORMALIZED FREE ENERGY PREDICTED BY IDOCK:   -5.14 KCAL/MOL
REMARK 922        TOTAL FREE ENERGY PREDICTED BY IDOCK:   -8.76 KCAL/MOL
REMARK 923 INTER-LIGAND FREE ENERGY PREDICTED BY IDOCK:   -8.40 KCAL/MOL
REMARK 924 INTRA-LIGAND FREE ENERGY PREDICTED BY IDOCK:   -0.36 KCAL/MOL
REMARK 927      BINDING AFFINITY PREDICTED BY RF-SCORE:    0.00 PKD
ROOT
HETATM    1  C   UNL     1      -9.719  10.692  67.573  1.00  0.00    -0.166 C  
HETATM    2  S   UNL     1     -11.399  11.201  67.236  1.00  0.00    -0.135 SA 
HETATM    3  C   UNL     1     -10.935  12.429  66.028  1.00  0.00    -0.289 C  
HETATM    4  C   UNL     1      -9.704  13.271  66.338  1.00  0.00    -0.279 C  
HETATM    5  CA  UNL     1      -9.466  10.152  69.012  1.00  0.00    -0.190 C  
HETATM    6  CA  UNL     1      -8.750  12.971  67.258  1.00  0.00    -0.209 C  
HETATM    7  OXT UNL     1      -6.471  13.381  67.973  1.00  0.00    -0.098 OA 
HETATM    8  N   UNL     1      -8.879  11.811  67.981  1.00  0.00    -0.158 N  
HETATM    9  C   UNL     1      -7.540  13.832  67.582  1.00  0.00    -0.181 C  
HETATM   10  O   UNL     1      -7.117  11.113  69.407  1.00  0.00    -0.117 OA 
HETATM   11  C   UNL     1      -8.217  11.099  68.916  1.00  0.00    -0.104 C  
HETATM   12  O   UNL     1      -7.695  15.165  67.421  1.00  0.00    -0.165 OA 
ENDROOT
BRANCH   4  13
HETATM   13  C   UNL     1      -9.738  14.446  65.476  1.00  0.00    -0.214 C  
HETATM   14  C   UNL     1     -10.090  15.708  65.764  1.00  0.00    -0.394 C  
BRANCH  14  15
HETATM   15  C   UNL     1     -10.512  16.230  67.019  1.00  0.00    -0.306 A  
HETATM   16  C   UNL     1     -10.041  17.360  67.688  1.00  0.00    -0.327 A  
HETATM   17  N   UNL     1     -10.447  17.486  69.008  1.00  0.00    -0.322 NA 
HETATM   18  S   UNL     1     -11.639  15.423  68.053  1.00  0.00    -0.218 SA 
HETATM   19  C   UNL     1      -9.132  18.416  67.159  1.00  0.00    -0.267 C  
HETATM   20  C   UNL     1     -11.274  16.516  69.311  1.00  0.00    -0.213 A  
ENDBRANCH  14  15
ENDBRANCH   4  13
BRANCH   5  21
HETATM   21  N   UNL     1     -10.563  10.356  70.011  1.00  0.00    -0.398 N  
HETATM   22  C   UNL     1     -11.202   9.511  70.902  1.00  0.00    -0.341 C  
HETATM   23  O   UNL     1     -11.911  10.021  71.771  1.00  0.00    -0.354 OA 
HETATM   24  H   UNL     1     -10.910  11.314  70.041  1.00  0.00     0.000 HD 
BRANCH  22  25
HETATM   25  C   UNL     1     -11.234   8.000  70.782  1.00  0.00    -0.265 C  
BRANCH  25  26
HETATM   26  C   UNL     1     -11.030   7.137  71.974  1.00  0.00    -0.235 A  
HETATM   27  H2  UNL     1     -11.054   3.627  74.418  1.00  0.00     0.000 HD 
HETATM   28  H1  UNL     1     -12.130   3.485  73.025  1.00  0.00     0.000 HD 
HETATM   29  C   UNL     1     -10.193   7.487  73.027  1.00  0.00    -0.306 A  
HETATM   30  N   UNL     1     -11.633   5.889  72.150  1.00  0.00    -0.286 NA 
HETATM   31  S   UNL     1     -10.058   6.211  74.153  1.00  0.00    -0.317 SA 
HETATM   32  N   UNL     1     -11.474   4.033  73.582  1.00  0.00    -0.174 NA 
HETATM   33  C   UNL     1     -11.161   5.289  73.217  1.00  0.00    -0.316 A  
ENDBRANCH  25  26
BRANCH  25  34
HETATM   34  N   UNL     1     -11.560   7.328  69.711  1.00  0.00    -0.510 NA 
HETATM   35  H   UNL     1     -12.547   7.184  69.500  1.00  0.00     0.000 HD 
BRANCH  34  36
HETATM   36  O   UNL     1     -10.597   6.801  68.845  1.00  0.00    -0.201 OA 
HETATM   37  C   UNL     1     -10.972   6.279  67.586  1.00  0.00    -0.342 C  
ENDBRANCH  34  36
ENDBRANCH  25  34
ENDBRANCH  22  25
ENDBRANCH   5  21
TORSDOF 7
ENDMDL
MODEL      100
REMARK 921   NORMALIZED FREE ENERGY PREDICTED BY IDOCK:   -5.14 KCAL/MOL
REMARK 922        TOTAL FREE ENERGY PREDICTED BY IDOCK:   -8.76 KCAL/MOL
REMARK 923 INTER-LIGAND FREE ENERGY PREDICTED BY IDOCK:   -7.60 KCAL/MOL
REMARK 924 INTRA-LIGAND FREE ENERGY PREDICTED BY IDOCK:   -1.16 KCAL/MOL
REMARK 927      BINDING AFFINITY PREDICTED BY RF-SCORE:    0.00 PKD
ROOT
HETATM    1  C   UNL     1      -7.809  12.392  67.512  1.00  0.00    -0.169 C  
HETATM    2  S   UNL     1      -6.945  11.847  68.979  1.00  0.00    -0.075 SA 
HETATM    3  C   UNL     1      -8.001  10.434  69.248  1.00  0.00    -0.157 C  
HETATM    4  C   UNL     1      -9.493  10.634  69.013  1.00  0.00    -0.202 C  
HETATM    5  CA  UNL     1      -7.766  13.927  67.249  1.00  0.00    -0.084 C  
HETATM    6  CA  UNL     1     -10.056  11.656  68.317  1.00  0.00    -0.202 C  
HETATM    7  OXT UNL     1     -12.028  12.411  67.128  1.00  0.00    -0.528 OA 
HETATM    8  N   UNL     1      -9.231  12.602  67.761  1.00  0.00    -0.187 N  
HETATM    9  C   UNL     1     -11.548  11.865  68.112  1.00  0.00    -0.334 C  
HETATM   10  O   UNL     1     -10.139  14.256  66.323  1.00  0.00    -0.278 OA 
HETATM   11  C   UNL     1      -9.300  13.709  66.994  1.00  0.00    -0.248 C  
HETATM   12  O   UNL     1     -12.354  11.411  69.097  1.00  0.00    -0.356 OA 
ENDROOT
BRANCH   4  13
HETATM   13  C   UNL     1     -10.199   9.539  69.667  1.00  0.00    -0.234 C  
HETATM   14  C   UNL     1     -10.320   8.256  69.295  1.00  0.00    -0.223 C  
BRANCH  14  15
HETATM   15  C   UNL     1      -9.762   7.625  68.148  1.00  0.00    -0.153 A  
HETATM   16  C   UNL     1      -8.928   6.508  68.095  1.00  0.00    -0.116 A  
HETATM   17  N   UNL     1      -8.325   6.268  66.870  1.00  0.00    -0.109 NA 
HETATM   18  S   UNL     1      -9.909   8.262  66.546  1.00  0.00    -0.228 SA 
HETATM   19  C   UNL     1      -8.589   5.574  69.207  1.00  0.00    -0.104 C  
HETATM   20  C   UNL     1      -8.754   7.137  65.988  1.00  0.00    -0.147 A  
ENDBRANCH  14  15
ENDBRANCH   4  13
BRANCH   5  21
HETATM   21  N   UNL     1      -7.243  14.786  68.359  1.00  0.00    -0.108 N  
HETATM   22  C   UNL     1      -7.164  16.156  68.541  1.00  0.00    -0.144 C  
HETATM   23  O   UNL     1      -6.897  16.573  69.669  1.00  0.00    -0.215 OA 
HETATM   24  H   UNL     1      -6.868  14.251  69.143  1.00  0.00     0.000 HD 
BRANCH  22  25
HETATM   25  C   UNL     1      -7.209  17.176  67.419  1.00  0.00    -0.154 C  
BRANCH  25  26
HETATM   26  C   UNL     1      -8.506  17.709  66.929  1.00  0.00    -0.241 A  
HETATM   27  H2  UNL     1     -12.160  17.916  64.716  1.00  0.00     0.000 HD 
HETATM   28  H1  UNL     1     -11.022  16.756  64.027  1.00  0.00     0.000 HD 
HETATM   29  C   UNL     1      -9.209  18.712  67.585  1.00  0.00    -0.281 A  
HETATM   30  N   UNL     1      -9.159  17.248  65.782  1.00  0.00    -0.510 NA 
HETATM   31  S   UNL     1     -10.728  18.976  66.852  1.00  0.00    -0.332 SA 
HETATM   32  N   UNL     1     -11.248  17.461  64.729  1.00  0.00    -0.782 NA 
HETATM   33  C   UNL     1     -10.348  17.791  65.672  1.00  0.00    -0.091 A  
ENDBRANCH  25  26
BRANCH  25  34
HETATM   34  N   UNL     1      -6.175  17.765  66.884  1.00  0.00    -0.152 NA 
HETATM   35  H   UNL     1      -5.384  18.010  67.479  1.00  0.00     0.000 HD 
BRANCH  34  36
HETATM   36  O   UNL     1      -6.120  18.072  65.521  1.00  0.00    -0.217 OA 
HETATM   37  C   UNL     1      -5.985  19.412  65.091  1.00  0.00    -0.240 C  
ENDBRANCH  34  36
ENDBRANCH  25  34
ENDBRANCH  22  25
ENDBRANCH   5  21
TORSDOF 7
ENDMDL
MODEL      101
REMARK 921   NORMALIZED FREE ENERGY PREDICTED BY IDOCK:   -5.13 KCAL/MOL
REMARK 922        TOTAL FREE ENERGY PREDICTED BY IDOCK:   -8.75 KCAL/MOL
REMARK 923 INTER-LIGAND FREE ENERGY PREDICTED BY IDOCK:   -7.31 KCAL/MOL
REMARK 924 INTRA-LIGAND FREE ENERGY PREDICTED BY IDOCK:   -1.43 KCAL/MOL
REMARK 927      BINDING AFFINITY PREDICTED BY RF-SCORE:    0.00 PKD
ROOT
HETATM    1  C   UNL     1     -10.994   9.485  68.315  1.00  0.00    -0.079 C  
HETATM    2  S   UNL     1      -9.996   9.108  66.880  1.00  0.00    -0.261 SA 
HETATM    3  C   UNL     1     -10.458   7.385  66.836  1.00  0.00    -0.309 C  
HETATM    4  C   UNL     1     -10.555   6.663  68.173  1.00  0.00    -0.294 C  
HETATM    5  CA  UNL     1     -10.460  10.645  69.207  1.00  0.00    -0.227 C  
HETATM    6  CA  UNL     1     -10.648   7.259  69.391  1.00  0.00    -0.229 C  
HETATM    7  OXT UNL     1     -11.295   6.968  71.708  1.00  0.00    -0.243 OA 
HETATM    8  N   UNL     1     -10.666   8.630  69.450  1.00  0.00    -0.198 N  
HETATM    9  C   UNL     1     -10.714   6.530  70.724  1.00  0.00    -0.241 C  
HETATM   10  O   UNL     1     -11.087   9.714  71.517  1.00  0.00    -0.370 OA 
HETATM   11  C   UNL     1     -10.781   9.623  70.355  1.00  0.00    -0.298 C  
HETATM   12  O   UNL     1     -10.081   5.338  70.784  1.00  0.00    -0.196 OA 
ENDROOT
BRANCH   4  13
HETATM   13  C   UNL     1     -10.527   5.229  67.910  1.00  0.00    -0.154 C  
HETATM   14  C   UNL     1      -9.497   4.442  67.569  1.00  0.00    -0.201 C  
BRANCH  14  15
HETATM   15  C   UNL     1      -8.135   4.817  67.392  1.00  0.00    -0.102 A  
HETATM   16  C   UNL     1      -7.398   4.865  66.208  1.00  0.00    -0.078 A  
HETATM   17  N   UNL     1      -6.028   5.013  66.361  1.00  0.00    -0.022 NA 
HETATM   18  S   UNL     1      -7.062   5.151  68.706  1.00  0.00    -0.058 SA 
HETATM   19  C   UNL     1      -7.911   4.742  64.813  1.00  0.00    -0.095 C  
HETATM   20  C   UNL     1      -5.738   5.155  67.631  1.00  0.00    -0.017 A  
ENDBRANCH  14  15
ENDBRANCH   4  13
BRANCH   5  21
HETATM   21  N   UNL     1      -9.073  11.132  68.921  1.00  0.00    -0.335 N  
HETATM   22  C   UNL     1      -8.574  12.280  68.328  1.00  0.00    -0.172 C  
HETATM   23  O   UNL     1      -7.370  12.512  68.445  1.00  0.00    -0.101 OA 
HETATM   24  H   UNL     1      -8.345  10.485  69.226  1.00  0.00     0.000 HD 
BRANCH  22  25
HETATM   25  C   UNL     1      -9.365  13.180  67.399  1.00  0.00    -0.213 C  
BRANCH  25  26
HETATM   26  C   UNL     1     -10.112  14.350  67.928  1.00  0.00    -0.228 A  
HETATM   27  H2  UNL     1     -12.568  16.668  70.552  1.00  0.00     0.000 HD 
HETATM   28  H1  UNL     1     -12.735  14.932  70.832  1.00  0.00     0.000 HD 
HETATM   29  C   UNL     1      -9.887  15.651  67.495  1.00  0.00    -0.228 A  
HETATM   30  N   UNL     1     -11.092  14.269  68.921  1.00  0.00    -0.251 NA 
HETATM   31  S   UNL     1     -10.791  16.769  68.415  1.00  0.00    -0.325 SA 
HETATM   32  N   UNL     1     -12.328  15.707  70.308  1.00  0.00    -0.400 NA 
HETATM   33  C   UNL     1     -11.476  15.467  69.297  1.00  0.00    -0.333 A  
ENDBRANCH  25  26
BRANCH  25  34
HETATM   34  N   UNL     1      -9.368  13.114  66.096  1.00  0.00    -0.463 NA 
HETATM   35  H   UNL     1      -8.499  13.286  65.590  1.00  0.00     0.000 HD 
BRANCH  34  36
HETATM   36  O   UNL     1     -10.527  12.815  65.371  1.00  0.00    -0.276 OA 
HETATM   37  C   UNL     1     -10.558  11.709  64.491  1.00  0.00    -0.318 C  
ENDBRANCH  34  36
ENDBRANCH  25  34
ENDBRANCH  22  25
ENDBRANCH   5  21
TORSDOF 7
ENDMDL
MODEL      102
REMARK 921   NORMALIZED FREE ENERGY PREDICTED BY IDOCK:   -5.13 KCAL/MOL
REMARK 922        TOTAL FREE ENERGY PREDICTED BY IDOCK:   -8.75 KCAL/MOL
REMARK 923 INTER-LIGAND FREE ENERGY PREDICTED BY IDOCK:   -7.43 KCAL/MOL
REMARK 924 INTRA-LIGAND FREE ENERGY PREDICTED BY IDOCK:   -1.32 KCAL/MOL
REMARK 927      BINDING AFFINITY PREDICTED BY RF-SCORE:    0.00 PKD
ROOT
HETATM    1  C   UNL     1     -10.194  15.949  67.772  1.00  0.00    -0.260 C  
HETATM    2  S   UNL     1      -9.158  15.335  66.451  1.00  0.00    -0.305 SA 
HETATM    3  C   UNL     1     -10.330  14.099  65.916  1.00  0.00    -0.316 C  
HETATM    4  C   UNL     1     -11.074  13.338  67.006  1.00  0.00    -0.304 C  
HETATM    5  CA  UNL     1      -9.429  16.545  68.991  1.00  0.00    -0.249 C  
HETATM    6  CA  UNL     1     -11.184  13.720  68.305  1.00  0.00    -0.273 C  
HETATM    7  OXT UNL     1     -12.444  13.462  70.359  1.00  0.00    -0.310 OA 
HETATM    8  N   UNL     1     -10.586  14.892  68.697  1.00  0.00    -0.243 N  
HETATM    9  C   UNL     1     -11.904  12.939  69.393  1.00  0.00    -0.312 C  
HETATM   10  O   UNL     1     -10.963  15.732  70.882  1.00  0.00    -0.327 OA 
HETATM   11  C   UNL     1     -10.455  15.668  69.791  1.00  0.00    -0.308 C  
HETATM   12  O   UNL     1     -11.923  11.595  69.250  1.00  0.00    -0.320 OA 
ENDROOT
BRANCH   4  13
HETATM   13  C   UNL     1     -11.641  12.137  66.404  1.00  0.00    -0.429 C  
HETATM   14  C   UNL     1     -11.028  11.027  65.971  1.00  0.00    -0.136 C  
BRANCH  14  15
HETATM   15  C   UNL     1      -9.636  10.730  66.007  1.00  0.00    -0.201 A  
HETATM   16  C   UNL     1      -8.833  10.482  67.120  1.00  0.00    -0.136 A  
HETATM   17  N   UNL     1      -7.466  10.479  66.884  1.00  0.00    -0.106 NA 
HETATM   18  S   UNL     1      -8.617  10.777  64.609  1.00  0.00     0.011 SA 
HETATM   19  C   UNL     1      -9.274  10.256  68.526  1.00  0.00    -0.144 C  
HETATM   20  C   UNL     1      -7.238  10.642  65.604  1.00  0.00    -0.084 A  
ENDBRANCH  14  15
ENDBRANCH   4  13
BRANCH   5  21
HETATM   21  N   UNL     1      -7.950  16.310  69.039  1.00  0.00    -0.234 N  
HETATM   22  C   UNL     1      -6.854  17.156  69.016  1.00  0.00    -0.231 C  
HETATM   23  O   UNL     1      -5.755  16.683  69.311  1.00  0.00    -0.139 OA 
HETATM   24  H   UNL     1      -7.699  15.323  69.103  1.00  0.00     0.000 HD 
BRANCH  22  25
HETATM   25  C   UNL     1      -6.877  18.577  68.486  1.00  0.00    -0.264 C  
BRANCH  25  26
HETATM   26  C   UNL     1      -6.478  18.872  67.086  1.00  0.00    -0.191 A  
HETATM   27  H2  UNL     1      -5.000  21.081  63.734  1.00  0.00     0.000 HD 
HETATM   28  H1  UNL     1      -5.461  22.127  65.080  1.00  0.00     0.000 HD 
HETATM   29  C   UNL     1      -6.251  17.882  66.138  1.00  0.00    -0.237 A  
HETATM   30  N   UNL     1      -6.269  20.161  66.587  1.00  0.00    -0.182 NA 
HETATM   31  S   UNL     1      -5.652  18.549  64.685  1.00  0.00    -0.074 SA 
HETATM   32  N   UNL     1      -5.383  21.195  64.672  1.00  0.00    -0.212 NA 
HETATM   33  C   UNL     1      -5.783  20.117  65.369  1.00  0.00    -0.181 A  
ENDBRANCH  25  26
BRANCH  25  34
HETATM   34  N   UNL     1      -7.349  19.617  69.117  1.00  0.00    -0.346 NA 
HETATM   35  H   UNL     1      -8.037  20.207  68.649  1.00  0.00     0.000 HD 
BRANCH  34  36
HETATM   36  O   UNL     1      -6.942  19.945  70.414  1.00  0.00    -0.091 OA 
HETATM   37  C   UNL     1      -5.612  20.352  70.668  1.00  0.00    -0.292 C  
ENDBRANCH  34  36
ENDBRANCH  25  34
ENDBRANCH  22  25
ENDBRANCH   5  21
TORSDOF 7
ENDMDL
MODEL      103
REMARK 921   NORMALIZED FREE ENERGY PREDICTED BY IDOCK:   -5.10 KCAL/MOL
REMARK 922        TOTAL FREE ENERGY PREDICTED BY IDOCK:   -8.70 KCAL/MOL
REMARK 923 INTER-LIGAND FREE ENERGY PREDICTED BY IDOCK:   -7.84 KCAL/MOL
REMARK 924 INTRA-LIGAND FREE ENERGY PREDICTED BY IDOCK:   -0.86 KCAL/MOL
REMARK 927      BINDING AFFINITY PREDICTED BY RF-SCORE:    0.00 PKD
ROOT
HETATM    1  C   UNL     1     -11.227  10.362  68.500  1.00  0.00    -0.251 C  
HETATM    2  S   UNL     1      -9.940   9.211  68.034  1.00  0.00    -0.187 SA 
HETATM    3  C   UNL     1     -10.767   7.788  68.723  1.00  0.00    -0.062 C  
HETATM    4  C   UNL     1     -11.467   7.979  70.063  1.00  0.00     0.065 C  
HETATM    5  CA  UNL     1     -10.747  11.819  68.770  1.00  0.00    -0.221 C  
HETATM    6  CA  UNL     1     -11.804   9.172  70.618  1.00  0.00    -0.175 C  
HETATM    7  OXT UNL     1     -13.220  10.289  72.237  1.00  0.00    -0.409 OA 
HETATM    8  N   UNL     1     -11.505  10.322  69.931  1.00  0.00    -0.264 N  
HETATM    9  C   UNL     1     -12.476   9.355  71.969  1.00  0.00    -0.365 C  
HETATM   10  O   UNL     1     -12.299  12.410  70.729  1.00  0.00    -0.377 OA 
HETATM   11  C   UNL     1     -11.664  11.657  70.035  1.00  0.00    -0.321 C  
HETATM   12  O   UNL     1     -12.206   8.414  72.902  1.00  0.00    -0.274 OA 
ENDROOT
BRANCH   4  13
HETATM   13  C   UNL     1     -11.705   6.659  70.634  1.00  0.00    -0.452 C  
HETATM   14  C   UNL     1     -10.833   5.778  71.145  1.00  0.00    -0.316 C  
BRANCH  14  15
HETATM   15  C   UNL     1      -9.422   5.924  71.276  1.00  0.00    -0.160 A  
HETATM   16  C   UNL     1      -8.425   5.001  70.961  1.00  0.00    -0.118 A  
HETATM   17  N   UNL     1      -7.157   5.307  71.431  1.00  0.00    -0.064 NA 
HETATM   18  S   UNL     1      -8.674   7.289  72.029  1.00  0.00    -0.117 SA 
HETATM   19  C   UNL     1      -8.576   3.720  70.213  1.00  0.00    -0.103 C  
HETATM   20  C   UNL     1      -7.174   6.476  72.022  1.00  0.00    -0.086 A  
ENDBRANCH  14  15
ENDBRANCH   4  13
BRANCH   5  21
HETATM   21  N   UNL     1      -9.268  12.035  68.863  1.00  0.00    -0.392 N  
HETATM   22  C   UNL     1      -8.395  12.905  68.231  1.00  0.00    -0.157 C  
HETATM   23  O   UNL     1      -7.256  13.012  68.690  1.00  0.00    -0.098 OA 
HETATM   24  H   UNL     1      -8.809  11.414  69.530  1.00  0.00     0.000 HD 
BRANCH  22  25
HETATM   25  C   UNL     1      -8.680  13.603  66.916  1.00  0.00    -0.146 C  
BRANCH  25  26
HETATM   26  C   UNL     1      -9.794  13.153  66.042  1.00  0.00    -0.260 A  
HETATM   27  H2  UNL     1     -13.379  13.352  63.718  1.00  0.00     0.000 HD 
HETATM   28  H1  UNL     1     -13.228  14.708  64.839  1.00  0.00     0.000 HD 
HETATM   29  C   UNL     1      -9.748  11.979  65.300  1.00  0.00    -0.164 A  
HETATM   30  N   UNL     1     -10.982  13.866  65.859  1.00  0.00    -0.283 NA 
HETATM   31  S   UNL     1     -11.113  11.841  64.284  1.00  0.00    -0.354 SA 
HETATM   32  N   UNL     1     -12.867  13.833  64.457  1.00  0.00    -0.633 NA 
HETATM   33  C   UNL     1     -11.720  13.312  64.925  1.00  0.00    -0.342 A  
ENDBRANCH  25  26
BRANCH  25  34
HETATM   34  N   UNL     1      -8.104  14.695  66.494  1.00  0.00    -0.230 NA 
HETATM   35  H   UNL     1      -7.204  14.627  66.018  1.00  0.00     0.000 HD 
BRANCH  34  36
HETATM   36  O   UNL     1      -8.682  15.956  66.674  1.00  0.00    -0.232 OA 
HETATM   37  C   UNL     1      -7.916  17.130  66.493  1.00  0.00    -0.289 C  
ENDBRANCH  34  36
ENDBRANCH  25  34
ENDBRANCH  22  25
ENDBRANCH   5  21
TORSDOF 7
ENDMDL
MODEL      104
REMARK 921   NORMALIZED FREE ENERGY PREDICTED BY IDOCK:   -5.09 KCAL/MOL
REMARK 922        TOTAL FREE ENERGY PREDICTED BY IDOCK:   -8.69 KCAL/MOL
REMARK 923 INTER-LIGAND FREE ENERGY PREDICTED BY IDOCK:   -7.36 KCAL/MOL
REMARK 924 INTRA-LIGAND FREE ENERGY PREDICTED BY IDOCK:   -1.33 KCAL/MOL
REMARK 927      BINDING AFFINITY PREDICTED BY RF-SCORE:    0.00 PKD
ROOT
HETATM    1  C   UNL     1     -11.359   6.867  69.954  1.00  0.00    -0.271 C  
HETATM    2  S   UNL     1     -10.553   6.683  68.369  1.00  0.00    -0.261 SA 
HETATM    3  C   UNL     1     -10.314   4.923  68.536  1.00  0.00     0.035 C  
HETATM    4  C   UNL     1      -9.895   4.411  69.908  1.00  0.00    -0.290 C  
HETATM    5  CA  UNL     1     -11.171   8.255  70.636  1.00  0.00    -0.256 C  
HETATM    6  CA  UNL     1     -10.003   5.096  71.076  1.00  0.00    -0.206 C  
HETATM    7  OXT UNL     1     -10.083   4.918  73.492  1.00  0.00    -0.149 OA 
HETATM    8  N   UNL     1     -10.539   6.360  71.048  1.00  0.00    -0.226 N  
HETATM    9  C   UNL     1      -9.555   4.589  72.438  1.00  0.00    -0.146 C  
HETATM   10  O   UNL     1     -10.988   7.493  73.082  1.00  0.00    -0.376 OA 
HETATM   11  C   UNL     1     -10.873   7.358  71.890  1.00  0.00    -0.229 C  
HETATM   12  O   UNL     1      -8.510   3.732  72.441  1.00  0.00    -0.087 OA 
ENDROOT
BRANCH   4  13
HETATM   13  C   UNL     1      -9.361   3.065  69.738  1.00  0.00    -0.215 C  
HETATM   14  C   UNL     1      -8.268   2.655  69.079  1.00  0.00    -0.074 C  
BRANCH  14  15
HETATM   15  C   UNL     1      -7.323   3.455  68.377  1.00  0.00    -0.050 A  
HETATM   16  C   UNL     1      -6.441   4.406  68.892  1.00  0.00    -0.040 A  
HETATM   17  N   UNL     1      -5.822   5.219  67.955  1.00  0.00    -0.017 NA 
HETATM   18  S   UNL     1      -7.207   3.494  66.651  1.00  0.00    -0.068 SA 
HETATM   19  C   UNL     1      -6.121   4.665  70.325  1.00  0.00    -0.021 C  
HETATM   20  C   UNL     1      -6.163   4.841  66.748  1.00  0.00    -0.032 A  
ENDBRANCH  14  15
ENDBRANCH   4  13
BRANCH   5  21
HETATM   21  N   UNL     1     -10.150   9.170  70.033  1.00  0.00    -0.194 N  
HETATM   22  C   UNL     1     -10.211  10.460  69.533  1.00  0.00    -0.231 C  
HETATM   23  O   UNL     1      -9.147  11.044  69.318  1.00  0.00    -0.065 OA 
HETATM   24  H   UNL     1      -9.219   8.758  69.979  1.00  0.00     0.000 HD 
BRANCH  22  25
HETATM   25  C   UNL     1     -11.483  11.143  69.069  1.00  0.00    -0.296 C  
BRANCH  25  26
HETATM   26  C   UNL     1     -12.027  12.314  69.802  1.00  0.00    -0.295 A  
HETATM   27  H2  UNL     1     -13.510  14.650  73.064  1.00  0.00     0.000 HD 
HETATM   28  H1  UNL     1     -13.556  12.917  73.401  1.00  0.00     0.000 HD 
HETATM   29  C   UNL     1     -11.972  13.611  69.306  1.00  0.00    -0.336 A  
HETATM   30  N   UNL     1     -12.625  12.240  71.063  1.00  0.00    -0.326 NA 
HETATM   31  S   UNL     1     -12.536  14.735  70.460  1.00  0.00    -0.365 SA 
HETATM   32  N   UNL     1     -13.352  13.688  72.765  1.00  0.00    -0.588 NA 
HETATM   33  C   UNL     1     -12.877  13.440  71.532  1.00  0.00    -0.337 A  
ENDBRANCH  25  26
BRANCH  25  34
HETATM   34  N   UNL     1     -12.127  10.882  67.965  1.00  0.00    -0.704 NA 
HETATM   35  H   UNL     1     -13.118  10.649  68.014  1.00  0.00     0.000 HD 
BRANCH  34  36
HETATM   36  O   UNL     1     -11.498  10.913  66.715  1.00  0.00    -0.285 OA 
HETATM   37  C   UNL     1     -11.301  12.139  66.041  1.00  0.00    -0.358 C  
ENDBRANCH  34  36
ENDBRANCH  25  34
ENDBRANCH  22  25
ENDBRANCH   5  21
TORSDOF 7
ENDMDL
MODEL      105
REMARK 921   NORMALIZED FREE ENERGY PREDICTED BY IDOCK:   -5.06 KCAL/MOL
REMARK 922        TOTAL FREE ENERGY PREDICTED BY IDOCK:   -8.64 KCAL/MOL
REMARK 923 INTER-LIGAND FREE ENERGY PREDICTED BY IDOCK:   -6.91 KCAL/MOL
REMARK 924 INTRA-LIGAND FREE ENERGY PREDICTED BY IDOCK:   -1.74 KCAL/MOL
REMARK 927      BINDING AFFINITY PREDICTED BY RF-SCORE:    0.00 PKD
ROOT
HETATM    1  C   UNL     1     -10.604   7.118  68.164  1.00  0.00    -0.192 C  
HETATM    2  S   UNL     1      -9.437   5.853  68.647  1.00  0.00    -0.124 SA 
HETATM    3  C   UNL     1     -10.393   5.309  70.052  1.00  0.00    -0.295 C  
HETATM    4  C   UNL     1     -11.063   6.389  70.891  1.00  0.00    -0.354 C  
HETATM    5  CA  UNL     1      -9.986   8.348  67.436  1.00  0.00    -0.212 C  
HETATM    6  CA  UNL     1     -11.281   7.673  70.502  1.00  0.00    -0.261 C  
HETATM    7  OXT UNL     1     -12.574   9.684  70.898  1.00  0.00    -0.288 OA 
HETATM    8  N   UNL     1     -10.877   8.055  69.247  1.00  0.00    -0.126 N  
HETATM    9  C   UNL     1     -11.925   8.753  71.356  1.00  0.00    -0.310 C  
HETATM   10  O   UNL     1     -11.463  10.201  68.425  1.00  0.00    -0.176 OA 
HETATM   11  C   UNL     1     -10.906   9.132  68.437  1.00  0.00    -0.048 C  
HETATM   12  O   UNL     1     -11.742   8.646  72.691  1.00  0.00    -0.325 OA 
ENDROOT
BRANCH   4  13
HETATM   13  C   UNL     1     -11.424   5.799  72.174  1.00  0.00    -0.295 C  
HETATM   14  C   UNL     1     -10.667   5.583  73.259  1.00  0.00    -0.314 C  
BRANCH  14  15
HETATM   15  C   UNL     1      -9.290   5.898  73.437  1.00  0.00    -0.134 A  
HETATM   16  C   UNL     1      -8.181   5.076  73.235  1.00  0.00    -0.107 A  
HETATM   17  N   UNL     1      -6.980   5.558  73.734  1.00  0.00    -0.084 NA 
HETATM   18  S   UNL     1      -8.737   7.390  74.116  1.00  0.00    -0.224 SA 
HETATM   19  C   UNL     1      -8.150   3.737  72.580  1.00  0.00    -0.088 C  
HETATM   20  C   UNL     1      -7.157   6.756  74.233  1.00  0.00    -0.090 A  
ENDBRANCH  14  15
ENDBRANCH   4  13
BRANCH   5  21
HETATM   21  N   UNL     1      -8.492   8.459  67.451  1.00  0.00    -0.124 N  
HETATM   22  C   UNL     1      -7.606   9.397  66.949  1.00  0.00    -0.091 C  
HETATM   23  O   UNL     1      -6.433   9.340  67.325  1.00  0.00    -0.059 OA 
HETATM   24  H   UNL     1      -8.033   7.684  67.930  1.00  0.00     0.000 HD 
BRANCH  22  25
HETATM   25  C   UNL     1      -7.930  10.378  65.839  1.00  0.00    -0.151 C  
BRANCH  25  26
HETATM   26  C   UNL     1      -9.042  11.353  65.988  1.00  0.00    -0.208 A  
HETATM   27  H2  UNL     1     -12.989  12.980  65.733  1.00  0.00     0.000 HD 
HETATM   28  H1  UNL     1     -12.755  11.608  64.646  1.00  0.00     0.000 HD 
HETATM   29  C   UNL     1      -8.985  12.441  66.850  1.00  0.00    -0.212 A  
HETATM   30  N   UNL     1     -10.256  11.265  65.302  1.00  0.00    -0.261 NA 
HETATM   31  S   UNL     1     -10.481  13.262  66.901  1.00  0.00    -0.262 SA 
HETATM   32  N   UNL     1     -12.385  12.259  65.339  1.00  0.00    -0.563 NA 
HETATM   33  C   UNL     1     -11.104  12.169  65.736  1.00  0.00    -0.319 A  
ENDBRANCH  25  26
BRANCH  25  34
HETATM   34  N   UNL     1      -7.229  10.560  64.755  1.00  0.00    -0.343 NA 
HETATM   35  H   UNL     1      -6.799  11.470  64.591  1.00  0.00     0.000 HD 
BRANCH  34  36
HETATM   36  O   UNL     1      -7.048   9.544  63.810  1.00  0.00    -0.100 OA 
HETATM   37  C   UNL     1      -8.107   8.666  63.489  1.00  0.00    -0.167 C  
ENDBRANCH  34  36
ENDBRANCH  25  34
ENDBRANCH  22  25
ENDBRANCH   5  21
TORSDOF 7
ENDMDL
MODEL      106
REMARK 921   NORMALIZED FREE ENERGY PREDICTED BY IDOCK:   -5.04 KCAL/MOL
REMARK 922        TOTAL FREE ENERGY PREDICTED BY IDOCK:   -8.62 KCAL/MOL
REMARK 923 INTER-LIGAND FREE ENERGY PREDICTED BY IDOCK:   -7.53 KCAL/MOL
REMARK 924 INTRA-LIGAND FREE ENERGY PREDICTED BY IDOCK:   -1.10 KCAL/MOL
REMARK 927      BINDING AFFINITY PREDICTED BY RF-SCORE:    0.00 PKD
ROOT
HETATM    1  C   UNL     1      -9.556  12.369  65.901  1.00  0.00    -0.187 C  
HETATM    2  S   UNL     1     -11.308  12.016  65.851  1.00  0.00    -0.313 SA 
HETATM    3  C   UNL     1     -11.792  13.619  66.468  1.00  0.00    -0.404 C  
HETATM    4  C   UNL     1     -10.948  14.210  67.590  1.00  0.00    -0.278 C  
HETATM    5  CA  UNL     1      -8.638  11.132  66.132  1.00  0.00    -0.172 C  
HETATM    6  CA  UNL     1      -9.698  13.806  67.938  1.00  0.00    -0.229 C  
HETATM    7  OXT UNL     1      -7.650  14.420  69.080  1.00  0.00    -0.128 OA 
HETATM    8  N   UNL     1      -9.119  12.783  67.229  1.00  0.00    -0.192 N  
HETATM    9  C   UNL     1      -8.874  14.381  69.078  1.00  0.00     0.009 C  
HETATM   10  O   UNL     1      -6.850  12.216  67.623  1.00  0.00    -0.094 OA 
HETATM   11  C   UNL     1      -7.959  12.099  67.166  1.00  0.00    -0.170 C  
HETATM   12  O   UNL     1      -9.568  14.863  70.133  1.00  0.00     0.170 OA 
ENDROOT
BRANCH   4  13
HETATM   13  C   UNL     1     -11.720  15.276  68.216  1.00  0.00    -0.320 C  
HETATM   14  C   UNL     1     -11.509  16.599  68.215  1.00  0.00     0.008 C  
BRANCH  14  15
HETATM   15  C   UNL     1     -10.459  17.313  67.570  1.00  0.00    -0.356 A  
HETATM   16  C   UNL     1     -10.190  17.408  66.205  1.00  0.00    -0.328 A  
HETATM   17  N   UNL     1      -8.958  17.952  65.875  1.00  0.00    -0.500 NA 
HETATM   18  S   UNL     1      -9.182  18.105  68.427  1.00  0.00    -0.309 SA 
HETATM   19  C   UNL     1     -11.055  16.963  65.075  1.00  0.00     0.004 C  
HETATM   20  C   UNL     1      -8.338  18.336  66.963  1.00  0.00    -0.248 A  
ENDBRANCH  14  15
ENDBRANCH   4  13
BRANCH   5  21
HETATM   21  N   UNL     1      -9.313   9.857  66.536  1.00  0.00    -0.158 N  
HETATM   22  C   UNL     1      -9.967   9.454  67.688  1.00  0.00    -0.190 C  
HETATM   23  O   UNL     1     -10.632   8.418  67.639  1.00  0.00    -0.243 OA 
HETATM   24  H   UNL     1      -9.284   9.137  65.813  1.00  0.00     0.000 HD 
BRANCH  22  25
HETATM   25  C   UNL     1      -9.785  10.098  69.049  1.00  0.00    -0.206 C  
BRANCH  25  26
HETATM   26  C   UNL     1     -10.940  10.274  69.967  1.00  0.00    -0.311 A  
HETATM   27  H2  UNL     1     -13.740   9.397  73.078  1.00  0.00     0.000 HD 
HETATM   28  H1  UNL     1     -12.876   7.960  72.526  1.00  0.00     0.000 HD 
HETATM   29  C   UNL     1     -11.546  11.503  70.194  1.00  0.00    -0.249 A  
HETATM   30  N   UNL     1     -11.516   9.238  70.707  1.00  0.00    -0.279 NA 
HETATM   31  S   UNL     1     -12.730  11.387  71.418  1.00  0.00    -0.329 SA 
HETATM   32  N   UNL     1     -13.062   8.960  72.454  1.00  0.00    -0.427 NA 
HETATM   33  C   UNL     1     -12.417   9.705  71.539  1.00  0.00    -0.386 A  
ENDBRANCH  25  26
BRANCH  25  34
HETATM   34  N   UNL     1      -8.643  10.424  69.590  1.00  0.00    -0.365 NA 
HETATM   35  H   UNL     1      -8.119  11.208  69.203  1.00  0.00     0.000 HD 
BRANCH  34  36
HETATM   36  O   UNL     1      -8.117   9.730  70.685  1.00  0.00    -0.264 OA 
HETATM   37  C   UNL     1      -6.831   9.147  70.614  1.00  0.00    -0.084 C  
ENDBRANCH  34  36
ENDBRANCH  25  34
ENDBRANCH  22  25
ENDBRANCH   5  21
TORSDOF 7
ENDMDL
MODEL      107
REMARK 921   NORMALIZED FREE ENERGY PREDICTED BY IDOCK:   -5.04 KCAL/MOL
REMARK 922        TOTAL FREE ENERGY PREDICTED BY IDOCK:   -8.62 KCAL/MOL
REMARK 923 INTER-LIGAND FREE ENERGY PREDICTED BY IDOCK:   -7.29 KCAL/MOL
REMARK 924 INTRA-LIGAND FREE ENERGY PREDICTED BY IDOCK:   -1.33 KCAL/MOL
REMARK 927      BINDING AFFINITY PREDICTED BY RF-SCORE:    0.00 PKD
ROOT
HETATM    1  C   UNL     1      -7.927  14.585  67.209  1.00  0.00    -0.191 C  
HETATM    2  S   UNL     1      -7.537  13.856  68.794  1.00  0.00    -0.071 SA 
HETATM    3  C   UNL     1      -7.309  12.212  68.139  1.00  0.00    -0.103 C  
HETATM    4  C   UNL     1      -8.292  11.752  67.070  1.00  0.00    -0.172 C  
HETATM    5  CA  UNL     1      -8.873  15.822  67.264  1.00  0.00    -0.195 C  
HETATM    6  CA  UNL     1      -9.103  12.561  66.339  1.00  0.00    -0.127 C  
HETATM    7  OXT UNL     1     -10.428  12.757  64.320  1.00  0.00    -0.361 OA 
HETATM    8  N   UNL     1      -9.048  13.915  66.559  1.00  0.00    -0.196 N  
HETATM    9  C   UNL     1     -10.103  12.092  65.295  1.00  0.00    -0.265 C  
HETATM   10  O   UNL     1     -10.246  15.387  65.137  1.00  0.00    -0.364 OA 
HETATM   11  C   UNL     1      -9.585  15.060  66.090  1.00  0.00    -0.314 C  
HETATM   12  O   UNL     1     -10.643  10.869  65.492  1.00  0.00    -0.243 OA 
ENDROOT
BRANCH   4  13
HETATM   13  C   UNL     1      -8.204  10.300  66.977  1.00  0.00    -0.122 C  
HETATM   14  C   UNL     1      -7.621   9.537  66.042  1.00  0.00    -0.100 C  
BRANCH  14  15
HETATM   15  C   UNL     1      -6.910   9.966  64.886  1.00  0.00    -0.127 A  
HETATM   16  C   UNL     1      -7.293   9.865  63.548  1.00  0.00    -0.132 A  
HETATM   17  N   UNL     1      -6.297  10.125  62.619  1.00  0.00    -0.122 NA 
HETATM   18  S   UNL     1      -5.296  10.584  64.937  1.00  0.00    -0.142 SA 
HETATM   19  C   UNL     1      -8.630   9.478  63.012  1.00  0.00    -0.217 C  
HETATM   20  C   UNL     1      -5.202  10.495  63.236  1.00  0.00    -0.164 A  
ENDBRANCH  14  15
ENDBRANCH   4  13
BRANCH   5  21
HETATM   21  N   UNL     1      -9.544  16.100  68.574  1.00  0.00    -0.208 N  
HETATM   22  C   UNL     1     -10.527  15.442  69.294  1.00  0.00    -0.251 C  
HETATM   23  O   UNL     1     -10.710  15.786  70.464  1.00  0.00    -0.312 OA 
HETATM   24  H   UNL     1      -9.207  16.949  69.029  1.00  0.00     0.000 HD 
BRANCH  22  25
HETATM   25  C   UNL     1     -11.511  14.453  68.701  1.00  0.00    -0.287 C  
BRANCH  25  26
HETATM   26  C   UNL     1     -11.779  13.154  69.371  1.00  0.00    -0.327 A  
HETATM   27  H2  UNL     1     -11.369   9.017  70.377  1.00  0.00     0.000 HD 
HETATM   28  H1  UNL     1     -10.579   9.420  68.850  1.00  0.00     0.000 HD 
HETATM   29  C   UNL     1     -12.521  13.044  70.541  1.00  0.00    -0.231 A  
HETATM   30  N   UNL     1     -11.302  11.923  68.913  1.00  0.00    -0.254 NA 
HETATM   31  S   UNL     1     -12.503  11.443  71.131  1.00  0.00    -0.306 SA 
HETATM   32  N   UNL     1     -11.136   9.701  69.657  1.00  0.00    -0.223 NA 
HETATM   33  C   UNL     1     -11.565  10.970  69.775  1.00  0.00    -0.325 A  
ENDBRANCH  25  26
BRANCH  25  34
HETATM   34  N   UNL     1     -12.286  14.672  67.675  1.00  0.00    -0.587 NA 
HETATM   35  H   UNL     1     -12.648  15.613  67.522  1.00  0.00     0.000 HD 
BRANCH  34  36
HETATM   36  O   UNL     1     -12.635  13.656  66.779  1.00  0.00    -0.269 OA 
HETATM   37  C   UNL     1     -13.220  13.970  65.531  1.00  0.00     0.019 C  
ENDBRANCH  34  36
ENDBRANCH  25  34
ENDBRANCH  22  25
ENDBRANCH   5  21
TORSDOF 7
ENDMDL
MODEL      108
REMARK 921   NORMALIZED FREE ENERGY PREDICTED BY IDOCK:   -5.02 KCAL/MOL
REMARK 922        TOTAL FREE ENERGY PREDICTED BY IDOCK:   -8.59 KCAL/MOL
REMARK 923 INTER-LIGAND FREE ENERGY PREDICTED BY IDOCK:   -7.23 KCAL/MOL
REMARK 924 INTRA-LIGAND FREE ENERGY PREDICTED BY IDOCK:   -1.36 KCAL/MOL
REMARK 927      BINDING AFFINITY PREDICTED BY RF-SCORE:    0.00 PKD
ROOT
HETATM    1  C   UNL     1     -11.526  10.511  68.489  1.00  0.00    -0.215 C  
HETATM    2  S   UNL     1     -11.551  11.936  69.569  1.00  0.00    -0.325 SA 
HETATM    3  C   UNL     1     -12.250  13.029  68.344  1.00  0.00     0.010 C  
HETATM    4  C   UNL     1     -11.726  12.894  66.920  1.00  0.00    -0.445 C  
HETATM    5  CA  UNL     1     -10.404   9.473  68.788  1.00  0.00    -0.208 C  
HETATM    6  CA  UNL     1     -11.038  11.830  66.426  1.00  0.00    -0.307 C  
HETATM    7  OXT UNL     1     -10.359  10.653  64.420  1.00  0.00    -0.363 OA 
HETATM    8  N   UNL     1     -10.786  10.769  67.260  1.00  0.00    -0.278 N  
HETATM    9  C   UNL     1     -10.493  11.716  65.012  1.00  0.00    -0.285 C  
HETATM   10  O   UNL     1      -9.823   8.787  66.382  1.00  0.00    -0.249 OA 
HETATM   11  C   UNL     1     -10.219   9.546  67.230  1.00  0.00    -0.234 C  
HETATM   12  O   UNL     1     -10.143  12.875  64.411  1.00  0.00    -0.326 OA 
ENDROOT
BRANCH   4  13
HETATM   13  C   UNL     1     -12.092  14.103  66.193  1.00  0.00    -0.454 C  
HETATM   14  C   UNL     1     -11.530  15.320  66.218  1.00  0.00    -0.079 C  
BRANCH  14  15
HETATM   15  C   UNL     1     -10.396  15.740  66.970  1.00  0.00    -0.292 A  
HETATM   16  C   UNL     1     -10.352  16.190  68.290  1.00  0.00    -0.266 A  
HETATM   17  N   UNL     1      -9.159  16.779  68.682  1.00  0.00    -0.247 NA 
HETATM   18  S   UNL     1      -8.816  15.916  66.288  1.00  0.00    -0.337 SA 
HETATM   19  C   UNL     1     -11.444  16.139  69.303  1.00  0.00    -0.304 C  
HETATM   20  C   UNL     1      -8.288  16.706  67.706  1.00  0.00    -0.178 A  
ENDBRANCH  14  15
ENDBRANCH   4  13
BRANCH   5  21
HETATM   21  N   UNL     1      -9.336   9.893  69.751  1.00  0.00    -0.220 N  
HETATM   22  C   UNL     1      -8.050   9.442  69.997  1.00  0.00    -0.152 C  
HETATM   23  O   UNL     1      -7.318  10.144  70.697  1.00  0.00    -0.306 OA 
HETATM   24  H   UNL     1      -9.614  10.671  70.350  1.00  0.00     0.000 HD 
BRANCH  22  25
HETATM   25  C   UNL     1      -7.533   8.069  69.614  1.00  0.00    -0.091 C  
BRANCH  25  26
HETATM   26  C   UNL     1      -8.457   6.910  69.514  1.00  0.00    -0.133 A  
HETATM   27  H2  UNL     1     -10.338   3.428  67.891  1.00  0.00     0.000 HD 
HETATM   28  H1  UNL     1      -9.462   4.353  66.667  1.00  0.00     0.000 HD 
HETATM   29  C   UNL     1      -9.135   6.385  70.608  1.00  0.00    -0.148 A  
HETATM   30  N   UNL     1      -8.720   6.219  68.329  1.00  0.00    -0.116 NA 
HETATM   31  S   UNL     1      -9.980   4.965  70.182  1.00  0.00    -0.257 SA 
HETATM   32  N   UNL     1      -9.777   4.239  67.631  1.00  0.00    -0.160 NA 
HETATM   33  C   UNL     1      -9.453   5.155  68.561  1.00  0.00    -0.133 A  
ENDBRANCH  25  26
BRANCH  25  34
HETATM   34  N   UNL     1      -6.320   7.795  69.221  1.00  0.00    -0.035 NA 
HETATM   35  H   UNL     1      -5.618   7.547  69.918  1.00  0.00     0.000 HD 
BRANCH  34  36
HETATM   36  O   UNL     1      -5.952   7.832  67.871  1.00  0.00    -0.038 OA 
HETATM   37  C   UNL     1      -6.321   8.927  67.057  1.00  0.00    -0.060 C  
ENDBRANCH  34  36
ENDBRANCH  25  34
ENDBRANCH  22  25
ENDBRANCH   5  21
TORSDOF 7
ENDMDL
MODEL      109
REMARK 921   NORMALIZED FREE ENERGY PREDICTED BY IDOCK:   -4.99 KCAL/MOL
REMARK 922        TOTAL FREE ENERGY PREDICTED BY IDOCK:   -8.55 KCAL/MOL
REMARK 923 INTER-LIGAND FREE ENERGY PREDICTED BY IDOCK:   -6.30 KCAL/MOL
REMARK 924 INTRA-LIGAND FREE ENERGY PREDICTED BY IDOCK:   -2.25 KCAL/MOL
REMARK 927      BINDING AFFINITY PREDICTED BY RF-SCORE:    0.00 PKD
ROOT
HETATM    1  C   UNL     1      -7.505   9.712  66.387  1.00  0.00    -0.094 C  
HETATM    2  S   UNL     1      -6.298   9.924  67.689  1.00  0.00    -0.060 SA 
HETATM    3  C   UNL     1      -6.318   8.208  68.180  1.00  0.00    -0.055 C  
HETATM    4  C   UNL     1      -7.674   7.516  68.212  1.00  0.00    -0.120 C  
HETATM    5  CA  UNL     1      -8.377  10.966  66.081  1.00  0.00    -0.168 C  
HETATM    6  CA  UNL     1      -8.805   7.959  67.601  1.00  0.00    -0.128 C  
HETATM    7  OXT UNL     1     -10.993   7.339  66.766  1.00  0.00    -0.284 OA 
HETATM    8  N   UNL     1      -8.746   9.126  66.881  1.00  0.00    -0.122 N  
HETATM    9  C   UNL     1     -10.162   7.277  67.662  1.00  0.00    -0.200 C  
HETATM   10  O   UNL     1     -10.614   9.806  65.587  1.00  0.00     0.014 OA 
HETATM   11  C   UNL     1      -9.533   9.904  66.111  1.00  0.00    -0.200 C  
HETATM   12  O   UNL     1     -10.428   6.577  68.787  1.00  0.00    -0.176 OA 
ENDROOT
BRANCH   4  13
HETATM   13  C   UNL     1      -7.539   6.304  69.010  1.00  0.00    -0.096 C  
HETATM   14  C   UNL     1      -7.687   6.129  70.331  1.00  0.00    -0.098 C  
BRANCH  14  15
HETATM   15  C   UNL     1      -8.038   7.105  71.305  1.00  0.00    -0.107 A  
HETATM   16  C   UNL     1      -7.195   7.960  72.017  1.00  0.00    -0.076 A  
HETATM   17  N   UNL     1      -7.778   8.622  73.086  1.00  0.00    -0.388 NA 
HETATM   18  S   UNL     1      -9.644   7.304  71.915  1.00  0.00    -0.147 SA 
HETATM   19  C   UNL     1      -5.745   8.210  71.779  1.00  0.00    -0.036 C  
HETATM   20  C   UNL     1      -9.057   8.340  73.137  1.00  0.00    -0.235 A  
ENDBRANCH  14  15
ENDBRANCH   4  13
BRANCH   5  21
HETATM   21  N   UNL     1      -8.292  12.100  67.056  1.00  0.00    -0.178 N  
HETATM   22  C   UNL     1      -9.153  12.580  68.029  1.00  0.00    -0.200 C  
HETATM   23  O   UNL     1      -8.706  13.390  68.843  1.00  0.00     0.057 OA 
HETATM   24  H   UNL     1      -7.421  12.627  66.990  1.00  0.00     0.000 HD 
BRANCH  22  25
HETATM   25  C   UNL     1     -10.646  12.317  68.062  1.00  0.00    -0.216 C  
BRANCH  25  26
HETATM   26  C   UNL     1     -11.302  11.813  69.296  1.00  0.00    -0.286 A  
HETATM   27  H2  UNL     1     -13.911  11.730  72.684  1.00  0.00     0.000 HD 
HETATM   28  H1  UNL     1     -13.704  13.358  72.033  1.00  0.00     0.000 HD 
HETATM   29  C   UNL     1     -11.264  10.479  69.684  1.00  0.00    -0.282 A  
HETATM   30  N   UNL     1     -12.037  12.614  70.174  1.00  0.00    -0.334 NA 
HETATM   31  S   UNL     1     -12.248  10.210  71.052  1.00  0.00    -0.406 SA 
HETATM   32  N   UNL     1     -13.481  12.363  72.010  1.00  0.00    -0.454 NA 
HETATM   33  C   UNL     1     -12.623  11.883  71.093  1.00  0.00    -0.288 A  
ENDBRANCH  25  26
BRANCH  25  34
HETATM   34  N   UNL     1     -11.491  12.613  67.114  1.00  0.00    -0.325 NA 
HETATM   35  H   UNL     1     -12.449  12.268  67.180  1.00  0.00     0.000 HD 
BRANCH  34  36
HETATM   36  O   UNL     1     -11.124  13.390  66.009  1.00  0.00    -0.282 OA 
HETATM   37  C   UNL     1     -11.563  13.044  64.711  1.00  0.00    -0.329 C  
ENDBRANCH  34  36
ENDBRANCH  25  34
ENDBRANCH  22  25
ENDBRANCH   5  21
TORSDOF 7
ENDMDL
MODEL      110
REMARK 921   NORMALIZED FREE ENERGY PREDICTED BY IDOCK:   -4.98 KCAL/MOL
REMARK 922        TOTAL FREE ENERGY PREDICTED BY IDOCK:   -8.53 KCAL/MOL
REMARK 923 INTER-LIGAND FREE ENERGY PREDICTED BY IDOCK:   -6.35 KCAL/MOL
REMARK 924 INTRA-LIGAND FREE ENERGY PREDICTED BY IDOCK:   -2.18 KCAL/MOL
REMARK 927      BINDING AFFINITY PREDICTED BY RF-SCORE:    0.00 PKD
ROOT
HETATM    1  C   UNL     1     -12.035   8.361  70.173  1.00  0.00     0.439 C  
HETATM    2  S   UNL     1     -11.798   9.687  71.348  1.00  0.00    -0.421 SA 
HETATM    3  C   UNL     1     -10.921  10.736  70.201  1.00  0.00    -0.159 C  
HETATM    4  C   UNL     1      -9.916  10.060  69.278  1.00  0.00    -0.226 C  
HETATM    5  CA  UNL     1     -12.124   6.934  70.792  1.00  0.00    -0.349 C  
HETATM    6  CA  UNL     1      -9.856   8.729  69.011  1.00  0.00    -0.181 C  
HETATM    7  OXT UNL     1      -9.054   7.039  67.470  1.00  0.00    -0.123 OA 
HETATM    8  N   UNL     1     -10.774   7.899  69.606  1.00  0.00    -0.240 N  
HETATM    9  C   UNL     1      -8.831   8.058  68.111  1.00  0.00    -0.132 C  
HETATM   10  O   UNL     1     -10.878   5.615  68.975  1.00  0.00    -0.265 OA 
HETATM   11  C   UNL     1     -11.131   6.599  69.624  1.00  0.00    -0.334 C  
HETATM   12  O   UNL     1      -7.617   8.648  68.045  1.00  0.00    -0.095 OA 
ENDROOT
BRANCH   4  13
HETATM   13  C   UNL     1      -9.038  11.092  68.741  1.00  0.00    -0.161 C  
HETATM   14  C   UNL     1      -9.177  11.845  67.641  1.00  0.00    -0.183 C  
BRANCH  14  15
HETATM   15  C   UNL     1     -10.253  11.835  66.708  1.00  0.00    -0.211 A  
HETATM   16  C   UNL     1     -10.359  11.114  65.518  1.00  0.00    -0.268 A  
HETATM   17  N   UNL     1     -11.397  11.493  64.680  1.00  0.00    -0.214 NA 
HETATM   18  S   UNL     1     -11.620  12.888  66.823  1.00  0.00    -0.378 SA 
HETATM   19  C   UNL     1      -9.470  10.018  65.038  1.00  0.00    -0.339 C  
HETATM   20  C   UNL     1     -12.112  12.427  65.256  1.00  0.00    -0.391 A  
ENDBRANCH  14  15
ENDBRANCH   4  13
BRANCH   5  21
HETATM   21  N   UNL     1     -11.750   6.802  72.237  1.00  0.00    -0.368 N  
HETATM   22  C   UNL     1     -10.558   6.533  72.887  1.00  0.00    -0.241 C  
HETATM   23  O   UNL     1     -10.511   6.723  74.104  1.00  0.00    -0.365 OA 
HETATM   24  H   UNL     1     -12.537   6.938  72.872  1.00  0.00     0.000 HD 
BRANCH  22  25
HETATM   25  C   UNL     1      -9.361   5.860  72.244  1.00  0.00    -0.144 C  
BRANCH  25  26
HETATM   26  C   UNL     1      -8.207   6.660  71.762  1.00  0.00    -0.110 A  
HETATM   27  H2  UNL     1      -5.528   9.970  71.363  1.00  0.00     0.000 HD 
HETATM   28  H1  UNL     1      -7.069  10.435  72.090  1.00  0.00     0.000 HD 
HETATM   29  C   UNL     1      -7.113   6.098  71.114  1.00  0.00    -0.074 A  
HETATM   30  N   UNL     1      -8.090   8.043  71.926  1.00  0.00    -0.111 NA 
HETATM   31  S   UNL     1      -5.897   7.264  70.840  1.00  0.00    -0.031 SA 
HETATM   32  N   UNL     1      -6.467   9.723  71.675  1.00  0.00    -0.298 NA 
HETATM   33  C   UNL     1      -6.908   8.461  71.538  1.00  0.00    -0.073 A  
ENDBRANCH  25  26
BRANCH  25  34
HETATM   34  N   UNL     1      -9.162   4.572  72.171  1.00  0.00    -0.128 NA 
HETATM   35  H   UNL     1      -9.524   4.061  71.367  1.00  0.00     0.000 HD 
BRANCH  34  36
HETATM   36  O   UNL     1      -8.465   3.873  73.162  1.00  0.00    -0.090 OA 
HETATM   37  C   UNL     1      -9.121   3.461  74.345  1.00  0.00    -0.085 C  
ENDBRANCH  34  36
ENDBRANCH  25  34
ENDBRANCH  22  25
ENDBRANCH   5  21
TORSDOF 7
ENDMDL
MODEL      111
REMARK 921   NORMALIZED FREE ENERGY PREDICTED BY IDOCK:   -4.95 KCAL/MOL
REMARK 922        TOTAL FREE ENERGY PREDICTED BY IDOCK:   -8.49 KCAL/MOL
REMARK 923 INTER-LIGAND FREE ENERGY PREDICTED BY IDOCK:   -6.66 KCAL/MOL
REMARK 924 INTRA-LIGAND FREE ENERGY PREDICTED BY IDOCK:   -1.83 KCAL/MOL
REMARK 927      BINDING AFFINITY PREDICTED BY RF-SCORE:    0.00 PKD
ROOT
HETATM    1  C   UNL     1     -11.533   9.195  69.504  1.00  0.00     0.266 C  
HETATM    2  S   UNL     1     -11.699  10.659  70.516  1.00  0.00    -0.368 SA 
HETATM    3  C   UNL     1     -11.078  11.768  69.264  1.00  0.00    -0.218 C  
HETATM    4  C   UNL     1      -9.894  11.282  68.438  1.00  0.00    -0.200 C  
HETATM    5  CA  UNL     1     -11.273   7.874  70.286  1.00  0.00    -0.200 C  
HETATM    6  CA  UNL     1      -9.478   9.992  68.331  1.00  0.00    -0.141 C  
HETATM    7  OXT UNL     1      -8.199   8.414  67.010  1.00  0.00    -0.106 OA 
HETATM    8  N   UNL     1     -10.172   9.022  69.010  1.00  0.00    -0.200 N  
HETATM    9  C   UNL     1      -8.277   9.520  67.528  1.00  0.00    -0.121 C  
HETATM   10  O   UNL     1      -9.652   6.736  68.652  1.00  0.00    -0.133 OA 
HETATM   11  C   UNL     1     -10.179   7.684  69.177  1.00  0.00    -0.203 C  
HETATM   12  O   UNL     1      -7.257  10.398  67.408  1.00  0.00    -0.089 OA 
ENDROOT
BRANCH   4  13
HETATM   13  C   UNL     1      -9.293  12.443  67.793  1.00  0.00    -0.196 C  
HETATM   14  C   UNL     1      -9.662  13.087  66.676  1.00  0.00    -0.256 C  
BRANCH  14  15
HETATM   15  C   UNL     1     -10.770  12.799  65.830  1.00  0.00    -0.270 A  
HETATM   16  C   UNL     1     -10.841  11.885  64.779  1.00  0.00    -0.307 A  
HETATM   17  N   UNL     1     -11.956  11.998  63.962  1.00  0.00    -0.405 NA 
HETATM   18  S   UNL     1     -12.252  13.691  65.869  1.00  0.00    -0.469 SA 
HETATM   19  C   UNL     1      -9.846  10.835  64.419  1.00  0.00    -0.374 C  
HETATM   20  C   UNL     1     -12.755  12.925  64.430  1.00  0.00    -0.245 A  
ENDBRANCH  14  15
ENDBRANCH   4  13
BRANCH   5  21
HETATM   21  N   UNL     1     -10.940   8.006  71.741  1.00  0.00    -0.240 N  
HETATM   22  C   UNL     1     -10.458   7.118  72.687  1.00  0.00    -0.237 C  
HETATM   23  O   UNL     1     -10.054   7.580  73.756  1.00  0.00    -0.319 OA 
HETATM   24  H   UNL     1     -11.101   8.944  72.109  1.00  0.00     0.000 HD 
BRANCH  22  25
HETATM   25  C   UNL     1     -10.551   5.609  72.576  1.00  0.00    -0.224 C  
BRANCH  25  26
HETATM   26  C   UNL     1      -9.671   4.860  71.643  1.00  0.00    -0.173 A  
HETATM   27  H2  UNL     1      -8.504   2.554  68.234  1.00  0.00     0.000 HD 
HETATM   28  H1  UNL     1     -10.245   2.498  68.521  1.00  0.00     0.000 HD 
HETATM   29  C   UNL     1      -8.286   4.981  71.646  1.00  0.00    -0.116 A  
HETATM   30  N   UNL     1     -10.138   3.984  70.660  1.00  0.00    -0.063 NA 
HETATM   31  S   UNL     1      -7.592   4.115  70.348  1.00  0.00    -0.045 SA 
HETATM   32  N   UNL     1      -9.315   2.816  68.794  1.00  0.00    -0.176 NA 
HETATM   33  C   UNL     1      -9.156   3.580  69.889  1.00  0.00    -0.125 A  
ENDBRANCH  25  26
BRANCH  25  34
HETATM   34  N   UNL     1     -11.271   4.833  73.338  1.00  0.00    -0.338 NA 
HETATM   35  H   UNL     1     -12.251   5.066  73.494  1.00  0.00     0.000 HD 
BRANCH  34  36
HETATM   36  O   UNL     1     -10.740   3.691  73.947  1.00  0.00    -0.190 OA 
HETATM   37  C   UNL     1     -11.318   2.421  73.718  1.00  0.00    -0.177 C  
ENDBRANCH  34  36
ENDBRANCH  25  34
ENDBRANCH  22  25
ENDBRANCH   5  21
TORSDOF 7
ENDMDL
MODEL      112
REMARK 921   NORMALIZED FREE ENERGY PREDICTED BY IDOCK:   -4.94 KCAL/MOL
REMARK 922        TOTAL FREE ENERGY PREDICTED BY IDOCK:   -8.47 KCAL/MOL
REMARK 923 INTER-LIGAND FREE ENERGY PREDICTED BY IDOCK:   -8.49 KCAL/MOL
REMARK 924 INTRA-LIGAND FREE ENERGY PREDICTED BY IDOCK:    0.01 KCAL/MOL
REMARK 927      BINDING AFFINITY PREDICTED BY RF-SCORE:    0.00 PKD
ROOT
HETATM    1  C   UNL     1     -11.560  11.515  67.683  1.00  0.00    -0.247 C  
HETATM    2  S   UNL     1     -10.317  11.632  66.403  1.00  0.00    -0.238 SA 
HETATM    3  C   UNL     1     -10.285   9.878  66.077  1.00  0.00    -0.198 C  
HETATM    4  C   UNL     1     -10.359   8.951  67.283  1.00  0.00    -0.350 C  
HETATM    5  CA  UNL     1     -11.484  12.614  68.784  1.00  0.00    -0.306 C  
HETATM    6  CA  UNL     1     -10.770   9.303  68.530  1.00  0.00    -0.142 C  
HETATM    7  OXT UNL     1     -11.615   8.495  70.653  1.00  0.00    -0.270 OA 
HETATM    8  N   UNL     1     -11.166  10.599  68.747  1.00  0.00    -0.262 N  
HETATM    9  C   UNL     1     -10.813   8.378  69.736  1.00  0.00    -0.183 C  
HETATM   10  O   UNL     1     -12.135  11.200  70.826  1.00  0.00    -0.344 OA 
HETATM   11  C   UNL     1     -11.665  11.375  69.731  1.00  0.00    -0.344 C  
HETATM   12  O   UNL     1      -9.893   7.388  69.761  1.00  0.00    -0.170 OA 
ENDROOT
BRANCH   4  13
HETATM   13  C   UNL     1      -9.909   7.630  66.860  1.00  0.00    -0.304 C  
HETATM   14  C   UNL     1      -8.670   7.193  66.596  1.00  0.00    -0.131 C  
BRANCH  14  15
HETATM   15  C   UNL     1      -7.451   7.923  66.681  1.00  0.00    -0.089 A  
HETATM   16  C   UNL     1      -6.673   8.432  65.641  1.00  0.00    -0.056 A  
HETATM   17  N   UNL     1      -5.408   8.872  66.000  1.00  0.00    -0.036 NA 
HETATM   18  S   UNL     1      -6.605   8.190  68.166  1.00  0.00    -0.058 SA 
HETATM   19  C   UNL     1      -7.033   8.521  64.197  1.00  0.00    -0.078 C  
HETATM   20  C   UNL     1      -5.258   8.775  67.298  1.00  0.00    -0.033 A  
ENDBRANCH  14  15
ENDBRANCH   4  13
BRANCH   5  21
HETATM   21  N   UNL     1     -10.255  13.471  68.797  1.00  0.00    -0.383 N  
HETATM   22  C   UNL     1      -9.970  14.711  69.341  1.00  0.00    -0.024 C  
HETATM   23  O   UNL     1      -8.789  15.060  69.391  1.00  0.00    -0.192 OA 
HETATM   24  H   UNL     1      -9.465  13.054  68.303  1.00  0.00     0.000 HD 
BRANCH  22  25
HETATM   25  C   UNL     1     -11.014  15.744  69.719  1.00  0.00    -0.316 C  
BRANCH  25  26
HETATM   26  C   UNL     1     -11.901  15.534  70.892  1.00  0.00    -0.371 A  
HETATM   27  H2  UNL     1     -14.503  13.519  73.623  1.00  0.00     0.000 HD 
HETATM   28  H1  UNL     1     -14.364  12.675  72.078  1.00  0.00     0.000 HD 
HETATM   29  C   UNL     1     -11.923  16.389  71.988  1.00  0.00    -0.365 A  
HETATM   30  N   UNL     1     -12.779  14.456  71.026  1.00  0.00    -0.326 NA 
HETATM   31  S   UNL     1     -12.927  15.776  73.224  1.00  0.00    -0.610 SA 
HETATM   32  N   UNL     1     -14.128  13.467  72.676  1.00  0.00    -0.729 NA 
HETATM   33  C   UNL     1     -13.324  14.443  72.220  1.00  0.00    -0.421 A  
ENDBRANCH  25  26
BRANCH  25  34
HETATM   34  N   UNL     1     -11.151  16.922  69.175  1.00  0.00    -0.274 NA 
HETATM   35  H   UNL     1     -11.459  17.702  69.755  1.00  0.00     0.000 HD 
BRANCH  34  36
HETATM   36  O   UNL     1     -10.888  17.147  67.819  1.00  0.00    -0.348 OA 
HETATM   37  C   UNL     1     -10.377  16.111  67.005  1.00  0.00    -0.290 C  
ENDBRANCH  34  36
ENDBRANCH  25  34
ENDBRANCH  22  25
ENDBRANCH   5  21
TORSDOF 7
ENDMDL
MODEL      113
REMARK 921   NORMALIZED FREE ENERGY PREDICTED BY IDOCK:   -4.92 KCAL/MOL
REMARK 922        TOTAL FREE ENERGY PREDICTED BY IDOCK:   -8.44 KCAL/MOL
REMARK 923 INTER-LIGAND FREE ENERGY PREDICTED BY IDOCK:   -7.06 KCAL/MOL
REMARK 924 INTRA-LIGAND FREE ENERGY PREDICTED BY IDOCK:   -1.38 KCAL/MOL
REMARK 927      BINDING AFFINITY PREDICTED BY RF-SCORE:    0.00 PKD
ROOT
HETATM    1  C   UNL     1      -9.897  11.634  65.083  1.00  0.00    -0.249 C  
HETATM    2  S   UNL     1     -11.649  11.283  65.033  1.00  0.00     0.452 SA 
HETATM    3  C   UNL     1     -12.127  12.847  65.747  1.00  0.00    -0.457 C  
HETATM    4  C   UNL     1     -11.270  13.373  66.891  1.00  0.00    -0.330 C  
HETATM    5  CA  UNL     1      -8.975  10.388  65.231  1.00  0.00    -0.187 C  
HETATM    6  CA  UNL     1     -10.016  12.952  67.200  1.00  0.00    -0.240 C  
HETATM    7  OXT UNL     1      -7.955  13.502  68.352  1.00  0.00    -0.137 OA 
HETATM    8  N   UNL     1      -9.444  11.972  66.427  1.00  0.00    -0.227 N  
HETATM    9  C   UNL     1      -9.178  13.462  68.362  1.00  0.00    -0.149 C  
HETATM   10  O   UNL     1      -7.170  11.387  66.761  1.00  0.00    -0.138 OA 
HETATM   11  C   UNL     1      -8.284  11.294  66.311  1.00  0.00    -0.126 C  
HETATM   12  O   UNL     1      -9.861  13.881  69.451  1.00  0.00     0.206 OA 
ENDROOT
BRANCH   4  13
HETATM   13  C   UNL     1     -12.036  14.400  67.587  1.00  0.00    -0.378 C  
HETATM   14  C   UNL     1     -11.767  15.703  67.752  1.00  0.00    -0.039 C  
BRANCH  14  15
HETATM   15  C   UNL     1     -10.646  16.430  67.261  1.00  0.00    -0.293 A  
HETATM   16  C   UNL     1     -10.262  16.637  65.936  1.00  0.00    -0.340 A  
HETATM   17  N   UNL     1      -8.990  17.159  65.756  1.00  0.00    -0.501 NA 
HETATM   18  S   UNL     1      -9.419  17.090  68.286  1.00  0.00    -0.274 SA 
HETATM   19  C   UNL     1     -11.045  16.330  64.705  1.00  0.00    -0.259 C  
HETATM   20  C   UNL     1      -8.449  17.419  66.921  1.00  0.00    -0.241 A  
ENDBRANCH  14  15
ENDBRANCH   4  13
BRANCH   5  21
HETATM   21  N   UNL     1      -9.643   9.091  65.569  1.00  0.00    -0.457 N  
HETATM   22  C   UNL     1      -9.940   8.461  66.766  1.00  0.00    -0.284 C  
HETATM   23  O   UNL     1     -10.714   7.502  66.735  1.00  0.00    -0.319 OA 
HETATM   24  H   UNL     1      -9.942   8.563  64.748  1.00  0.00     0.000 HD 
BRANCH  22  25
HETATM   25  C   UNL     1      -9.250   8.751  68.084  1.00  0.00    -0.140 C  
BRANCH  25  26
HETATM   26  C   UNL     1     -10.038   9.121  69.289  1.00  0.00    -0.194 A  
HETATM   27  H2  UNL     1     -12.794  11.267  71.756  1.00  0.00     0.000 HD 
HETATM   28  H1  UNL     1     -12.305  12.190  70.333  1.00  0.00     0.000 HD 
HETATM   29  C   UNL     1     -10.226   8.261  70.364  1.00  0.00    -0.201 A  
HETATM   30  N   UNL     1     -10.683  10.349  69.455  1.00  0.00    -0.235 NA 
HETATM   31  S   UNL     1     -11.307   8.930  71.502  1.00  0.00    -0.353 SA 
HETATM   32  N   UNL     1     -12.239  11.349  70.905  1.00  0.00    -0.368 NA 
HETATM   33  C   UNL     1     -11.420  10.346  70.541  1.00  0.00    -0.345 A  
ENDBRANCH  25  26
BRANCH  25  34
HETATM   34  N   UNL     1      -7.980   8.587  68.331  1.00  0.00    -0.116 NA 
HETATM   35  H   UNL     1      -7.373   9.405  68.364  1.00  0.00     0.000 HD 
BRANCH  34  36
HETATM   36  O   UNL     1      -7.425   7.321  68.550  1.00  0.00    -0.100 OA 
HETATM   37  C   UNL     1      -6.630   7.074  69.692  1.00  0.00    -0.045 C  
ENDBRANCH  34  36
ENDBRANCH  25  34
ENDBRANCH  22  25
ENDBRANCH   5  21
TORSDOF 7
ENDMDL
MODEL      114
REMARK 921   NORMALIZED FREE ENERGY PREDICTED BY IDOCK:   -4.92 KCAL/MOL
REMARK 922        TOTAL FREE ENERGY PREDICTED BY IDOCK:   -8.44 KCAL/MOL
REMARK 923 INTER-LIGAND FREE ENERGY PREDICTED BY IDOCK:   -7.00 KCAL/MOL
REMARK 924 INTRA-LIGAND FREE ENERGY PREDICTED BY IDOCK:   -1.44 KCAL/MOL
REMARK 927      BINDING AFFINITY PREDICTED BY RF-SCORE:    0.00 PKD
ROOT
HETATM    1  C   UNL     1     -10.902  13.346  67.727  1.00  0.00    -0.252 C  
HETATM    2  S   UNL     1      -9.429  12.737  66.917  1.00  0.00    -0.240 SA 
HETATM    3  C   UNL     1     -10.053  11.078  66.718  1.00  0.00    -0.220 C  
HETATM    4  C   UNL     1     -10.837  10.491  67.885  1.00  0.00    -0.333 C  
HETATM    5  CA  UNL     1     -10.672  14.515  68.730  1.00  0.00    -0.253 C  
HETATM    6  CA  UNL     1     -11.384  11.199  68.907  1.00  0.00    -0.278 C  
HETATM    7  OXT UNL     1     -13.034  11.187  70.682  1.00  0.00    -0.221 OA 
HETATM    8  N   UNL     1     -11.238  12.564  68.911  1.00  0.00    -0.265 N  
HETATM    9  C   UNL     1     -12.140  10.603  70.084  1.00  0.00    -0.333 C  
HETATM   10  O   UNL     1     -12.389  13.866  70.525  1.00  0.00    -0.330 OA 
HETATM   11  C   UNL     1     -11.610  13.640  69.634  1.00  0.00    -0.278 C  
HETATM   12  O   UNL     1     -11.771   9.359  70.462  1.00  0.00    -0.262 OA 
ENDROOT
BRANCH   4  13
HETATM   13  C   UNL     1     -10.891   9.046  67.705  1.00  0.00    -0.125 C  
HETATM   14  C   UNL     1      -9.899   8.144  67.725  1.00  0.00    -0.209 C  
BRANCH  14  15
HETATM   15  C   UNL     1      -8.513   8.378  67.950  1.00  0.00    -0.131 A  
HETATM   16  C   UNL     1      -7.877   8.728  69.141  1.00  0.00    -0.098 A  
HETATM   17  N   UNL     1      -6.561   9.147  69.016  1.00  0.00    -0.047 NA 
HETATM   18  S   UNL     1      -7.338   8.417  66.681  1.00  0.00    -0.082 SA 
HETATM   19  C   UNL     1      -8.459   8.735  70.514  1.00  0.00    -0.181 C  
HETATM   20  C   UNL     1      -6.180   9.041  67.767  1.00  0.00    -0.051 A  
ENDBRANCH  14  15
ENDBRANCH   4  13
BRANCH   5  21
HETATM   21  N   UNL     1      -9.251  14.822  69.094  1.00  0.00    -0.353 N  
HETATM   22  C   UNL     1      -8.372  15.825  68.722  1.00  0.00    -0.195 C  
HETATM   23  O   UNL     1      -7.334  15.952  69.374  1.00  0.00    -0.215 OA 
HETATM   24  H   UNL     1      -8.848  14.153  69.751  1.00  0.00     0.000 HD 
BRANCH  22  25
HETATM   25  C   UNL     1      -8.509  16.665  67.467  1.00  0.00    -0.188 C  
BRANCH  25  26
HETATM   26  C   UNL     1      -9.359  17.883  67.457  1.00  0.00    -0.253 A  
HETATM   27  H2  UNL     1     -11.216  21.471  68.861  1.00  0.00     0.000 HD 
HETATM   28  H1  UNL     1     -10.583  20.481  70.179  1.00  0.00     0.000 HD 
HETATM   29  C   UNL     1      -9.842  18.460  66.289  1.00  0.00    -0.331 A  
HETATM   30  N   UNL     1      -9.740  18.582  68.606  1.00  0.00    -0.354 NA 
HETATM   31  S   UNL     1     -10.644  19.931  66.617  1.00  0.00    -0.328 SA 
HETATM   32  N   UNL     1     -10.751  20.623  69.183  1.00  0.00     0.472 NA 
HETATM   33  C   UNL     1     -10.362  19.694  68.292  1.00  0.00    -0.420 A  
ENDBRANCH  25  26
BRANCH  25  34
HETATM   34  N   UNL     1      -7.830  16.503  66.365  1.00  0.00    -0.302 NA 
HETATM   35  H   UNL     1      -8.328  16.254  65.510  1.00  0.00     0.000 HD 
BRANCH  34  36
HETATM   36  O   UNL     1      -6.441  16.659  66.319  1.00  0.00    -0.176 OA 
HETATM   37  C   UNL     1      -5.858  17.939  66.457  1.00  0.00    -0.172 C  
ENDBRANCH  34  36
ENDBRANCH  25  34
ENDBRANCH  22  25
ENDBRANCH   5  21
TORSDOF 7
ENDMDL
MODEL      115
REMARK 921   NORMALIZED FREE ENERGY PREDICTED BY IDOCK:   -4.91 KCAL/MOL
REMARK 922        TOTAL FREE ENERGY PREDICTED BY IDOCK:   -8.43 KCAL/MOL
REMARK 923 INTER-LIGAND FREE ENERGY PREDICTED BY IDOCK:   -7.35 KCAL/MOL
REMARK 924 INTRA-LIGAND FREE ENERGY PREDICTED BY IDOCK:   -1.08 KCAL/MOL
REMARK 927      BINDING AFFINITY PREDICTED BY RF-SCORE:    0.00 PKD
ROOT
HETATM    1  C   UNL     1     -10.527   8.725  68.102  1.00  0.00    -0.191 C  
HETATM    2  S   UNL     1     -10.433   7.274  67.063  1.00  0.00    -0.323 SA 
HETATM    3  C   UNL     1      -9.698   6.246  68.323  1.00  0.00    -0.120 C  
HETATM    4  C   UNL     1      -8.631   6.888  69.201  1.00  0.00    -0.128 C  
HETATM    5  CA  UNL     1     -10.442  10.086  67.350  1.00  0.00    -0.260 C  
HETATM    6  CA  UNL     1      -8.420   8.223  69.343  1.00  0.00    -0.123 C  
HETATM    7  OXT UNL     1      -7.443   9.949  70.735  1.00  0.00    -0.313 OA 
HETATM    8  N   UNL     1      -9.227   9.091  68.652  1.00  0.00    -0.137 N  
HETATM    9  C   UNL     1      -7.334   8.855  70.199  1.00  0.00    -0.059 C  
HETATM   10  O   UNL     1      -9.072  11.422  69.062  1.00  0.00    -0.069 OA 
HETATM   11  C   UNL     1      -9.430  10.416  68.503  1.00  0.00    -0.159 C  
HETATM   12  O   UNL     1      -6.198   8.137  70.347  1.00  0.00    -0.035 OA 
ENDROOT
BRANCH   4  13
HETATM   13  C   UNL     1      -7.886   5.818  69.853  1.00  0.00    -0.088 C  
HETATM   14  C   UNL     1      -8.111   5.212  71.027  1.00  0.00    -0.103 C  
BRANCH  14  15
HETATM   15  C   UNL     1      -9.170   5.457  71.946  1.00  0.00    -0.138 A  
HETATM   16  C   UNL     1     -10.108   4.553  72.446  1.00  0.00    -0.183 A  
HETATM   17  N   UNL     1     -11.181   5.116  73.119  1.00  0.00    -0.321 NA 
HETATM   18  S   UNL     1      -9.589   7.036  72.513  1.00  0.00    -0.146 SA 
HETATM   19  C   UNL     1     -10.102   3.069  72.309  1.00  0.00    -0.219 C  
HETATM   20  C   UNL     1     -11.022   6.415  73.199  1.00  0.00    -0.220 A  
ENDBRANCH  14  15
ENDBRANCH   4  13
BRANCH   5  21
HETATM   21  N   UNL     1     -10.039  10.035  65.908  1.00  0.00    -0.266 N  
HETATM   22  C   UNL     1      -9.898  11.003  64.927  1.00  0.00    -0.274 C  
HETATM   23  O   UNL     1      -9.318  10.688  63.887  1.00  0.00    -0.221 OA 
HETATM   24  H   UNL     1      -9.823   9.093  65.581  1.00  0.00     0.000 HD 
BRANCH  22  25
HETATM   25  C   UNL     1     -10.556  12.368  64.968  1.00  0.00    -0.298 C  
BRANCH  25  26
HETATM   26  C   UNL     1     -10.607  13.151  66.229  1.00  0.00    -0.284 A  
HETATM   27  H2  UNL     1     -11.963  14.450  70.072  1.00  0.00     0.000 HD 
HETATM   28  H1  UNL     1     -13.189  13.523  69.204  1.00  0.00     0.000 HD 
HETATM   29  C   UNL     1      -9.538  13.907  66.696  1.00  0.00    -0.289 A  
HETATM   30  N   UNL     1     -11.714  13.190  67.081  1.00  0.00    -0.360 NA 
HETATM   31  S   UNL     1      -9.868  14.544  68.245  1.00  0.00    -0.235 SA 
HETATM   32  N   UNL     1     -12.261  13.944  69.238  1.00  0.00    -0.331 NA 
HETATM   33  C   UNL     1     -11.429  13.836  68.188  1.00  0.00    -0.313 A  
ENDBRANCH  25  26
BRANCH  25  34
HETATM   34  N   UNL     1     -11.001  13.029  63.934  1.00  0.00    -0.509 NA 
HETATM   35  H   UNL     1     -10.339  13.544  63.354  1.00  0.00     0.000 HD 
BRANCH  34  36
HETATM   36  O   UNL     1     -12.359  13.052  63.598  1.00  0.00    -0.621 OA 
HETATM   37  C   UNL     1     -13.029  11.862  63.235  1.00  0.00    -0.018 C  
ENDBRANCH  34  36
ENDBRANCH  25  34
ENDBRANCH  22  25
ENDBRANCH   5  21
TORSDOF 7
ENDMDL
MODEL      116
REMARK 921   NORMALIZED FREE ENERGY PREDICTED BY IDOCK:   -4.91 KCAL/MOL
REMARK 922        TOTAL FREE ENERGY PREDICTED BY IDOCK:   -8.43 KCAL/MOL
REMARK 923 INTER-LIGAND FREE ENERGY PREDICTED BY IDOCK:   -6.95 KCAL/MOL
REMARK 924 INTRA-LIGAND FREE ENERGY PREDICTED BY IDOCK:   -1.48 KCAL/MOL
REMARK 927      BINDING AFFINITY PREDICTED BY RF-SCORE:    0.00 PKD
ROOT
HETATM    1  C   UNL     1      -8.257  10.276  67.046  1.00  0.00    -0.122 C  
HETATM    2  S   UNL     1      -6.488  10.214  66.795  1.00  0.00    -0.074 SA 
HETATM    3  C   UNL     1      -6.260   8.736  67.769  1.00  0.00    -0.056 C  
HETATM    4  C   UNL     1      -7.066   8.627  69.056  1.00  0.00    -0.065 C  
HETATM    5  CA  UNL     1      -8.881  11.703  67.012  1.00  0.00    -0.177 C  
HETATM    6  CA  UNL     1      -8.163   9.365  69.369  1.00  0.00    -0.119 C  
HETATM    7  OXT UNL     1     -10.143   9.503  70.759  1.00  0.00    -0.279 OA 
HETATM    8  N   UNL     1      -8.609  10.293  68.461  1.00  0.00    -0.120 N  
HETATM    9  C   UNL     1      -8.945   9.271  70.669  1.00  0.00    -0.243 C  
HETATM   10  O   UNL     1     -10.660  11.421  68.842  1.00  0.00    -0.197 OA 
HETATM   11  C   UNL     1      -9.611  11.181  68.300  1.00  0.00    -0.185 C  
HETATM   12  O   UNL     1      -8.240   8.912  71.765  1.00  0.00    -0.318 OA 
ENDROOT
BRANCH   4  13
HETATM   13  C   UNL     1      -6.451   7.596  69.883  1.00  0.00    -0.034 C  
HETATM   14  C   UNL     1      -6.803   6.315  70.056  1.00  0.00    -0.058 C  
BRANCH  14  15
HETATM   15  C   UNL     1      -7.885   5.619  69.447  1.00  0.00    -0.088 A  
HETATM   16  C   UNL     1      -9.111   5.263  70.010  1.00  0.00    -0.128 A  
HETATM   17  N   UNL     1      -9.870   4.366  69.274  1.00  0.00    -0.183 NA 
HETATM   18  S   UNL     1      -7.800   4.927  67.864  1.00  0.00    -0.086 SA 
HETATM   19  C   UNL     1      -9.674   5.709  71.316  1.00  0.00    -0.211 C  
HETATM   20  C   UNL     1      -9.271   4.107  68.138  1.00  0.00    -0.147 A  
ENDBRANCH  14  15
ENDBRANCH   4  13
BRANCH   5  21
HETATM   21  N   UNL     1      -7.926  12.857  67.032  1.00  0.00    -0.382 N  
HETATM   22  C   UNL     1      -8.058  14.190  67.382  1.00  0.00    -0.189 C  
HETATM   23  O   UNL     1      -7.028  14.853  67.523  1.00  0.00    -0.172 OA 
HETATM   24  H   UNL     1      -6.985  12.610  66.725  1.00  0.00     0.000 HD 
BRANCH  22  25
HETATM   25  C   UNL     1      -9.375  14.939  67.436  1.00  0.00    -0.199 C  
BRANCH  25  26
HETATM   26  C   UNL     1     -10.364  14.817  66.333  1.00  0.00    -0.293 A  
HETATM   27  H2  UNL     1     -13.702  13.339  64.106  1.00  0.00     0.000 HD 
HETATM   28  H1  UNL     1     -13.155  12.197  65.336  1.00  0.00     0.000 HD 
HETATM   29  C   UNL     1     -10.577  15.818  65.393  1.00  0.00    -0.421 A  
HETATM   30  N   UNL     1     -11.189  13.706  66.141  1.00  0.00    -0.300 NA 
HETATM   31  S   UNL     1     -11.887  15.430  64.370  1.00  0.00    -0.120 SA 
HETATM   32  N   UNL     1     -13.052  13.088  64.850  1.00  0.00    -0.765 NA 
HETATM   33  C   UNL     1     -12.061  13.932  65.187  1.00  0.00    -0.403 A  
ENDBRANCH  25  26
BRANCH  25  34
HETATM   34  N   UNL     1      -9.821  15.622  68.453  1.00  0.00    -0.204 NA 
HETATM   35  H   UNL     1      -9.153  16.076  69.075  1.00  0.00     0.000 HD 
BRANCH  34  36
HETATM   36  O   UNL     1     -11.189  15.751  68.718  1.00  0.00    -0.297 OA 
HETATM   37  C   UNL     1     -11.762  15.134  69.854  1.00  0.00    -0.315 C  
ENDBRANCH  34  36
ENDBRANCH  25  34
ENDBRANCH  22  25
ENDBRANCH   5  21
TORSDOF 7
ENDMDL
MODEL      117
REMARK 921   NORMALIZED FREE ENERGY PREDICTED BY IDOCK:   -4.88 KCAL/MOL
REMARK 922        TOTAL FREE ENERGY PREDICTED BY IDOCK:   -8.38 KCAL/MOL
REMARK 923 INTER-LIGAND FREE ENERGY PREDICTED BY IDOCK:   -7.12 KCAL/MOL
REMARK 924 INTRA-LIGAND FREE ENERGY PREDICTED BY IDOCK:   -1.26 KCAL/MOL
REMARK 927      BINDING AFFINITY PREDICTED BY RF-SCORE:    0.00 PKD
ROOT
HETATM    1  C   UNL     1     -10.415  10.376  67.597  1.00  0.00    -0.233 C  
HETATM    2  S   UNL     1     -11.411  11.860  67.611  1.00  0.00    -0.315 SA 
HETATM    3  C   UNL     1     -10.173  12.868  66.813  1.00  0.00    -0.241 C  
HETATM    4  C   UNL     1      -8.728  12.659  67.247  1.00  0.00    -0.198 C  
HETATM    5  CA  UNL     1     -10.698   9.376  68.757  1.00  0.00    -0.171 C  
HETATM    6  CA  UNL     1      -8.252  11.580  67.923  1.00  0.00    -0.134 C  
HETATM    7  OXT UNL     1      -6.276  10.300  68.496  1.00  0.00    -0.048 OA 
HETATM    8  N   UNL     1      -9.127  10.574  68.250  1.00  0.00    -0.141 N  
HETATM    9  C   UNL     1      -6.814  11.393  68.379  1.00  0.00    -0.068 C  
HETATM   10  O   UNL     1      -8.303   8.561  69.196  1.00  0.00    -0.117 OA 
HETATM   11  C   UNL     1      -9.130   9.361  68.840  1.00  0.00    -0.140 C  
HETATM   12  O   UNL     1      -6.127  12.521  68.665  1.00  0.00    -0.061 OA 
ENDROOT
BRANCH   4  13
HETATM   13  C   UNL     1      -7.958  13.817  66.810  1.00  0.00     0.387 C  
HETATM   14  C   UNL     1      -8.202  15.123  66.989  1.00  0.00    -0.262 C  
BRANCH  14  15
HETATM   15  C   UNL     1      -9.293  15.719  67.683  1.00  0.00    -0.216 A  
HETATM   16  C   UNL     1     -10.251  16.605  67.190  1.00  0.00    -0.290 A  
HETATM   17  N   UNL     1     -11.039  17.227  68.146  1.00  0.00    -0.198 NA 
HETATM   18  S   UNL     1      -9.540  15.552  69.387  1.00  0.00    -0.280 SA 
HETATM   19  C   UNL     1     -10.495  16.980  65.768  1.00  0.00    -0.261 C  
HETATM   20  C   UNL     1     -10.741  16.763  69.335  1.00  0.00    -0.300 A  
ENDBRANCH  14  15
ENDBRANCH   4  13
BRANCH   5  21
HETATM   21  N   UNL     1     -11.564   9.869  69.875  1.00  0.00    -0.409 N  
HETATM   22  C   UNL     1     -11.795   9.421  71.165  1.00  0.00    -0.338 C  
HETATM   23  O   UNL     1     -12.386  10.175  71.940  1.00  0.00    -0.362 OA 
HETATM   24  H   UNL     1     -12.093  10.709  69.638  1.00  0.00     0.000 HD 
BRANCH  22  25
HETATM   25  C   UNL     1     -11.528   8.007  71.643  1.00  0.00    -0.266 C  
BRANCH  25  26
HETATM   26  C   UNL     1     -10.431   7.723  72.603  1.00  0.00    -0.302 A  
HETATM   27  H2  UNL     1      -6.943   8.377  74.990  1.00  0.00     0.000 HD 
HETATM   28  H1  UNL     1      -7.105   9.566  73.696  1.00  0.00     0.000 HD 
HETATM   29  C   UNL     1     -10.459   6.656  73.492  1.00  0.00    -0.313 A  
HETATM   30  N   UNL     1      -9.278   8.503  72.727  1.00  0.00    -0.293 NA 
HETATM   31  S   UNL     1      -9.128   6.710  74.559  1.00  0.00    -0.203 SA 
HETATM   32  N   UNL     1      -7.445   8.734  74.179  1.00  0.00    -0.421 NA 
HETATM   33  C   UNL     1      -8.554   8.109  73.748  1.00  0.00    -0.240 A  
ENDBRANCH  25  26
BRANCH  25  34
HETATM   34  N   UNL     1     -12.272   6.965  71.390  1.00  0.00    -0.355 NA 
HETATM   35  H   UNL     1     -12.934   6.647  72.097  1.00  0.00     0.000 HD 
BRANCH  34  36
HETATM   36  O   UNL     1     -12.189   6.273  70.177  1.00  0.00    -0.005 OA 
HETATM   37  C   UNL     1     -10.954   5.744  69.735  1.00  0.00    -0.327 C  
ENDBRANCH  34  36
ENDBRANCH  25  34
ENDBRANCH  22  25
ENDBRANCH   5  21
TORSDOF 7
ENDMDL
MODEL      118
REMARK 921   NORMALIZED FREE ENERGY PREDICTED BY IDOCK:   -4.86 KCAL/MOL
REMARK 922        TOTAL FREE ENERGY PREDICTED BY IDOCK:   -8.36 KCAL/MOL
REMARK 923 INTER-LIGAND FREE ENERGY PREDICTED BY IDOCK:   -8.19 KCAL/MOL
REMARK 924 INTRA-LIGAND FREE ENERGY PREDICTED BY IDOCK:   -0.17 KCAL/MOL
REMARK 927      BINDING AFFINITY PREDICTED BY RF-SCORE:    0.00 PKD
ROOT
HETATM    1  C   UNL     1      -9.684  13.786  67.758  1.00  0.00    -0.230 C  
HETATM    2  S   UNL     1      -8.177  14.571  67.201  1.00  0.00    -0.144 SA 
HETATM    3  C   UNL     1      -9.003  16.010  66.543  1.00  0.00    -0.292 C  
HETATM    4  C   UNL     1     -10.312  15.775  65.800  1.00  0.00    -0.390 C  
HETATM    5  CA  UNL     1      -9.651  12.230  67.782  1.00  0.00    -0.200 C  
HETATM    6  CA  UNL     1     -11.071  14.650  65.869  1.00  0.00    -0.338 C  
HETATM    7  OXT UNL     1     -13.274  13.707  65.511  1.00  0.00    -0.608 OA 
HETATM    8  N   UNL     1     -10.648  13.623  66.676  1.00  0.00    -0.276 N  
HETATM    9  C   UNL     1     -12.361  14.411  65.101  1.00  0.00    -0.381 C  
HETATM   10  O   UNL     1     -12.060  11.751  67.033  1.00  0.00    -0.575 OA 
HETATM   11  C   UNL     1     -11.047  12.402  67.087  1.00  0.00    -0.280 C  
HETATM   12  O   UNL     1     -12.464  15.026  63.902  1.00  0.00    -0.790 OA 
ENDROOT
BRANCH   4  13
HETATM   13  C   UNL     1     -10.596  16.965  65.009  1.00  0.00     0.004 C  
HETATM   14  C   UNL     1     -10.473  18.260  65.336  1.00  0.00     0.262 C  
BRANCH  14  15
HETATM   15  C   UNL     1     -10.006  18.807  66.565  1.00  0.00    -0.380 A  
HETATM   16  C   UNL     1      -8.790  19.440  66.823  1.00  0.00    -0.327 A  
HETATM   17  N   UNL     1      -8.492  19.640  68.162  1.00  0.00    -0.320 NA 
HETATM   18  S   UNL     1     -10.853  18.638  68.063  1.00  0.00     0.050 SA 
HETATM   19  C   UNL     1      -7.771  19.888  65.831  1.00  0.00    -0.327 C  
HETATM   20  C   UNL     1      -9.496  19.241  68.903  1.00  0.00    -0.380 A  
ENDBRANCH  14  15
ENDBRANCH   4  13
BRANCH   5  21
HETATM   21  N   UNL     1      -8.486  11.570  67.110  1.00  0.00    -0.152 N  
HETATM   22  C   UNL     1      -8.194  10.253  66.795  1.00  0.00    -0.124 C  
HETATM   23  O   UNL     1      -7.258  10.040  66.022  1.00  0.00    -0.101 OA 
HETATM   24  H   UNL     1      -7.758  12.226  66.824  1.00  0.00     0.000 HD 
BRANCH  22  25
HETATM   25  C   UNL     1      -8.827   9.049  67.465  1.00  0.00    -0.123 C  
BRANCH  25  26
HETATM   26  C   UNL     1      -9.222   9.095  68.896  1.00  0.00    -0.139 A  
HETATM   27  H2  UNL     1     -11.754   9.266  72.338  1.00  0.00     0.000 HD 
HETATM   28  H1  UNL     1     -12.587   9.767  70.864  1.00  0.00     0.000 HD 
HETATM   29  C   UNL     1      -8.363   8.741  69.931  1.00  0.00    -0.125 A  
HETATM   30  N   UNL     1     -10.489   9.473  69.347  1.00  0.00    -0.209 NA 
HETATM   31  S   UNL     1      -9.176   8.750  71.432  1.00  0.00    -0.264 SA 
HETATM   32  N   UNL     1     -11.739   9.452  71.336  1.00  0.00    -0.349 NA 
HETATM   33  C   UNL     1     -10.602   9.280  70.640  1.00  0.00    -0.262 A  
ENDBRANCH  25  26
BRANCH  25  34
HETATM   34  N   UNL     1      -9.199   7.952  66.864  1.00  0.00    -0.147 NA 
HETATM   35  H   UNL     1     -10.158   7.627  66.979  1.00  0.00     0.000 HD 
BRANCH  34  36
HETATM   36  O   UNL     1      -8.321   7.210  66.067  1.00  0.00    -0.121 OA 
HETATM   37  C   UNL     1      -8.616   5.869  65.732  1.00  0.00    -0.154 C  
ENDBRANCH  34  36
ENDBRANCH  25  34
ENDBRANCH  22  25
ENDBRANCH   5  21
TORSDOF 7
ENDMDL
MODEL      119
REMARK 921   NORMALIZED FREE ENERGY PREDICTED BY IDOCK:   -4.86 KCAL/MOL
REMARK 922        TOTAL FREE ENERGY PREDICTED BY IDOCK:   -8.36 KCAL/MOL
REMARK 923 INTER-LIGAND FREE ENERGY PREDICTED BY IDOCK:   -8.56 KCAL/MOL
REMARK 924 INTRA-LIGAND FREE ENERGY PREDICTED BY IDOCK:    0.20 KCAL/MOL
REMARK 927      BINDING AFFINITY PREDICTED BY RF-SCORE:    0.00 PKD
ROOT
HETATM    1  C   UNL     1     -11.013  13.624  66.614  1.00  0.00    -0.292 C  
HETATM    2  S   UNL     1     -10.113  12.093  66.412  1.00  0.00    -0.225 SA 
HETATM    3  C   UNL     1     -11.255  11.128  67.387  1.00  0.00    -0.294 C  
HETATM    4  C   UNL     1     -11.802  11.778  68.651  1.00  0.00    -0.369 C  
HETATM    5  CA  UNL     1     -10.143  14.915  66.568  1.00  0.00    -0.271 C  
HETATM    6  CA  UNL     1     -11.772  13.107  68.936  1.00  0.00    -0.326 C  
HETATM    7  OXT UNL     1     -12.742  14.881  70.271  1.00  0.00    -0.328 OA 
HETATM    8  N   UNL     1     -11.212  13.961  68.019  1.00  0.00    -0.260 N  
HETATM    9  C   UNL     1     -12.294  13.744  70.214  1.00  0.00    -0.337 C  
HETATM   10  O   UNL     1     -11.367  16.304  68.347  1.00  0.00    -0.367 OA 
HETATM   11  C   UNL     1     -10.997  15.279  67.833  1.00  0.00    -0.306 C  
HETATM   12  O   UNL     1     -12.239  12.980  71.327  1.00  0.00    -0.208 OA 
ENDROOT
BRANCH   4  13
HETATM   13  C   UNL     1     -12.356  10.724  69.492  1.00  0.00    -0.208 C  
HETATM   14  C   UNL     1     -11.727   9.783  70.211  1.00  0.00    -0.253 C  
BRANCH  14  15
HETATM   15  C   UNL     1     -10.323   9.586  70.349  1.00  0.00    -0.276 A  
HETATM   16  C   UNL     1      -9.633   9.001  71.411  1.00  0.00    -0.285 A  
HETATM   17  N   UNL     1      -8.257   9.175  71.398  1.00  0.00    -0.333 NA 
HETATM   18  S   UNL     1      -9.161  10.207  69.229  1.00  0.00    -0.209 SA 
HETATM   19  C   UNL     1     -10.207   8.248  72.563  1.00  0.00    -0.386 C  
HETATM   20  C   UNL     1      -7.901   9.809  70.308  1.00  0.00    -0.171 A  
ENDBRANCH  14  15
ENDBRANCH   4  13
BRANCH   5  21
HETATM   21  N   UNL     1      -8.657  14.729  66.619  1.00  0.00    -0.426 N  
HETATM   22  C   UNL     1      -7.597  15.605  66.778  1.00  0.00    -0.090 C  
HETATM   23  O   UNL     1      -6.486  15.127  67.018  1.00  0.00    -0.227 OA 
HETATM   24  H   UNL     1      -8.367  13.756  66.514  1.00  0.00     0.000 HD 
BRANCH  22  25
HETATM   25  C   UNL     1      -7.666  17.096  66.507  1.00  0.00    -0.286 C  
BRANCH  25  26
HETATM   26  C   UNL     1      -7.868  18.061  67.618  1.00  0.00    -0.220 A  
HETATM   27  H2  UNL     1      -6.899  20.801  70.756  1.00  0.00     0.000 HD 
HETATM   28  H1  UNL     1      -5.536  19.768  70.320  1.00  0.00     0.000 HD 
HETATM   29  C   UNL     1      -9.076  18.709  67.848  1.00  0.00    -0.294 A  
HETATM   30  N   UNL     1      -6.871  18.433  68.523  1.00  0.00    -0.244 NA 
HETATM   31  S   UNL     1      -8.924  19.866  69.093  1.00  0.00     0.311 SA 
HETATM   32  N   UNL     1      -6.511  20.042  70.197  1.00  0.00    -0.344 NA 
HETATM   33  C   UNL     1      -7.285  19.406  69.301  1.00  0.00    -0.301 A  
ENDBRANCH  25  26
BRANCH  25  34
HETATM   34  N   UNL     1      -7.433  17.672  65.360  1.00  0.00    -0.022 NA 
HETATM   35  H   UNL     1      -7.664  17.175  64.501  1.00  0.00     0.000 HD 
BRANCH  34  36
HETATM   36  O   UNL     1      -6.874  18.952  65.274  1.00  0.00    -0.474 OA 
HETATM   37  C   UNL     1      -5.573  19.134  64.753  1.00  0.00    -0.236 C  
ENDBRANCH  34  36
ENDBRANCH  25  34
ENDBRANCH  22  25
ENDBRANCH   5  21
TORSDOF 7
ENDMDL
MODEL      120
REMARK 921   NORMALIZED FREE ENERGY PREDICTED BY IDOCK:   -4.84 KCAL/MOL
REMARK 922        TOTAL FREE ENERGY PREDICTED BY IDOCK:   -8.33 KCAL/MOL
REMARK 923 INTER-LIGAND FREE ENERGY PREDICTED BY IDOCK:   -6.85 KCAL/MOL
REMARK 924 INTRA-LIGAND FREE ENERGY PREDICTED BY IDOCK:   -1.48 KCAL/MOL
REMARK 927      BINDING AFFINITY PREDICTED BY RF-SCORE:    0.00 PKD
ROOT
HETATM    1  C   UNL     1      -9.295  10.160  69.508  1.00  0.00    -0.210 C  
HETATM    2  S   UNL     1      -8.063   8.879  69.322  1.00  0.00    -0.111 SA 
HETATM    3  C   UNL     1      -7.103   9.780  68.117  1.00  0.00    -0.078 C  
HETATM    4  C   UNL     1      -7.877  10.550  67.055  1.00  0.00    -0.114 C  
HETATM    5  CA  UNL     1     -10.718   9.660  69.896  1.00  0.00    -0.252 C  
HETATM    6  CA  UNL     1      -9.192  10.887  67.121  1.00  0.00    -0.148 C  
HETATM    7  OXT UNL     1     -10.916  12.365  66.274  1.00  0.00    -0.267 OA 
HETATM    8  N   UNL     1      -9.907  10.521  68.234  1.00  0.00    -0.146 N  
HETATM    9  C   UNL     1      -9.965  11.630  66.043  1.00  0.00    -0.228 C  
HETATM   10  O   UNL     1     -12.127  11.306  68.517  1.00  0.00    -0.573 OA 
HETATM   11  C   UNL     1     -11.144  10.651  68.755  1.00  0.00    -0.265 C  
HETATM   12  O   UNL     1      -9.548  11.439  64.772  1.00  0.00    -0.236 OA 
ENDROOT
BRANCH   4  13
HETATM   13  C   UNL     1      -6.959  10.853  65.965  1.00  0.00    -0.066 C  
HETATM   14  C   UNL     1      -6.574  10.090  64.932  1.00  0.00    -0.126 C  
BRANCH  14  15
HETATM   15  C   UNL     1      -6.992   8.763  64.627  1.00  0.00    -0.080 A  
HETATM   16  C   UNL     1      -6.350   7.563  64.932  1.00  0.00    -0.038 A  
HETATM   17  N   UNL     1      -6.845   6.439  64.289  1.00  0.00    -0.038 NA 
HETATM   18  S   UNL     1      -8.366   8.403  63.640  1.00  0.00     0.028 SA 
HETATM   19  C   UNL     1      -5.181   7.362  65.836  1.00  0.00    -0.025 C  
HETATM   20  C   UNL     1      -7.893   6.765  63.572  1.00  0.00    -0.110 A  
ENDBRANCH  14  15
ENDBRANCH   4  13
BRANCH   5  21
HETATM   21  N   UNL     1     -10.958   8.183  69.819  1.00  0.00    -0.400 N  
HETATM   22  C   UNL     1     -11.467   7.257  70.713  1.00  0.00    -0.299 C  
HETATM   23  O   UNL     1     -11.768   6.143  70.280  1.00  0.00    -0.319 OA 
HETATM   24  H   UNL     1     -10.691   7.776  68.922  1.00  0.00     0.000 HD 
BRANCH  22  25
HETATM   25  C   UNL     1     -11.520   7.453  72.216  1.00  0.00    -0.288 C  
BRANCH  25  26
HETATM   26  C   UNL     1     -10.514   6.813  73.102  1.00  0.00    -0.270 A  
HETATM   27  H2  UNL     1      -8.207   3.719  74.945  1.00  0.00     0.000 HD 
HETATM   28  H1  UNL     1      -9.668   3.099  74.172  1.00  0.00     0.000 HD 
HETATM   29  C   UNL     1      -9.475   7.516  73.700  1.00  0.00    -0.284 A  
HETATM   30  N   UNL     1     -10.494   5.449  73.406  1.00  0.00    -0.214 NA 
HETATM   31  S   UNL     1      -8.411   6.460  74.517  1.00  0.00    -0.143 SA 
HETATM   32  N   UNL     1      -9.070   3.885  74.428  1.00  0.00    -0.092 NA 
HETATM   33  C   UNL     1      -9.416   5.138  74.086  1.00  0.00    -0.128 A  
ENDBRANCH  25  26
BRANCH  25  34
HETATM   34  N   UNL     1     -12.321   8.266  72.850  1.00  0.00    -0.631 NA 
HETATM   35  H   UNL     1     -12.212   8.381  73.857  1.00  0.00     0.000 HD 
BRANCH  34  36
HETATM   36  O   UNL     1     -13.325   8.982  72.189  1.00  0.00    -0.389 OA 
HETATM   37  C   UNL     1     -13.275  10.394  72.124  1.00  0.00    -0.312 C  
ENDBRANCH  34  36
ENDBRANCH  25  34
ENDBRANCH  22  25
ENDBRANCH   5  21
TORSDOF 7
ENDMDL
MODEL      121
REMARK 921   NORMALIZED FREE ENERGY PREDICTED BY IDOCK:   -4.80 KCAL/MOL
REMARK 922        TOTAL FREE ENERGY PREDICTED BY IDOCK:   -8.27 KCAL/MOL
REMARK 923 INTER-LIGAND FREE ENERGY PREDICTED BY IDOCK:   -6.96 KCAL/MOL
REMARK 924 INTRA-LIGAND FREE ENERGY PREDICTED BY IDOCK:   -1.31 KCAL/MOL
REMARK 927      BINDING AFFINITY PREDICTED BY RF-SCORE:    0.00 PKD
ROOT
HETATM    1  C   UNL     1     -10.149   8.874  68.042  1.00  0.00    -0.195 C  
HETATM    2  S   UNL     1      -9.543  10.007  69.285  1.00  0.00    -0.227 SA 
HETATM    3  C   UNL     1      -9.571  11.428  68.206  1.00  0.00    -0.192 C  
HETATM    4  C   UNL     1      -9.106  11.214  66.772  1.00  0.00    -0.174 C  
HETATM    5  CA  UNL     1      -9.677   7.399  68.204  1.00  0.00    -0.151 C  
HETATM    6  CA  UNL     1      -8.988  10.013  66.148  1.00  0.00    -0.149 C  
HETATM    7  OXT UNL     1      -8.857   8.882  64.009  1.00  0.00    -0.109 OA 
HETATM    8  N   UNL     1      -9.316   8.877  66.846  1.00  0.00    -0.158 N  
HETATM    9  C   UNL     1      -8.494   9.806  64.725  1.00  0.00    -0.164 C  
HETATM   10  O   UNL     1      -9.377   6.786  65.728  1.00  0.00     0.014 OA 
HETATM   11  C   UNL     1      -9.403   7.544  66.665  1.00  0.00    -0.174 C  
HETATM   12  O   UNL     1      -7.603  10.712  64.265  1.00  0.00     0.011 OA 
ENDROOT
BRANCH   4  13
HETATM   13  C   UNL     1      -8.812  12.522  66.198  1.00  0.00     0.154 C  
HETATM   14  C   UNL     1      -9.537  13.268  65.353  1.00  0.00     0.092 C  
BRANCH  14  15
HETATM   15  C   UNL     1     -10.816  12.968  64.804  1.00  0.00    -0.337 A  
HETATM   16  C   UNL     1     -12.068  13.400  65.243  1.00  0.00    -0.413 A  
HETATM   17  N   UNL     1     -13.157  12.747  64.684  1.00  0.00    -0.810 NA 
HETATM   18  S   UNL     1     -11.058  11.833  63.522  1.00  0.00    -0.392 SA 
HETATM   19  C   UNL     1     -12.362  14.450  66.260  1.00  0.00    -0.325 C  
HETATM   20  C   UNL     1     -12.744  11.893  63.781  1.00  0.00    -0.350 A  
ENDBRANCH  14  15
ENDBRANCH   4  13
BRANCH   5  21
HETATM   21  N   UNL     1      -8.589   7.144  69.201  1.00  0.00    -0.133 N  
HETATM   22  C   UNL     1      -8.520   6.386  70.357  1.00  0.00    -0.131 C  
HETATM   23  O   UNL     1      -7.407   6.180  70.845  1.00  0.00    -0.076 OA 
HETATM   24  H   UNL     1      -7.718   7.630  68.982  1.00  0.00     0.000 HD 
BRANCH  22  25
HETATM   25  C   UNL     1      -9.724   5.937  71.163  1.00  0.00    -0.174 C  
BRANCH  25  26
HETATM   26  C   UNL     1     -10.860   6.861  71.411  1.00  0.00    -0.228 A  
HETATM   27  H2  UNL     1     -14.899   8.234  71.722  1.00  0.00     0.000 HD 
HETATM   28  H1  UNL     1     -14.762   6.757  70.764  1.00  0.00     0.000 HD 
HETATM   29  C   UNL     1     -10.731   8.046  72.126  1.00  0.00    -0.276 A  
HETATM   30  N   UNL     1     -12.168   6.628  70.976  1.00  0.00    -0.344 NA 
HETATM   31  S   UNL     1     -12.250   8.786  72.366  1.00  0.00    -0.270 SA 
HETATM   32  N   UNL     1     -14.323   7.504  71.302  1.00  0.00    -0.379 NA 
HETATM   33  C   UNL     1     -12.988   7.531  71.461  1.00  0.00    -0.359 A  
ENDBRANCH  25  26
BRANCH  25  34
HETATM   34  N   UNL     1      -9.946   4.723  71.586  1.00  0.00    -0.183 NA 
HETATM   35  H   UNL     1      -9.635   3.937  71.017  1.00  0.00     0.000 HD 
BRANCH  34  36
HETATM   36  O   UNL     1     -10.598   4.469  72.798  1.00  0.00    -0.191 OA 
HETATM   37  C   UNL     1     -10.482   3.206  73.423  1.00  0.00    -0.163 C  
ENDBRANCH  34  36
ENDBRANCH  25  34
ENDBRANCH  22  25
ENDBRANCH   5  21
TORSDOF 7
ENDMDL
MODEL      122
REMARK 921   NORMALIZED FREE ENERGY PREDICTED BY IDOCK:   -4.77 KCAL/MOL
REMARK 922        TOTAL FREE ENERGY PREDICTED BY IDOCK:   -8.24 KCAL/MOL
REMARK 923 INTER-LIGAND FREE ENERGY PREDICTED BY IDOCK:   -6.90 KCAL/MOL
REMARK 924 INTRA-LIGAND FREE ENERGY PREDICTED BY IDOCK:   -1.34 KCAL/MOL
REMARK 927      BINDING AFFINITY PREDICTED BY RF-SCORE:    0.00 PKD
ROOT
HETATM    1  C   UNL     1      -8.618  13.981  68.473  1.00  0.00    -0.147 C  
HETATM    2  S   UNL     1      -6.953  13.875  67.831  1.00  0.00    -0.176 SA 
HETATM    3  C   UNL     1      -6.894  15.581  67.312  1.00  0.00    -0.133 C  
HETATM    4  C   UNL     1      -8.152  16.151  66.670  1.00  0.00    -0.323 C  
HETATM    5  CA  UNL     1      -9.434  12.655  68.422  1.00  0.00    -0.163 C  
HETATM    6  CA  UNL     1      -9.396  15.611  66.749  1.00  0.00    -0.246 C  
HETATM    7  OXT UNL     1     -11.772  16.036  66.530  1.00  0.00     0.457 OA 
HETATM    8  N   UNL     1      -9.564  14.454  67.469  1.00  0.00    -0.212 N  
HETATM    9  C   UNL     1     -10.642  16.170  66.080  1.00  0.00    -0.283 C  
HETATM   10  O   UNL     1     -11.748  13.614  67.854  1.00  0.00    -0.319 OA 
HETATM   11  C   UNL     1     -10.543  13.611  67.854  1.00  0.00    -0.249 C  
HETATM   12  O   UNL     1     -10.447  16.842  64.924  1.00  0.00    -0.600 OA 
ENDROOT
BRANCH   4  13
HETATM   13  C   UNL     1      -7.779  17.369  65.962  1.00  0.00    -0.233 C  
HETATM   14  C   UNL     1      -8.027  18.649  66.272  1.00  0.00    -0.276 C  
BRANCH  14  15
HETATM   15  C   UNL     1      -8.721  19.151  67.410  1.00  0.00    -0.290 A  
HETATM   16  C   UNL     1      -8.301  19.167  68.741  1.00  0.00    -0.342 A  
HETATM   17  N   UNL     1      -9.281  19.475  69.673  1.00  0.00     0.176 NA 
HETATM   18  S   UNL     1     -10.353  19.720  67.354  1.00  0.00    -0.446 SA 
HETATM   19  C   UNL     1      -6.941  18.860  69.268  1.00  0.00    -0.273 C  
HETATM   20  C   UNL     1     -10.401  19.766  69.059  1.00  0.00    -0.137 A  
ENDBRANCH  14  15
ENDBRANCH   4  13
BRANCH   5  21
HETATM   21  N   UNL     1      -8.846  11.532  67.625  1.00  0.00    -0.149 N  
HETATM   22  C   UNL     1      -9.327  10.295  67.230  1.00  0.00    -0.149 C  
HETATM   23  O   UNL     1      -8.694   9.678  66.372  1.00  0.00    -0.131 OA 
HETATM   24  H   UNL     1      -7.893  11.716  67.308  1.00  0.00     0.000 HD 
BRANCH  22  25
HETATM   25  C   UNL     1     -10.478   9.568  67.898  1.00  0.00    -0.241 C  
BRANCH  25  26
HETATM   26  C   UNL     1     -10.324   8.166  68.363  1.00  0.00    -0.199 A  
HETATM   27  H2  UNL     1      -9.981   3.907  68.167  1.00  0.00     0.000 HD 
HETATM   28  H1  UNL     1     -10.658   4.596  66.689  1.00  0.00     0.000 HD 
HETATM   29  C   UNL     1      -9.851   7.834  69.627  1.00  0.00    -0.182 A  
HETATM   30  N   UNL     1     -10.613   7.045  67.579  1.00  0.00    -0.251 NA 
HETATM   31  S   UNL     1      -9.642   6.147  69.780  1.00  0.00    -0.151 SA 
HETATM   32  N   UNL     1     -10.299   4.717  67.636  1.00  0.00    -0.035 NA 
HETATM   33  C   UNL     1     -10.245   5.942  68.188  1.00  0.00    -0.184 A  
ENDBRANCH  25  26
BRANCH  25  34
HETATM   34  N   UNL     1     -11.618  10.102  68.243  1.00  0.00    -0.663 NA 
HETATM   35  H   UNL     1     -12.155  10.615  67.544  1.00  0.00     0.000 HD 
BRANCH  34  36
HETATM   36  O   UNL     1     -12.125   9.992  69.542  1.00  0.00     0.038 OA 
HETATM   37  C   UNL     1     -12.127  11.108  70.409  1.00  0.00    -0.385 C  
ENDBRANCH  34  36
ENDBRANCH  25  34
ENDBRANCH  22  25
ENDBRANCH   5  21
TORSDOF 7
ENDMDL
MODEL      123
REMARK 921   NORMALIZED FREE ENERGY PREDICTED BY IDOCK:   -4.74 KCAL/MOL
REMARK 922        TOTAL FREE ENERGY PREDICTED BY IDOCK:   -8.20 KCAL/MOL
REMARK 923 INTER-LIGAND FREE ENERGY PREDICTED BY IDOCK:   -7.09 KCAL/MOL
REMARK 924 INTRA-LIGAND FREE ENERGY PREDICTED BY IDOCK:   -1.11 KCAL/MOL
REMARK 927      BINDING AFFINITY PREDICTED BY RF-SCORE:    0.00 PKD
ROOT
HETATM    1  C   UNL     1     -11.784  11.191  68.492  1.00  0.00    -0.298 C  
HETATM    2  S   UNL     1     -11.494  12.682  69.434  1.00  0.00    -0.236 SA 
HETATM    3  C   UNL     1     -12.069  13.777  68.147  1.00  0.00    -0.281 C  
HETATM    4  C   UNL     1     -11.667  13.432  66.719  1.00  0.00    -0.429 C  
HETATM    5  CA  UNL     1     -10.842   9.999  68.831  1.00  0.00    -0.220 C  
HETATM    6  CA  UNL     1     -11.207  12.226  66.294  1.00  0.00    -0.323 C  
HETATM    7  OXT UNL     1     -10.871  10.785  64.375  1.00  0.00    -0.226 OA 
HETATM    8  N   UNL     1     -11.090  11.210  67.209  1.00  0.00    -0.295 N  
HETATM    9  C   UNL     1     -10.781  11.900  64.872  1.00  0.00    -0.301 C  
HETATM   10  O   UNL     1     -10.542   9.023  66.475  1.00  0.00    -0.178 OA 
HETATM   11  C   UNL     1     -10.746   9.908  67.267  1.00  0.00    -0.238 C  
HETATM   12  O   UNL     1     -10.274  12.924  64.150  1.00  0.00    -0.391 OA 
ENDROOT
BRANCH   4  13
HETATM   13  C   UNL     1     -11.864  14.622  65.901  1.00  0.00    -0.272 C  
HETATM   14  C   UNL     1     -11.315  15.840  66.016  1.00  0.00     0.139 C  
BRANCH  14  15
HETATM   15  C   UNL     1     -10.367  16.281  66.983  1.00  0.00    -0.292 A  
HETATM   16  C   UNL     1      -9.145  15.699  67.323  1.00  0.00    -0.205 A  
HETATM   17  N   UNL     1      -8.550  16.189  68.475  1.00  0.00    -0.192 NA 
HETATM   18  S   UNL     1     -10.655  17.600  68.064  1.00  0.00    -0.331 SA 
HETATM   19  C   UNL     1      -8.434  14.599  66.612  1.00  0.00    -0.052 C  
HETATM   20  C   UNL     1      -9.264  17.177  68.957  1.00  0.00    -0.135 A  
ENDBRANCH  14  15
ENDBRANCH   4  13
BRANCH   5  21
HETATM   21  N   UNL     1      -9.659  10.300  69.700  1.00  0.00    -0.354 N  
HETATM   22  C   UNL     1      -8.557   9.559  70.092  1.00  0.00    -0.224 C  
HETATM   23  O   UNL     1      -7.621  10.157  70.624  1.00  0.00    -0.237 OA 
HETATM   24  H   UNL     1      -9.667  11.246  70.080  1.00  0.00     0.000 HD 
BRANCH  22  25
HETATM   25  C   UNL     1      -8.490   8.044  70.073  1.00  0.00    -0.129 C  
BRANCH  25  26
HETATM   26  C   UNL     1      -9.219   7.238  71.085  1.00  0.00    -0.156 A  
HETATM   27  H2  UNL     1     -10.063   4.029  73.784  1.00  0.00     0.000 HD 
HETATM   28  H1  UNL     1      -8.834   3.600  72.592  1.00  0.00     0.000 HD 
HETATM   29  C   UNL     1     -10.242   7.755  71.871  1.00  0.00    -0.202 A  
HETATM   30  N   UNL     1      -8.941   5.898  71.367  1.00  0.00    -0.140 NA 
HETATM   31  S   UNL     1     -10.753   6.618  73.038  1.00  0.00    -0.278 SA 
HETATM   32  N   UNL     1      -9.499   4.274  72.971  1.00  0.00    -0.120 NA 
HETATM   33  C   UNL     1      -9.634   5.485  72.402  1.00  0.00    -0.150 A  
ENDBRANCH  25  26
BRANCH  25  34
HETATM   34  N   UNL     1      -7.931   7.319  69.143  1.00  0.00    -0.117 NA 
HETATM   35  H   UNL     1      -6.948   7.065  69.238  1.00  0.00     0.000 HD 
BRANCH  34  36
HETATM   36  O   UNL     1      -8.640   6.880  68.019  1.00  0.00    -0.123 OA 
HETATM   37  C   UNL     1      -8.612   5.519  67.639  1.00  0.00    -0.108 C  
ENDBRANCH  34  36
ENDBRANCH  25  34
ENDBRANCH  22  25
ENDBRANCH   5  21
TORSDOF 7
ENDMDL
MODEL      124
REMARK 921   NORMALIZED FREE ENERGY PREDICTED BY IDOCK:   -4.74 KCAL/MOL
REMARK 922        TOTAL FREE ENERGY PREDICTED BY IDOCK:   -8.19 KCAL/MOL
REMARK 923 INTER-LIGAND FREE ENERGY PREDICTED BY IDOCK:   -6.99 KCAL/MOL
REMARK 924 INTRA-LIGAND FREE ENERGY PREDICTED BY IDOCK:   -1.19 KCAL/MOL
REMARK 927      BINDING AFFINITY PREDICTED BY RF-SCORE:    0.00 PKD
ROOT
HETATM    1  C   UNL     1     -10.998  10.678  67.208  1.00  0.00    -0.284 C  
HETATM    2  S   UNL     1     -10.570  11.258  68.844  1.00  0.00    -0.199 SA 
HETATM    3  C   UNL     1     -11.379  12.837  68.650  1.00  0.00    -0.294 C  
HETATM    4  C   UNL     1     -11.230  13.527  67.301  1.00  0.00    -0.319 C  
HETATM    5  CA  UNL     1      -9.992   9.670  66.578  1.00  0.00    -0.246 C  
HETATM    6  CA  UNL     1     -10.833  12.932  66.146  1.00  0.00    -0.279 C  
HETATM    7  OXT UNL     1     -10.817  13.085  63.727  1.00  0.00    -0.372 OA 
HETATM    8  N   UNL     1     -10.541  11.591  66.167  1.00  0.00    -0.258 N  
HETATM    9  C   UNL     1     -10.659  13.635  64.809  1.00  0.00    -0.422 C  
HETATM   10  O   UNL     1     -10.096  10.451  64.135  1.00  0.00    -0.322 OA 
HETATM   11  C   UNL     1     -10.172  10.601  65.328  1.00  0.00    -0.282 C  
HETATM   12  O   UNL     1     -10.303  14.938  64.862  1.00  0.00    -0.400 OA 
ENDROOT
BRANCH   4  13
HETATM   13  C   UNL     1     -11.586  14.930  67.475  1.00  0.00    -0.355 C  
HETATM   14  C   UNL     1     -10.821  15.968  67.839  1.00  0.00    -0.333 C  
BRANCH  14  15
HETATM   15  C   UNL     1      -9.429  15.961  68.139  1.00  0.00    -0.203 A  
HETATM   16  C   UNL     1      -8.389  16.565  67.431  1.00  0.00    -0.170 A  
HETATM   17  N   UNL     1      -7.110  16.179  67.802  1.00  0.00    -0.128 NA 
HETATM   18  S   UNL     1      -8.737  15.026  69.419  1.00  0.00    -0.049 SA 
HETATM   19  C   UNL     1      -8.500  17.540  66.309  1.00  0.00    -0.247 C  
HETATM   20  C   UNL     1      -7.173  15.361  68.824  1.00  0.00    -0.128 A  
ENDBRANCH  14  15
ENDBRANCH   4  13
BRANCH   5  21
HETATM   21  N   UNL     1      -8.679   9.499  67.280  1.00  0.00    -0.128 N  
HETATM   22  C   UNL     1      -7.971   8.390  67.710  1.00  0.00    -0.111 C  
HETATM   23  O   UNL     1      -6.797   8.553  68.049  1.00  0.00    -0.067 OA 
HETATM   24  H   UNL     1      -8.211  10.383  67.483  1.00  0.00     0.000 HD 
BRANCH  22  25
HETATM   25  C   UNL     1      -8.581   7.024  67.959  1.00  0.00    -0.124 C  
BRANCH  25  26
HETATM   26  C   UNL     1      -9.180   6.689  69.277  1.00  0.00    -0.140 A  
HETATM   27  H2  UNL     1     -10.331   4.338  72.659  1.00  0.00     0.000 HD 
HETATM   28  H1  UNL     1      -9.923   3.345  71.257  1.00  0.00     0.000 HD 
HETATM   29  C   UNL     1      -9.522   7.650  70.220  1.00  0.00    -0.161 A  
HETATM   30  N   UNL     1      -9.437   5.385  69.710  1.00  0.00    -0.144 NA 
HETATM   31  S   UNL     1     -10.030   6.924  71.679  1.00  0.00    -0.170 SA 
HETATM   32  N   UNL     1     -10.044   4.264  71.684  1.00  0.00    -0.175 NA 
HETATM   33  C   UNL     1      -9.827   5.378  70.963  1.00  0.00    -0.187 A  
ENDBRANCH  25  26
BRANCH  25  34
HETATM   34  N   UNL     1      -8.761   6.096  67.061  1.00  0.00    -0.107 NA 
HETATM   35  H   UNL     1      -9.683   5.990  66.638  1.00  0.00     0.000 HD 
BRANCH  34  36
HETATM   36  O   UNL     1      -7.728   5.242  66.659  1.00  0.00    -0.094 OA 
HETATM   37  C   UNL     1      -7.984   3.875  66.409  1.00  0.00    -0.097 C  
ENDBRANCH  34  36
ENDBRANCH  25  34
ENDBRANCH  22  25
ENDBRANCH   5  21
TORSDOF 7
ENDMDL
MODEL      125
REMARK 921   NORMALIZED FREE ENERGY PREDICTED BY IDOCK:   -4.72 KCAL/MOL
REMARK 922        TOTAL FREE ENERGY PREDICTED BY IDOCK:   -8.17 KCAL/MOL
REMARK 923 INTER-LIGAND FREE ENERGY PREDICTED BY IDOCK:   -7.04 KCAL/MOL
REMARK 924 INTRA-LIGAND FREE ENERGY PREDICTED BY IDOCK:   -1.13 KCAL/MOL
REMARK 927      BINDING AFFINITY PREDICTED BY RF-SCORE:    0.00 PKD
ROOT
HETATM    1  C   UNL     1      -9.456  10.975  66.802  1.00  0.00    -0.182 C  
HETATM    2  S   UNL     1     -11.171  11.479  66.755  1.00  0.00    -0.227 SA 
HETATM    3  C   UNL     1     -10.846  13.004  65.887  1.00  0.00    -0.272 C  
HETATM    4  C   UNL     1      -9.611  13.788  66.311  1.00  0.00    -0.265 C  
HETATM    5  CA  UNL     1      -9.060  10.084  68.016  1.00  0.00    -0.131 C  
HETATM    6  CA  UNL     1      -8.570  13.298  67.034  1.00  0.00    -0.161 C  
HETATM    7  OXT UNL     1      -6.245  13.607  67.643  1.00  0.00    -0.188 OA 
HETATM    8  N   UNL     1      -8.607  11.983  67.426  1.00  0.00    -0.163 N  
HETATM    9  C   UNL     1      -7.354  14.096  67.478  1.00  0.00    -0.175 C  
HETATM   10  O   UNL     1      -6.707  11.011  68.461  1.00  0.00    -0.057 OA 
HETATM   11  C   UNL     1      -7.847  11.079  68.077  1.00  0.00    -0.112 C  
HETATM   12  O   UNL     1      -7.553  15.415  67.695  1.00  0.00    -0.136 OA 
ENDROOT
BRANCH   4  13
HETATM   13  C   UNL     1      -9.749  15.148  65.803  1.00  0.00    -0.379 C  
HETATM   14  C   UNL     1     -10.249  16.238  66.402  1.00  0.00    -0.322 C  
BRANCH  14  15
HETATM   15  C   UNL     1     -10.767  16.345  67.724  1.00  0.00    -0.328 A  
HETATM   16  C   UNL     1     -10.410  17.253  68.722  1.00  0.00    -0.358 A  
HETATM   17  N   UNL     1     -10.887  16.964  69.992  1.00  0.00    -0.087 NA 
HETATM   18  S   UNL     1     -11.881  15.210  68.404  1.00  0.00    -0.194 SA 
HETATM   19  C   UNL     1      -9.555  18.466  68.582  1.00  0.00    -0.363 C  
HETATM   20  C   UNL     1     -11.655  15.904  69.946  1.00  0.00    -0.336 A  
ENDBRANCH  14  15
ENDBRANCH   4  13
BRANCH   5  21
HETATM   21  N   UNL     1     -10.066   9.964  69.121  1.00  0.00    -0.188 N  
HETATM   22  C   UNL     1     -10.002   9.467  70.411  1.00  0.00    -0.252 C  
HETATM   23  O   UNL     1     -10.937   9.720  71.172  1.00  0.00    -0.348 OA 
HETATM   24  H   UNL     1     -10.987  10.322  68.869  1.00  0.00     0.000 HD 
BRANCH  22  25
HETATM   25  C   UNL     1      -8.952   8.490  70.905  1.00  0.00    -0.172 C  
BRANCH  25  26
HETATM   26  C   UNL     1      -8.795   7.157  70.268  1.00  0.00    -0.148 A  
HETATM   27  H2  UNL     1      -9.599   3.842  67.688  1.00  0.00     0.000 HD 
HETATM   28  H1  UNL     1     -10.990   4.916  67.858  1.00  0.00     0.000 HD 
HETATM   29  C   UNL     1      -7.619   6.419  70.336  1.00  0.00    -0.096 A  
HETATM   30  N   UNL     1      -9.793   6.522  69.525  1.00  0.00    -0.151 NA 
HETATM   31  S   UNL     1      -7.718   5.017  69.368  1.00  0.00    -0.068 SA 
HETATM   32  N   UNL     1     -10.030   4.669  68.100  1.00  0.00    -0.103 NA 
HETATM   33  C   UNL     1      -9.332   5.431  68.960  1.00  0.00    -0.127 A  
ENDBRANCH  25  26
BRANCH  25  34
HETATM   34  N   UNL     1      -8.035   8.745  71.797  1.00  0.00    -0.300 NA 
HETATM   35  H   UNL     1      -7.076   8.904  71.488  1.00  0.00     0.000 HD 
BRANCH  34  36
HETATM   36  O   UNL     1      -8.327   8.808  73.164  1.00  0.00    -0.402 OA 
HETATM   37  C   UNL     1      -8.662   7.637  73.880  1.00  0.00    -0.251 C  
ENDBRANCH  34  36
ENDBRANCH  25  34
ENDBRANCH  22  25
ENDBRANCH   5  21
TORSDOF 7
ENDMDL
MODEL      126
REMARK 921   NORMALIZED FREE ENERGY PREDICTED BY IDOCK:   -4.72 KCAL/MOL
REMARK 922        TOTAL FREE ENERGY PREDICTED BY IDOCK:   -8.16 KCAL/MOL
REMARK 923 INTER-LIGAND FREE ENERGY PREDICTED BY IDOCK:   -7.22 KCAL/MOL
REMARK 924 INTRA-LIGAND FREE ENERGY PREDICTED BY IDOCK:   -0.94 KCAL/MOL
REMARK 927      BINDING AFFINITY PREDICTED BY RF-SCORE:    0.00 PKD
ROOT
HETATM    1  C   UNL     1      -9.614  10.447  67.291  1.00  0.00    -0.156 C  
HETATM    2  S   UNL     1     -11.285  11.056  67.113  1.00  0.00    -0.126 SA 
HETATM    3  C   UNL     1     -10.819  12.451  66.102  1.00  0.00    -0.273 C  
HETATM    4  C   UNL     1      -9.548  13.193  66.494  1.00  0.00    -0.268 C  
HETATM    5  CA  UNL     1      -9.329   9.671  68.611  1.00  0.00    -0.143 C  
HETATM    6  CA  UNL     1      -8.573  12.717  67.312  1.00  0.00    -0.196 C  
HETATM    7  OXT UNL     1      -6.256  12.934  67.989  1.00  0.00    -0.083 OA 
HETATM    8  N   UNL     1      -8.718  11.458  67.841  1.00  0.00    -0.139 N  
HETATM    9  C   UNL     1      -7.321  13.475  67.722  1.00  0.00    -0.163 C  
HETATM   10  O   UNL     1      -6.934  10.481  69.060  1.00  0.00    -0.063 OA 
HETATM   11  C   UNL     1      -8.050  10.582  68.619  1.00  0.00    -0.127 C  
HETATM   12  O   UNL     1      -7.433  14.820  67.787  1.00  0.00    -0.130 OA 
ENDROOT
BRANCH   4  13
HETATM   13  C   UNL     1      -9.570  14.494  65.837  1.00  0.00    -0.281 C  
HETATM   14  C   UNL     1     -10.026  15.671  66.287  1.00  0.00    -0.315 C  
BRANCH  14  15
HETATM   15  C   UNL     1     -10.604  15.954  67.557  1.00  0.00    -0.315 A  
HETATM   16  C   UNL     1     -10.214  16.916  68.490  1.00  0.00    -0.310 A  
HETATM   17  N   UNL     1     -10.787  16.797  69.747  1.00  0.00    -0.265 NA 
HETATM   18  S   UNL     1     -11.863  15.000  68.262  1.00  0.00    -0.196 SA 
HETATM   19  C   UNL     1      -9.235  18.023  68.298  1.00  0.00    -0.298 C  
HETATM   20  C   UNL     1     -11.655  15.815  69.747  1.00  0.00    -0.355 A  
ENDBRANCH  14  15
ENDBRANCH   4  13
BRANCH   5  21
HETATM   21  N   UNL     1     -10.381   9.741  69.675  1.00  0.00    -0.220 N  
HETATM   22  C   UNL     1     -10.414   9.349  71.002  1.00  0.00    -0.322 C  
HETATM   23  O   UNL     1     -11.347   9.754  71.699  1.00  0.00    -0.349 OA 
HETATM   24  H   UNL     1     -11.252  10.164  69.355  1.00  0.00     0.000 HD 
BRANCH  22  25
HETATM   25  C   UNL     1      -9.487   8.319  71.618  1.00  0.00    -0.195 C  
BRANCH  25  26
HETATM   26  C   UNL     1      -9.961   6.940  71.900  1.00  0.00    -0.171 A  
HETATM   27  H2  UNL     1     -10.082   2.665  71.834  1.00  0.00     0.000 HD 
HETATM   28  H1  UNL     1      -9.073   3.330  70.546  1.00  0.00     0.000 HD 
HETATM   29  C   UNL     1     -10.850   6.639  72.925  1.00  0.00    -0.262 A  
HETATM   30  N   UNL     1      -9.551   5.811  71.186  1.00  0.00    -0.165 NA 
HETATM   31  S   UNL     1     -11.060   4.952  73.078  1.00  0.00    -0.286 SA 
HETATM   32  N   UNL     1      -9.696   3.471  71.341  1.00  0.00    -0.168 NA 
HETATM   33  C   UNL     1     -10.012   4.715  71.742  1.00  0.00    -0.192 A  
ENDBRANCH  25  26
BRANCH  25  34
HETATM   34  N   UNL     1      -8.209   8.477  71.831  1.00  0.00    -0.204 NA 
HETATM   35  H   UNL     1      -7.564   8.393  71.046  1.00  0.00     0.000 HD 
BRANCH  34  36
HETATM   36  O   UNL     1      -7.698   8.759  73.103  1.00  0.00    -0.385 OA 
HETATM   37  C   UNL     1      -6.973   7.778  73.818  1.00  0.00    -0.098 C  
ENDBRANCH  34  36
ENDBRANCH  25  34
ENDBRANCH  22  25
ENDBRANCH   5  21
TORSDOF 7
ENDMDL
MODEL      127
REMARK 921   NORMALIZED FREE ENERGY PREDICTED BY IDOCK:   -4.71 KCAL/MOL
REMARK 922        TOTAL FREE ENERGY PREDICTED BY IDOCK:   -8.14 KCAL/MOL
REMARK 923 INTER-LIGAND FREE ENERGY PREDICTED BY IDOCK:   -6.52 KCAL/MOL
REMARK 924 INTRA-LIGAND FREE ENERGY PREDICTED BY IDOCK:   -1.62 KCAL/MOL
REMARK 927      BINDING AFFINITY PREDICTED BY RF-SCORE:    0.00 PKD
ROOT
HETATM    1  C   UNL     1     -10.209   8.781  68.306  1.00  0.00    -0.201 C  
HETATM    2  S   UNL     1      -9.717   9.864  69.641  1.00  0.00    -0.234 SA 
HETATM    3  C   UNL     1      -9.677  11.330  68.625  1.00  0.00    -0.195 C  
HETATM    4  C   UNL     1      -9.097  11.184  67.224  1.00  0.00    -0.152 C  
HETATM    5  CA  UNL     1      -9.734   7.304  68.441  1.00  0.00    -0.148 C  
HETATM    6  CA  UNL     1      -8.916  10.012  66.561  1.00  0.00    -0.143 C  
HETATM    7  OXT UNL     1      -8.602   8.977  64.392  1.00  0.00    -0.182 OA 
HETATM    8  N   UNL     1      -9.284   8.844  67.181  1.00  0.00    -0.136 N  
HETATM    9  C   UNL     1      -8.309   9.871  65.174  1.00  0.00    -0.148 C  
HETATM   10  O   UNL     1      -9.231   6.803  65.973  1.00  0.00    -0.132 OA 
HETATM   11  C   UNL     1      -9.340   7.519  66.936  1.00  0.00    -0.157 C  
HETATM   12  O   UNL     1      -7.395  10.804  64.825  1.00  0.00     0.077 OA 
ENDROOT
BRANCH   4  13
HETATM   13  C   UNL     1      -8.775  12.517  66.732  1.00  0.00    -0.147 C  
HETATM   14  C   UNL     1      -9.448  13.299  65.876  1.00  0.00    -0.045 C  
BRANCH  14  15
HETATM   15  C   UNL     1     -10.687  13.021  65.232  1.00  0.00    -0.299 A  
HETATM   16  C   UNL     1     -11.979  13.217  65.720  1.00  0.00    -0.423 A  
HETATM   17  N   UNL     1     -12.993  12.617  64.987  1.00  0.00    -0.799 NA 
HETATM   18  S   UNL     1     -10.804  12.208  63.709  1.00  0.00    -0.476 SA 
HETATM   19  C   UNL     1     -12.384  13.961  66.946  1.00  0.00    -0.331 C  
HETATM   20  C   UNL     1     -12.489  12.046  63.921  1.00  0.00    -0.436 A  
ENDBRANCH  14  15
ENDBRANCH   4  13
BRANCH   5  21
HETATM   21  N   UNL     1      -8.724   7.016  69.510  1.00  0.00    -0.134 N  
HETATM   22  C   UNL     1      -8.355   5.862  70.179  1.00  0.00    -0.118 C  
HETATM   23  O   UNL     1      -7.319   5.889  70.846  1.00  0.00    -0.081 OA 
HETATM   24  H   UNL     1      -8.201   7.841  69.805  1.00  0.00     0.000 HD 
BRANCH  22  25
HETATM   25  C   UNL     1      -9.219   4.621  70.293  1.00  0.00    -0.132 C  
BRANCH  25  26
HETATM   26  C   UNL     1      -9.945   4.314  71.552  1.00  0.00    -0.173 A  
HETATM   27  H2  UNL     1     -11.088   2.202  75.092  1.00  0.00     0.000 HD 
HETATM   28  H1  UNL     1     -10.214   1.178  73.950  1.00  0.00     0.000 HD 
HETATM   29  C   UNL     1     -10.668   5.266  72.262  1.00  0.00    -0.223 A  
HETATM   30  N   UNL     1      -9.959   3.056  72.161  1.00  0.00    -0.168 NA 
HETATM   31  S   UNL     1     -11.239   4.627  73.738  1.00  0.00    -0.024 SA 
HETATM   32  N   UNL     1     -10.623   2.080  74.193  1.00  0.00    -0.132 NA 
HETATM   33  C   UNL     1     -10.552   3.110  73.331  1.00  0.00    -0.182 A  
ENDBRANCH  25  26
BRANCH  25  34
HETATM   34  N   UNL     1      -9.514   3.807  69.317  1.00  0.00    -0.181 NA 
HETATM   35  H   UNL     1     -10.134   3.018  69.502  1.00  0.00     0.000 HD 
BRANCH  34  36
HETATM   36  O   UNL     1      -9.007   3.983  68.026  1.00  0.00    -0.106 OA 
HETATM   37  C   UNL     1      -9.034   2.922  67.093  1.00  0.00    -0.159 C  
ENDBRANCH  34  36
ENDBRANCH  25  34
ENDBRANCH  22  25
ENDBRANCH   5  21
TORSDOF 7
ENDMDL
MODEL      128
REMARK 921   NORMALIZED FREE ENERGY PREDICTED BY IDOCK:   -4.68 KCAL/MOL
REMARK 922        TOTAL FREE ENERGY PREDICTED BY IDOCK:   -8.10 KCAL/MOL
REMARK 923 INTER-LIGAND FREE ENERGY PREDICTED BY IDOCK:   -7.19 KCAL/MOL
REMARK 924 INTRA-LIGAND FREE ENERGY PREDICTED BY IDOCK:   -0.92 KCAL/MOL
REMARK 927      BINDING AFFINITY PREDICTED BY RF-SCORE:    0.00 PKD
ROOT
HETATM    1  C   UNL     1      -9.466  10.967  67.554  1.00  0.00    -0.155 C  
HETATM    2  S   UNL     1      -9.953   9.266  67.291  1.00  0.00    -0.225 SA 
HETATM    3  C   UNL     1      -9.505   9.257  65.564  1.00  0.00    -0.240 C  
HETATM    4  C   UNL     1      -9.844  10.504  64.757  1.00  0.00    -0.387 C  
HETATM    5  CA  UNL     1     -10.255  11.717  68.668  1.00  0.00    -0.206 C  
HETATM    6  CA  UNL     1     -10.144  11.725  65.274  1.00  0.00    -0.262 C  
HETATM    7  OXT UNL     1     -10.274  14.103  64.824  1.00  0.00    -0.419 OA 
HETATM    8  N   UNL     1     -10.142  11.877  66.638  1.00  0.00    -0.198 N  
HETATM    9  C   UNL     1     -10.510  12.957  64.462  1.00  0.00    -0.377 C  
HETATM   10  O   UNL     1     -10.403  14.038  67.580  1.00  0.00    -0.239 OA 
HETATM   11  C   UNL     1     -10.321  12.836  67.569  1.00  0.00    -0.219 C  
HETATM   12  O   UNL     1     -11.132  12.733  63.284  1.00  0.00    -0.359 OA 
ENDROOT
BRANCH   4  13
HETATM   13  C   UNL     1      -9.789  10.151  63.344  1.00  0.00     0.020 C  
HETATM   14  C   UNL     1      -8.793   9.594  62.640  1.00  0.00    -0.254 C  
BRANCH  14  15
HETATM   15  C   UNL     1      -7.515   9.185  63.113  1.00  0.00    -0.100 A  
HETATM   16  C   UNL     1      -7.084   7.898  63.438  1.00  0.00    -0.079 A  
HETATM   17  N   UNL     1      -5.878   7.824  64.118  1.00  0.00    -0.051 NA 
HETATM   18  S   UNL     1      -6.255  10.294  63.530  1.00  0.00    -0.094 SA 
HETATM   19  C   UNL     1      -7.786   6.610  63.168  1.00  0.00    -0.103 C  
HETATM   20  C   UNL     1      -5.363   9.023  64.237  1.00  0.00    -0.055 A  
ENDBRANCH  14  15
ENDBRANCH   4  13
BRANCH   5  21
HETATM   21  N   UNL     1     -11.476  11.035  69.205  1.00  0.00    -0.272 N  
HETATM   22  C   UNL     1     -11.698  10.200  70.287  1.00  0.00    -0.282 C  
HETATM   23  O   UNL     1     -12.865   9.984  70.617  1.00  0.00    -0.282 OA 
HETATM   24  H   UNL     1     -12.318  11.226  68.661  1.00  0.00     0.000 HD 
BRANCH  22  25
HETATM   25  C   UNL     1     -10.620   9.395  70.986  1.00  0.00    -0.330 C  
BRANCH  25  26
HETATM   26  C   UNL     1     -10.796   7.941  71.232  1.00  0.00    -0.235 A  
HETATM   27  H2  UNL     1     -10.370   3.718  70.702  1.00  0.00     0.000 HD 
HETATM   28  H1  UNL     1      -9.914   4.627  69.259  1.00  0.00     0.000 HD 
HETATM   29  C   UNL     1     -11.269   7.428  72.434  1.00  0.00    -0.293 A  
HETATM   30  N   UNL     1     -10.488   6.946  70.301  1.00  0.00    -0.199 NA 
HETATM   31  S   UNL     1     -11.198   5.723  72.444  1.00  0.00    -0.286 SA 
HETATM   32  N   UNL     1     -10.268   4.608  70.215  1.00  0.00    -0.204 NA 
HETATM   33  C   UNL     1     -10.602   5.753  70.836  1.00  0.00    -0.262 A  
ENDBRANCH  25  26
BRANCH  25  34
HETATM   34  N   UNL     1      -9.433   9.831  71.307  1.00  0.00    -0.196 NA 
HETATM   35  H   UNL     1      -9.305  10.826  71.491  1.00  0.00     0.000 HD 
BRANCH  34  36
HETATM   36  O   UNL     1      -8.331   8.975  71.407  1.00  0.00    -0.273 OA 
HETATM   37  C   UNL     1      -7.354   8.940  70.386  1.00  0.00    -0.070 C  
ENDBRANCH  34  36
ENDBRANCH  25  34
ENDBRANCH  22  25
ENDBRANCH   5  21
TORSDOF 7
ENDMDL
MODEL      129
REMARK 921   NORMALIZED FREE ENERGY PREDICTED BY IDOCK:   -4.68 KCAL/MOL
REMARK 922        TOTAL FREE ENERGY PREDICTED BY IDOCK:   -8.10 KCAL/MOL
REMARK 923 INTER-LIGAND FREE ENERGY PREDICTED BY IDOCK:   -7.11 KCAL/MOL
REMARK 924 INTRA-LIGAND FREE ENERGY PREDICTED BY IDOCK:   -0.99 KCAL/MOL
REMARK 927      BINDING AFFINITY PREDICTED BY RF-SCORE:    0.00 PKD
ROOT
HETATM    1  C   UNL     1      -7.497  13.933  67.217  1.00  0.00    -0.028 C  
HETATM    2  S   UNL     1      -7.401  13.150  68.822  1.00  0.00    -0.023 SA 
HETATM    3  C   UNL     1      -8.797  12.075  68.537  1.00  0.00    -0.095 C  
HETATM    4  C   UNL     1      -9.996  12.678  67.816  1.00  0.00    -0.218 C  
HETATM    5  CA  UNL     1      -6.980  15.402  67.165  1.00  0.00    -0.050 C  
HETATM    6  CA  UNL     1      -9.988  13.826  67.089  1.00  0.00    -0.243 C  
HETATM    7  OXT UNL     1     -11.126  15.108  65.376  1.00  0.00    -0.345 OA 
HETATM    8  N   UNL     1      -8.809  14.519  66.971  1.00  0.00    -0.227 N  
HETATM    9  C   UNL     1     -11.196  14.436  66.396  1.00  0.00    -0.345 C  
HETATM   10  O   UNL     1      -8.679  16.380  65.506  1.00  0.00    -0.244 OA 
HETATM   11  C   UNL     1      -8.312  15.615  66.362  1.00  0.00    -0.180 C  
HETATM   12  O   UNL     1     -12.395  14.205  66.974  1.00  0.00    -0.396 OA 
ENDROOT
BRANCH   4  13
HETATM   13  C   UNL     1     -11.141  11.807  68.049  1.00  0.00    -0.297 C  
HETATM   14  C   UNL     1     -12.026  11.808  69.056  1.00  0.00    -0.341 C  
BRANCH  14  15
HETATM   15  C   UNL     1     -12.077  12.693  70.170  1.00  0.00    -0.294 A  
HETATM   16  C   UNL     1     -12.678  12.487  71.412  1.00  0.00    -0.243 A  
HETATM   17  N   UNL     1     -12.800  13.613  72.212  1.00  0.00    -0.267 NA 
HETATM   18  S   UNL     1     -11.500  14.323  70.116  1.00  0.00    -0.139 SA 
HETATM   19  C   UNL     1     -13.229  11.212  71.954  1.00  0.00    -0.488 C  
HETATM   20  C   UNL     1     -12.232  14.637  71.625  1.00  0.00    -0.344 A  
ENDBRANCH  14  15
ENDBRANCH   4  13
BRANCH   5  21
HETATM   21  N   UNL     1      -6.710  16.069  68.479  1.00  0.00    -0.121 N  
HETATM   22  C   UNL     1      -6.925  17.351  68.953  1.00  0.00    -0.244 C  
HETATM   23  O   UNL     1      -6.815  17.543  70.166  1.00  0.00     0.420 OA 
HETATM   24  H   UNL     1      -6.279  15.450  69.166  1.00  0.00     0.000 HD 
BRANCH  22  25
HETATM   25  C   UNL     1      -7.115  18.572  68.074  1.00  0.00    -0.236 C  
BRANCH  25  26
HETATM   26  C   UNL     1      -8.474  19.008  67.662  1.00  0.00    -0.288 A  
HETATM   27  H2  UNL     1     -11.619  20.434  65.138  1.00  0.00     0.000 HD 
HETATM   28  H1  UNL     1     -10.018  20.759  64.468  1.00  0.00     0.000 HD 
HETATM   29  C   UNL     1      -9.618  18.722  68.399  1.00  0.00    -0.365 A  
HETATM   30  N   UNL     1      -8.746  19.723  66.493  1.00  0.00    -0.345 NA 
HETATM   31  S   UNL     1     -11.023  19.222  67.569  1.00  0.00    -0.135 SA 
HETATM   32  N   UNL     1     -10.604  20.389  65.217  1.00  0.00     0.061 NA 
HETATM   33  C   UNL     1     -10.040  19.843  66.309  1.00  0.00    -0.502 A  
ENDBRANCH  25  26
BRANCH  25  34
HETATM   34  N   UNL     1      -6.177  19.405  67.715  1.00  0.00    -0.206 NA 
HETATM   35  H   UNL     1      -6.118  20.311  68.177  1.00  0.00     0.000 HD 
BRANCH  34  36
HETATM   36  O   UNL     1      -5.251  19.091  66.714  1.00  0.00    -0.145 OA 
HETATM   37  C   UNL     1      -5.608  18.234  65.648  1.00  0.00    -0.199 C  
ENDBRANCH  34  36
ENDBRANCH  25  34
ENDBRANCH  22  25
ENDBRANCH   5  21
TORSDOF 7
ENDMDL
MODEL      130
REMARK 921   NORMALIZED FREE ENERGY PREDICTED BY IDOCK:   -4.67 KCAL/MOL
REMARK 922        TOTAL FREE ENERGY PREDICTED BY IDOCK:   -8.10 KCAL/MOL
REMARK 923 INTER-LIGAND FREE ENERGY PREDICTED BY IDOCK:   -6.81 KCAL/MOL
REMARK 924 INTRA-LIGAND FREE ENERGY PREDICTED BY IDOCK:   -1.29 KCAL/MOL
REMARK 927      BINDING AFFINITY PREDICTED BY RF-SCORE:    0.00 PKD
ROOT
HETATM    1  C   UNL     1      -8.195  12.524  68.583  1.00  0.00     0.001 C  
HETATM    2  S   UNL     1      -7.105  13.222  67.349  1.00  0.00    -0.018 SA 
HETATM    3  C   UNL     1      -8.320  14.368  66.721  1.00  0.00     0.029 C  
HETATM    4  C   UNL     1      -9.747  13.854  66.583  1.00  0.00    -0.295 C  
HETATM    5  CA  UNL     1      -7.909  11.040  68.957  1.00  0.00    -0.126 C  
HETATM    6  CA  UNL     1     -10.251  12.745  67.184  1.00  0.00    -0.233 C  
HETATM    7  OXT UNL     1     -12.269  11.600  67.884  1.00  0.00    -0.560 OA 
HETATM    8  N   UNL     1      -9.426  12.008  67.997  1.00  0.00    -0.193 N  
HETATM    9  C   UNL     1     -11.669  12.222  67.018  1.00  0.00    -0.329 C  
HETATM   10  O   UNL     1     -10.322  10.219  69.271  1.00  0.00    -0.203 OA 
HETATM   11  C   UNL     1      -9.467  10.924  68.798  1.00  0.00    -0.190 C  
HETATM   12  O   UNL     1     -12.263  12.476  65.830  1.00  0.00    -0.593 OA 
ENDROOT
BRANCH   4  13
HETATM   13  C   UNL     1     -10.464  14.761  65.695  1.00  0.00    -0.365 C  
HETATM   14  C   UNL     1     -10.712  16.071  65.829  1.00  0.00    -0.310 C  
BRANCH  14  15
HETATM   15  C   UNL     1     -10.312  16.930  66.892  1.00  0.00    -0.304 A  
HETATM   16  C   UNL     1     -10.758  16.935  68.214  1.00  0.00    -0.377 A  
HETATM   17  N   UNL     1     -10.393  18.043  68.964  1.00  0.00    -0.281 NA 
HETATM   18  S   UNL     1      -9.255  18.281  66.676  1.00  0.00    -0.296 SA 
HETATM   19  C   UNL     1     -11.605  15.912  68.891  1.00  0.00    -0.392 C  
HETATM   20  C   UNL     1      -9.617  18.823  68.253  1.00  0.00    -0.353 A  
ENDBRANCH  14  15
ENDBRANCH   4  13
BRANCH   5  21
HETATM   21  N   UNL     1      -6.948  10.297  68.080  1.00  0.00    -0.080 N  
HETATM   22  C   UNL     1      -6.812   8.962  67.740  1.00  0.00    -0.070 C  
HETATM   23  O   UNL     1      -6.064   8.680  66.802  1.00  0.00    -0.055 OA 
HETATM   24  H   UNL     1      -6.250  10.900  67.643  1.00  0.00     0.000 HD 
BRANCH  22  25
HETATM   25  C   UNL     1      -7.377   7.808  68.546  1.00  0.00    -0.091 C  
BRANCH  25  26
HETATM   26  C   UNL     1      -8.254   6.793  67.907  1.00  0.00    -0.117 A  
HETATM   27  H2  UNL     1     -10.268   3.070  67.297  1.00  0.00     0.000 HD 
HETATM   28  H1  UNL     1      -8.908   2.924  68.413  1.00  0.00     0.000 HD 
HETATM   29  C   UNL     1      -9.219   7.114  66.960  1.00  0.00    -0.144 A  
HETATM   30  N   UNL     1      -8.217   5.429  68.205  1.00  0.00    -0.099 NA 
HETATM   31  S   UNL     1     -10.157   5.748  66.552  1.00  0.00    -0.153 SA 
HETATM   32  N   UNL     1      -9.480   3.492  67.787  1.00  0.00    -0.197 NA 
HETATM   33  C   UNL     1      -9.197   4.793  67.605  1.00  0.00    -0.128 A  
ENDBRANCH  25  26
BRANCH  25  34
HETATM   34  N   UNL     1      -7.066   7.517  69.779  1.00  0.00    -0.066 NA 
HETATM   35  H   UNL     1      -6.119   7.205  69.989  1.00  0.00     0.000 HD 
BRANCH  34  36
HETATM   36  O   UNL     1      -7.994   7.620  70.821  1.00  0.00    -0.098 OA 
HETATM   37  C   UNL     1      -8.402   6.470  71.535  1.00  0.00    -0.121 C  
ENDBRANCH  34  36
ENDBRANCH  25  34
ENDBRANCH  22  25
ENDBRANCH   5  21
TORSDOF 7
ENDMDL
MODEL      131
REMARK 921   NORMALIZED FREE ENERGY PREDICTED BY IDOCK:   -4.67 KCAL/MOL
REMARK 922        TOTAL FREE ENERGY PREDICTED BY IDOCK:   -8.10 KCAL/MOL
REMARK 923 INTER-LIGAND FREE ENERGY PREDICTED BY IDOCK:   -6.59 KCAL/MOL
REMARK 924 INTRA-LIGAND FREE ENERGY PREDICTED BY IDOCK:   -1.51 KCAL/MOL
REMARK 927      BINDING AFFINITY PREDICTED BY RF-SCORE:    0.00 PKD
ROOT
HETATM    1  C   UNL     1      -7.537   9.917  69.300  1.00  0.00    -0.101 C  
HETATM    2  S   UNL     1      -8.222   8.399  69.952  1.00  0.00    -0.125 SA 
HETATM    3  C   UNL     1      -7.016   7.349  69.160  1.00  0.00    -0.076 C  
HETATM    4  C   UNL     1      -6.620   7.707  67.734  1.00  0.00    -0.062 C  
HETATM    5  CA  UNL     1      -8.562  11.071  69.092  1.00  0.00     0.003 C  
HETATM    6  CA  UNL     1      -6.834   8.905  67.129  1.00  0.00    -0.074 C  
HETATM    7  OXT UNL     1      -6.167  10.371  65.318  1.00  0.00    -0.119 OA 
HETATM    8  N   UNL     1      -7.453   9.899  67.845  1.00  0.00    -0.089 N  
HETATM    9  C   UNL     1      -6.462   9.244  65.694  1.00  0.00    -0.068 C  
HETATM   10  O   UNL     1      -7.616  12.081  66.929  1.00  0.00    -0.134 OA 
HETATM   11  C   UNL     1      -7.825  11.188  67.711  1.00  0.00    -0.114 C  
HETATM   12  O   UNL     1      -6.474   8.217  64.816  1.00  0.00    -0.062 OA 
ENDROOT
BRANCH   4  13
HETATM   13  C   UNL     1      -5.978   6.540  67.142  1.00  0.00    -0.021 C  
HETATM   14  C   UNL     1      -6.521   5.397  66.699  1.00  0.00    -0.044 C  
BRANCH  14  15
HETATM   15  C   UNL     1      -7.898   5.037  66.679  1.00  0.00    -0.100 A  
HETATM   16  C   UNL     1      -8.565   4.124  67.497  1.00  0.00    -0.100 A  
HETATM   17  N   UNL     1      -9.844   3.778  67.088  1.00  0.00    -0.100 NA 
HETATM   18  S   UNL     1      -9.009   5.591  65.475  1.00  0.00    -0.082 SA 
HETATM   19  C   UNL     1      -8.047   3.459  68.727  1.00  0.00    -0.071 C  
HETATM   20  C   UNL     1     -10.173   4.474  66.028  1.00  0.00    -0.260 A  
ENDBRANCH  14  15
ENDBRANCH   4  13
BRANCH   5  21
HETATM   21  N   UNL     1     -10.012  10.714  69.210  1.00  0.00    -0.307 N  
HETATM   22  C   UNL     1     -11.183  11.405  68.948  1.00  0.00    -0.248 C  
HETATM   23  O   UNL     1     -12.235  10.764  68.916  1.00  0.00    -0.447 OA 
HETATM   24  H   UNL     1     -10.169   9.766  69.553  1.00  0.00     0.000 HD 
BRANCH  22  25
HETATM   25  C   UNL     1     -11.290  12.916  68.871  1.00  0.00    -0.288 C  
BRANCH  25  26
HETATM   26  C   UNL     1     -11.274  13.613  67.560  1.00  0.00    -0.294 A  
HETATM   27  H2  UNL     1     -12.622  14.941  63.724  1.00  0.00     0.000 HD 
HETATM   28  H1  UNL     1     -13.533  13.548  64.313  1.00  0.00     0.000 HD 
HETATM   29  C   UNL     1     -10.392  14.645  67.261  1.00  0.00    -0.256 A  
HETATM   30  N   UNL     1     -12.148  13.324  66.509  1.00  0.00    -0.393 NA 
HETATM   31  S   UNL     1     -10.745  15.333  65.739  1.00  0.00    -0.365 SA 
HETATM   32  N   UNL     1     -12.783  14.229  64.435  1.00  0.00    -0.636 NA 
HETATM   33  C   UNL     1     -12.007  14.189  65.532  1.00  0.00    -0.391 A  
ENDBRANCH  25  26
BRANCH  25  34
HETATM   34  N   UNL     1     -11.531  13.714  69.875  1.00  0.00    -0.460 NA 
HETATM   35  H   UNL     1     -11.105  14.640  69.883  1.00  0.00     0.000 HD 
BRANCH  34  36
HETATM   36  O   UNL     1     -12.356  13.337  70.940  1.00  0.00    -0.364 OA 
HETATM   37  C   UNL     1     -13.327  14.230  71.447  1.00  0.00    -0.340 C  
ENDBRANCH  34  36
ENDBRANCH  25  34
ENDBRANCH  22  25
ENDBRANCH   5  21
TORSDOF 7
ENDMDL
MODEL      132
REMARK 921   NORMALIZED FREE ENERGY PREDICTED BY IDOCK:   -4.67 KCAL/MOL
REMARK 922        TOTAL FREE ENERGY PREDICTED BY IDOCK:   -8.09 KCAL/MOL
REMARK 923 INTER-LIGAND FREE ENERGY PREDICTED BY IDOCK:   -6.24 KCAL/MOL
REMARK 924 INTRA-LIGAND FREE ENERGY PREDICTED BY IDOCK:   -1.85 KCAL/MOL
REMARK 927      BINDING AFFINITY PREDICTED BY RF-SCORE:    0.00 PKD
ROOT
HETATM    1  C   UNL     1      -7.296   8.067  65.887  1.00  0.00    -0.076 C  
HETATM    2  S   UNL     1      -8.442   9.029  64.909  1.00  0.00    -0.179 SA 
HETATM    3  C   UNL     1      -7.862  10.602  65.519  1.00  0.00    -0.099 C  
HETATM    4  C   UNL     1      -7.536  10.688  67.005  1.00  0.00    -0.106 C  
HETATM    5  CA  UNL     1      -7.793   6.645  66.283  1.00  0.00    -0.105 C  
HETATM    6  CA  UNL     1      -7.328   9.631  67.833  1.00  0.00    -0.082 C  
HETATM    7  OXT UNL     1      -6.362   8.904  69.933  1.00  0.00    -0.036 OA 
HETATM    8  N   UNL     1      -7.406   8.364  67.310  1.00  0.00    -0.084 N  
HETATM    9  C   UNL     1      -7.032   9.725  69.321  1.00  0.00    -0.056 C  
HETATM   10  O   UNL     1      -6.799   6.501  68.646  1.00  0.00    -0.065 OA 
HETATM   11  C   UNL     1      -7.247   7.080  67.690  1.00  0.00    -0.091 C  
HETATM   12  O   UNL     1      -7.561  10.787  69.969  1.00  0.00    -0.023 OA 
ENDROOT
BRANCH   4  13
HETATM   13  C   UNL     1      -7.490  12.098  67.371  1.00  0.00    -0.156 C  
HETATM   14  C   UNL     1      -8.455  13.028  67.318  1.00  0.00    -0.199 C  
BRANCH  14  15
HETATM   15  C   UNL     1      -9.804  12.860  66.896  1.00  0.00    -0.235 A  
HETATM   16  C   UNL     1     -10.811  12.104  67.498  1.00  0.00    -0.243 A  
HETATM   17  N   UNL     1     -11.951  11.910  66.733  1.00  0.00    -0.583 NA 
HETATM   18  S   UNL     1     -10.416  13.477  65.401  1.00  0.00    -0.327 SA 
HETATM   19  C   UNL     1     -10.783  11.460  68.842  1.00  0.00    -0.248 C  
HETATM   20  C   UNL     1     -11.847  12.571  65.607  1.00  0.00    -0.438 A  
ENDBRANCH  14  15
ENDBRANCH   4  13
BRANCH   5  21
HETATM   21  N   UNL     1      -9.239   6.342  66.033  1.00  0.00    -0.311 N  
HETATM   22  C   UNL     1     -10.254   5.840  66.829  1.00  0.00    -0.221 C  
HETATM   23  O   UNL     1     -11.410   5.924  66.409  1.00  0.00     0.055 OA 
HETATM   24  H   UNL     1      -9.536   6.549  65.079  1.00  0.00     0.000 HD 
BRANCH  22  25
HETATM   25  C   UNL     1     -10.035   5.041  68.099  1.00  0.00    -0.128 C  
BRANCH  25  26
HETATM   26  C   UNL     1     -10.492   5.562  69.413  1.00  0.00    -0.290 A  
HETATM   27  H2  UNL     1     -13.106   7.220  72.364  1.00  0.00     0.000 HD 
HETATM   28  H1  UNL     1     -13.700   7.472  70.720  1.00  0.00     0.000 HD 
HETATM   29  C   UNL     1      -9.811   5.322  70.601  1.00  0.00    -0.198 A  
HETATM   30  N   UNL     1     -11.652   6.319  69.595  1.00  0.00    -0.371 NA 
HETATM   31  S   UNL     1     -10.684   5.919  71.940  1.00  0.00    -0.246 SA 
HETATM   32  N   UNL     1     -12.986   7.117  71.357  1.00  0.00    -0.391 NA 
HETATM   33  C   UNL     1     -11.886   6.515  70.871  1.00  0.00    -0.331 A  
ENDBRANCH  25  26
BRANCH  25  34
HETATM   34  N   UNL     1      -9.574   3.822  68.160  1.00  0.00    -0.150 NA 
HETATM   35  H   UNL     1      -9.945   3.189  68.869  1.00  0.00     0.000 HD 
BRANCH  34  36
HETATM   36  O   UNL     1      -8.587   3.358  67.284  1.00  0.00    -0.098 OA 
HETATM   37  C   UNL     1      -8.895   2.383  66.308  1.00  0.00    -0.129 C  
ENDBRANCH  34  36
ENDBRANCH  25  34
ENDBRANCH  22  25
ENDBRANCH   5  21
TORSDOF 7
ENDMDL
MODEL      133
REMARK 921   NORMALIZED FREE ENERGY PREDICTED BY IDOCK:   -4.66 KCAL/MOL
REMARK 922        TOTAL FREE ENERGY PREDICTED BY IDOCK:   -8.08 KCAL/MOL
REMARK 923 INTER-LIGAND FREE ENERGY PREDICTED BY IDOCK:   -6.32 KCAL/MOL
REMARK 924 INTRA-LIGAND FREE ENERGY PREDICTED BY IDOCK:   -1.76 KCAL/MOL
REMARK 927      BINDING AFFINITY PREDICTED BY RF-SCORE:    0.00 PKD
ROOT
HETATM    1  C   UNL     1      -9.945  13.178  66.356  1.00  0.00    -0.282 C  
HETATM    2  S   UNL     1     -11.624  13.364  66.941  1.00  0.00    -0.386 SA 
HETATM    3  C   UNL     1     -11.372  15.015  67.568  1.00  0.00    -0.333 C  
HETATM    4  C   UNL     1     -10.055  15.288  68.282  1.00  0.00    -0.225 C  
HETATM    5  CA  UNL     1      -9.406  11.717  66.344  1.00  0.00    -0.213 C  
HETATM    6  CA  UNL     1      -8.937  14.519  68.205  1.00  0.00    -0.182 C  
HETATM    7  OXT UNL     1      -6.536  14.456  68.520  1.00  0.00    -0.084 OA 
HETATM    8  N   UNL     1      -8.969  13.396  67.416  1.00  0.00    -0.205 N  
HETATM    9  C   UNL     1      -7.636  14.783  68.944  1.00  0.00    -0.144 C  
HETATM   10  O   UNL     1      -6.976  12.166  67.041  1.00  0.00    -0.137 OA 
HETATM   11  C   UNL     1      -8.157  12.400  67.006  1.00  0.00    -0.124 C  
HETATM   12  O   UNL     1      -7.743  15.411  70.136  1.00  0.00     0.039 OA 
ENDROOT
BRANCH   4  13
HETATM   13  C   UNL     1     -10.213  16.513  69.058  1.00  0.00    -0.285 C  
HETATM   14  C   UNL     1      -9.669  17.723  68.865  1.00  0.00    -0.262 C  
BRANCH  14  15
HETATM   15  C   UNL     1      -8.792  18.128  67.819  1.00  0.00    -0.256 A  
HETATM   16  C   UNL     1      -9.103  18.393  66.485  1.00  0.00    -0.290 A  
HETATM   17  N   UNL     1      -8.017  18.514  65.630  1.00  0.00    -0.399 NA 
HETATM   18  S   UNL     1      -7.074  18.218  68.000  1.00  0.00    -0.232 SA 
HETATM   19  C   UNL     1     -10.457  18.526  65.877  1.00  0.00    -0.379 C  
HETATM   20  C   UNL     1      -6.903  18.422  66.314  1.00  0.00    -0.233 A  
ENDBRANCH  14  15
ENDBRANCH   4  13
BRANCH   5  21
HETATM   21  N   UNL     1     -10.234  10.686  67.049  1.00  0.00    -0.211 N  
HETATM   22  C   UNL     1      -9.925   9.504  67.699  1.00  0.00    -0.180 C  
HETATM   23  O   UNL     1     -10.800   8.983  68.393  1.00  0.00    -0.136 OA 
HETATM   24  H   UNL     1     -11.232  10.901  67.050  1.00  0.00     0.000 HD 
BRANCH  22  25
HETATM   25  C   UNL     1      -8.651   8.711  67.481  1.00  0.00    -0.135 C  
BRANCH  25  26
HETATM   26  C   UNL     1      -7.555   8.744  68.484  1.00  0.00    -0.098 A  
HETATM   27  H2  UNL     1      -5.423   9.795  72.039  1.00  0.00     0.000 HD 
HETATM   28  H1  UNL     1      -6.735  10.922  71.683  1.00  0.00     0.000 HD 
HETATM   29  C   UNL     1      -6.545   7.790  68.533  1.00  0.00    -0.057 A  
HETATM   30  N   UNL     1      -7.439   9.711  69.485  1.00  0.00    -0.085 NA 
HETATM   31  S   UNL     1      -5.545   8.026  69.896  1.00  0.00    -0.023 SA 
HETATM   32  N   UNL     1      -6.186  10.098  71.435  1.00  0.00    -0.316 NA 
HETATM   33  C   UNL     1      -6.467   9.411  70.314  1.00  0.00    -0.064 A  
ENDBRANCH  25  26
BRANCH  25  34
HETATM   34  N   UNL     1      -8.441   7.857  66.517  1.00  0.00    -0.128 NA 
HETATM   35  H   UNL     1      -7.611   7.965  65.934  1.00  0.00     0.000 HD 
BRANCH  34  36
HETATM   36  O   UNL     1      -9.320   6.800  66.259  1.00  0.00    -0.161 OA 
HETATM   37  C   UNL     1      -9.588   5.830  67.252  1.00  0.00    -0.117 C  
ENDBRANCH  34  36
ENDBRANCH  25  34
ENDBRANCH  22  25
ENDBRANCH   5  21
TORSDOF 7
ENDMDL
MODEL      134
REMARK 921   NORMALIZED FREE ENERGY PREDICTED BY IDOCK:   -4.66 KCAL/MOL
REMARK 922        TOTAL FREE ENERGY PREDICTED BY IDOCK:   -8.08 KCAL/MOL
REMARK 923 INTER-LIGAND FREE ENERGY PREDICTED BY IDOCK:   -6.50 KCAL/MOL
REMARK 924 INTRA-LIGAND FREE ENERGY PREDICTED BY IDOCK:   -1.58 KCAL/MOL
REMARK 927      BINDING AFFINITY PREDICTED BY RF-SCORE:    0.00 PKD
ROOT
HETATM    1  C   UNL     1     -10.261  13.506  66.202  1.00  0.00    -0.302 C  
HETATM    2  S   UNL     1     -11.928  13.594  66.841  1.00  0.00    -0.399 SA 
HETATM    3  C   UNL     1     -11.695  15.179  67.626  1.00  0.00    -0.216 C  
HETATM    4  C   UNL     1     -10.366  15.409  68.334  1.00  0.00    -0.229 C  
HETATM    5  CA  UNL     1      -9.692  12.067  66.030  1.00  0.00    -0.239 C  
HETATM    6  CA  UNL     1      -9.235  14.678  68.153  1.00  0.00    -0.192 C  
HETATM    7  OXT UNL     1      -6.825  14.639  68.405  1.00  0.00    -0.090 OA 
HETATM    8  N   UNL     1      -9.262  13.640  67.256  1.00  0.00    -0.223 N  
HETATM    9  C   UNL     1      -7.921  14.896  68.886  1.00  0.00    -0.163 C  
HETATM   10  O   UNL     1      -7.254  12.501  66.713  1.00  0.00     0.058 OA 
HETATM   11  C   UNL     1      -8.441  12.709  66.729  1.00  0.00    -0.049 C  
HETATM   12  O   UNL     1      -8.011  15.399  70.137  1.00  0.00     0.088 OA 
ENDROOT
BRANCH   4  13
HETATM   13  C   UNL     1     -10.529  16.546  69.232  1.00  0.00    -0.326 C  
HETATM   14  C   UNL     1     -10.155  17.823  69.073  1.00  0.00    -0.294 C  
BRANCH  14  15
HETATM   15  C   UNL     1      -9.502  18.406  67.950  1.00  0.00    -0.285 A  
HETATM   16  C   UNL     1      -8.174  18.819  67.840  1.00  0.00    -0.269 A  
HETATM   17  N   UNL     1      -7.877  19.588  66.725  1.00  0.00    -0.260 NA 
HETATM   18  S   UNL     1     -10.329  18.864  66.502  1.00  0.00    -0.452 SA 
HETATM   19  C   UNL     1      -7.059  18.557  68.795  1.00  0.00    -0.310 C  
HETATM   20  C   UNL     1      -8.937  19.690  65.962  1.00  0.00    -0.243 A  
ENDBRANCH  14  15
ENDBRANCH   4  13
BRANCH   5  21
HETATM   21  N   UNL     1     -10.480  10.952  66.646  1.00  0.00    -0.246 N  
HETATM   22  C   UNL     1     -10.233   9.602  66.825  1.00  0.00    -0.239 C  
HETATM   23  O   UNL     1     -10.976   8.976  67.584  1.00  0.00    -0.152 OA 
HETATM   24  H   UNL     1     -11.387  11.249  67.008  1.00  0.00     0.000 HD 
BRANCH  22  25
HETATM   25  C   UNL     1      -9.226   8.799  66.025  1.00  0.00    -0.222 C  
BRANCH  25  26
HETATM   26  C   UNL     1      -8.469   7.686  66.653  1.00  0.00    -0.130 A  
HETATM   27  H2  UNL     1      -7.069   3.708  67.365  1.00  0.00     0.000 HD 
HETATM   28  H1  UNL     1      -8.553   3.738  66.409  1.00  0.00     0.000 HD 
HETATM   29  C   UNL     1      -7.360   7.888  67.467  1.00  0.00    -0.092 A  
HETATM   30  N   UNL     1      -8.774   6.334  66.476  1.00  0.00    -0.126 NA 
HETATM   31  S   UNL     1      -6.631   6.404  67.890  1.00  0.00    -0.064 SA 
HETATM   32  N   UNL     1      -7.824   4.232  66.924  1.00  0.00    -0.096 NA 
HETATM   33  C   UNL     1      -7.856   5.572  67.024  1.00  0.00    -0.101 A  
ENDBRANCH  25  26
BRANCH  25  34
HETATM   34  N   UNL     1      -9.022   8.899  64.740  1.00  0.00    -0.418 NA 
HETATM   35  H   UNL     1      -9.760   8.609  64.099  1.00  0.00     0.000 HD 
BRANCH  34  36
HETATM   36  O   UNL     1      -7.822   9.391  64.216  1.00  0.00    -0.113 OA 
HETATM   37  C   UNL     1      -7.829  10.426  63.254  1.00  0.00    -0.102 C  
ENDBRANCH  34  36
ENDBRANCH  25  34
ENDBRANCH  22  25
ENDBRANCH   5  21
TORSDOF 7
ENDMDL
MODEL      135
REMARK 921   NORMALIZED FREE ENERGY PREDICTED BY IDOCK:   -4.65 KCAL/MOL
REMARK 922        TOTAL FREE ENERGY PREDICTED BY IDOCK:   -8.07 KCAL/MOL
REMARK 923 INTER-LIGAND FREE ENERGY PREDICTED BY IDOCK:   -6.17 KCAL/MOL
REMARK 924 INTRA-LIGAND FREE ENERGY PREDICTED BY IDOCK:   -1.90 KCAL/MOL
REMARK 927      BINDING AFFINITY PREDICTED BY RF-SCORE:    0.00 PKD
ROOT
HETATM    1  C   UNL     1     -10.426  11.447  66.850  1.00  0.00    -0.240 C  
HETATM    2  S   UNL     1      -9.970  13.050  67.496  1.00  0.00    -0.215 SA 
HETATM    3  C   UNL     1      -8.286  12.963  66.911  1.00  0.00    -0.039 C  
HETATM    4  C   UNL     1      -7.578  11.621  67.043  1.00  0.00    -0.154 C  
HETATM    5  CA  UNL     1     -11.546  10.707  67.641  1.00  0.00     0.109 C  
HETATM    6  CA  UNL     1      -8.184  10.422  67.249  1.00  0.00    -0.121 C  
HETATM    7  OXT UNL     1      -7.952   8.016  67.081  1.00  0.00    -0.109 OA 
HETATM    8  N   UNL     1      -9.553  10.388  67.344  1.00  0.00    -0.153 N  
HETATM    9  C   UNL     1      -7.468   9.091  67.410  1.00  0.00    -0.085 C  
HETATM   10  O   UNL     1     -10.674   8.300  67.443  1.00  0.00    -0.270 OA 
HETATM   11  C   UNL     1     -10.556   9.498  67.492  1.00  0.00    -0.275 C  
HETATM   12  O   UNL     1      -6.232   9.140  67.954  1.00  0.00    -0.050 OA 
ENDROOT
BRANCH   4  13
HETATM   13  C   UNL     1      -6.146  11.857  66.911  1.00  0.00    -0.120 C  
HETATM   14  C   UNL     1      -5.317  12.555  67.700  1.00  0.00    -0.111 C  
BRANCH  14  15
HETATM   15  C   UNL     1      -5.636  13.245  68.904  1.00  0.00    -0.073 A  
HETATM   16  C   UNL     1      -5.791  14.617  69.099  1.00  0.00    -0.099 A  
HETATM   17  N   UNL     1      -5.842  15.032  70.422  1.00  0.00    -0.144 NA 
HETATM   18  S   UNL     1      -5.743  12.467  70.445  1.00  0.00    -0.150 SA 
HETATM   19  C   UNL     1      -5.871  15.680  68.056  1.00  0.00    -0.151 C  
HETATM   20  C   UNL     1      -5.808  13.989  71.214  1.00  0.00    -0.208 A  
ENDBRANCH  14  15
ENDBRANCH   4  13
BRANCH   5  21
HETATM   21  N   UNL     1     -11.926  11.285  68.970  1.00  0.00    -0.346 N  
HETATM   22  C   UNL     1     -11.783  10.841  70.273  1.00  0.00    -0.352 C  
HETATM   23  O   UNL     1     -11.983  11.649  71.182  1.00  0.00    -0.132 OA 
HETATM   24  H   UNL     1     -12.386  12.194  68.900  1.00  0.00     0.000 HD 
BRANCH  22  25
HETATM   25  C   UNL     1     -11.569   9.392  70.668  1.00  0.00    -0.269 C  
BRANCH  25  26
HETATM   26  C   UNL     1     -10.319   8.967  71.349  1.00  0.00    -0.307 A  
HETATM   27  H2  UNL     1      -7.770   6.926  74.111  1.00  0.00     0.000 HD 
HETATM   28  H1  UNL     1      -9.457   6.934  74.631  1.00  0.00     0.000 HD 
HETATM   29  C   UNL     1      -9.057   9.143  70.794  1.00  0.00    -0.255 A  
HETATM   30  N   UNL     1     -10.282   8.332  72.593  1.00  0.00    -0.309 NA 
HETATM   31  S   UNL     1      -7.856   8.401  71.754  1.00  0.00    -0.123 SA 
HETATM   32  N   UNL     1      -8.738   7.208  73.961  1.00  0.00    -0.169 NA 
HETATM   33  C   UNL     1      -9.064   7.939  72.881  1.00  0.00    -0.220 A  
ENDBRANCH  25  26
BRANCH  25  34
HETATM   34  N   UNL     1     -12.459   8.442  70.585  1.00  0.00    -0.449 NA 
HETATM   35  H   UNL     1     -12.213   7.575  70.109  1.00  0.00     0.000 HD 
BRANCH  34  36
HETATM   36  O   UNL     1     -13.741   8.576  71.130  1.00  0.00    -0.175 OA 
HETATM   37  C   UNL     1     -13.910   8.933  72.487  1.00  0.00    -0.407 C  
ENDBRANCH  34  36
ENDBRANCH  25  34
ENDBRANCH  22  25
ENDBRANCH   5  21
TORSDOF 7
ENDMDL
MODEL      136
REMARK 921   NORMALIZED FREE ENERGY PREDICTED BY IDOCK:   -4.65 KCAL/MOL
REMARK 922        TOTAL FREE ENERGY PREDICTED BY IDOCK:   -8.07 KCAL/MOL
REMARK 923 INTER-LIGAND FREE ENERGY PREDICTED BY IDOCK:   -6.67 KCAL/MOL
REMARK 924 INTRA-LIGAND FREE ENERGY PREDICTED BY IDOCK:   -1.39 KCAL/MOL
REMARK 927      BINDING AFFINITY PREDICTED BY RF-SCORE:    0.00 PKD
ROOT
HETATM    1  C   UNL     1      -8.793  11.824  67.727  1.00  0.00    -0.163 C  
HETATM    2  S   UNL     1      -9.432  12.024  66.069  1.00  0.00    -0.184 SA 
HETATM    3  C   UNL     1      -9.413  10.278  65.700  1.00  0.00    -0.221 C  
HETATM    4  C   UNL     1      -8.212   9.482  66.192  1.00  0.00    -0.115 C  
HETATM    5  CA  UNL     1      -7.965  13.027  68.267  1.00  0.00    -0.151 C  
HETATM    6  CA  UNL     1      -7.333   9.883  67.148  1.00  0.00    -0.091 C  
HETATM    7  OXT UNL     1      -5.658   9.164  68.744  1.00  0.00    -0.040 OA 
HETATM    8  N   UNL     1      -7.524  11.106  67.742  1.00  0.00    -0.092 N  
HETATM    9  C   UNL     1      -6.119   9.095  67.613  1.00  0.00    -0.054 C  
HETATM   10  O   UNL     1      -6.178  11.740  69.589  1.00  0.00    -0.102 OA 
HETATM   11  C   UNL     1      -6.987  11.880  68.707  1.00  0.00    -0.104 C  
HETATM   12  O   UNL     1      -5.543   8.288  66.694  1.00  0.00    -0.032 OA 
ENDROOT
BRANCH   4  13
HETATM   13  C   UNL     1      -8.178   8.224  65.457  1.00  0.00    -0.138 C  
HETATM   14  C   UNL     1      -8.613   7.009  65.820  1.00  0.00    -0.138 C  
BRANCH  14  15
HETATM   15  C   UNL     1      -9.247   6.639  67.040  1.00  0.00    -0.135 A  
HETATM   16  C   UNL     1      -8.685   6.012  68.152  1.00  0.00    -0.113 A  
HETATM   17  N   UNL     1      -9.587   5.537  69.092  1.00  0.00    -0.135 NA 
HETATM   18  S   UNL     1     -10.951   6.777  67.305  1.00  0.00    -0.327 SA 
HETATM   19  C   UNL     1      -7.239   5.768  68.423  1.00  0.00    -0.079 C  
HETATM   20  C   UNL     1     -10.806   5.868  68.741  1.00  0.00    -0.283 A  
ENDBRANCH  14  15
ENDBRANCH   4  13
BRANCH   5  21
HETATM   21  N   UNL     1      -7.582  14.082  67.275  1.00  0.00    -0.339 N  
HETATM   22  C   UNL     1      -7.914  15.419  67.137  1.00  0.00    -0.217 C  
HETATM   23  O   UNL     1      -7.251  16.098  66.350  1.00  0.00    -0.128 OA 
HETATM   24  H   UNL     1      -6.946  13.746  66.552  1.00  0.00     0.000 HD 
BRANCH  22  25
HETATM   25  C   UNL     1      -9.140  16.068  67.749  1.00  0.00    -0.196 C  
BRANCH  25  26
HETATM   26  C   UNL     1      -9.510  17.466  67.410  1.00  0.00    -0.246 A  
HETATM   27  H2  UNL     1     -11.175  20.738  65.215  1.00  0.00     0.000 HD 
HETATM   28  H1  UNL     1     -10.979  19.291  64.222  1.00  0.00     0.000 HD 
HETATM   29  C   UNL     1      -9.507  18.497  68.341  1.00  0.00    -0.341 A  
HETATM   30  N   UNL     1      -9.917  17.881  66.140  1.00  0.00    -0.496 NA 
HETATM   31  S   UNL     1     -10.136  19.934  67.667  1.00  0.00    -0.435 SA 
HETATM   32  N   UNL     1     -10.869  19.770  65.116  1.00  0.00    -0.237 NA 
HETATM   33  C   UNL     1     -10.322  19.130  66.164  1.00  0.00    -0.484 A  
ENDBRANCH  25  26
BRANCH  25  34
HETATM   34  N   UNL     1     -10.029  15.465  68.490  1.00  0.00    -0.209 NA 
HETATM   35  H   UNL     1      -9.900  15.448  69.501  1.00  0.00     0.000 HD 
BRANCH  34  36
HETATM   36  O   UNL     1     -11.154  14.842  67.939  1.00  0.00    -0.276 OA 
HETATM   37  C   UNL     1     -11.849  13.845  68.661  1.00  0.00    -0.372 C  
ENDBRANCH  34  36
ENDBRANCH  25  34
ENDBRANCH  22  25
ENDBRANCH   5  21
TORSDOF 7
ENDMDL
MODEL      137
REMARK 921   NORMALIZED FREE ENERGY PREDICTED BY IDOCK:   -4.64 KCAL/MOL
REMARK 922        TOTAL FREE ENERGY PREDICTED BY IDOCK:   -8.05 KCAL/MOL
REMARK 923 INTER-LIGAND FREE ENERGY PREDICTED BY IDOCK:   -6.36 KCAL/MOL
REMARK 924 INTRA-LIGAND FREE ENERGY PREDICTED BY IDOCK:   -1.70 KCAL/MOL
REMARK 927      BINDING AFFINITY PREDICTED BY RF-SCORE:    0.00 PKD
ROOT
HETATM    1  C   UNL     1     -11.680  10.372  68.721  1.00  0.00    -0.037 C  
HETATM    2  S   UNL     1     -11.560  11.603  70.011  1.00  0.00    -0.203 SA 
HETATM    3  C   UNL     1     -12.230  12.921  69.011  1.00  0.00    -0.013 C  
HETATM    4  C   UNL     1     -11.775  12.983  67.559  1.00  0.00    -0.421 C  
HETATM    5  CA  UNL     1     -10.622   9.231  68.794  1.00  0.00    -0.193 C  
HETATM    6  CA  UNL     1     -11.185  11.972  66.869  1.00  0.00    -0.320 C  
HETATM    7  OXT UNL     1     -10.673  11.091  64.670  1.00  0.00    -0.324 OA 
HETATM    8  N   UNL     1     -10.974  10.777  67.511  1.00  0.00    -0.294 N  
HETATM    9  C   UNL     1     -10.708  12.051  65.428  1.00  0.00    -0.287 C  
HETATM   10  O   UNL     1     -10.190   8.905  66.284  1.00  0.00    -0.284 OA 
HETATM   11  C   UNL     1     -10.496   9.541  67.260  1.00  0.00    -0.262 C  
HETATM   12  O   UNL     1     -10.302  13.268  65.000  1.00  0.00    -0.325 OA 
ENDROOT
BRANCH   4  13
HETATM   13  C   UNL     1     -12.085  14.313  67.050  1.00  0.00    -0.424 C  
HETATM   14  C   UNL     1     -11.365  15.442  67.114  1.00  0.00    -0.203 C  
BRANCH  14  15
HETATM   15  C   UNL     1     -10.078  15.623  67.694  1.00  0.00    -0.248 A  
HETATM   16  C   UNL     1      -9.760  15.896  69.025  1.00  0.00    -0.243 A  
HETATM   17  N   UNL     1      -8.449  16.280  69.260  1.00  0.00    -0.209 NA 
HETATM   18  S   UNL     1      -8.618  15.687  66.769  1.00  0.00    -0.296 SA 
HETATM   19  C   UNL     1     -10.672  15.855  70.204  1.00  0.00    -0.338 C  
HETATM   20  C   UNL     1      -7.764  16.223  68.145  1.00  0.00    -0.157 A  
ENDBRANCH  14  15
ENDBRANCH   4  13
BRANCH   5  21
HETATM   21  N   UNL     1      -9.489   9.423  69.755  1.00  0.00    -0.188 N  
HETATM   22  C   UNL     1      -8.147   9.724  69.592  1.00  0.00    -0.154 C  
HETATM   23  O   UNL     1      -7.506  10.054  70.591  1.00  0.00    -0.302 OA 
HETATM   24  H   UNL     1      -9.762   9.307  70.732  1.00  0.00     0.000 HD 
BRANCH  22  25
HETATM   25  C   UNL     1      -7.369   9.511  68.308  1.00  0.00    -0.077 C  
BRANCH  25  26
HETATM   26  C   UNL     1      -7.072   8.141  67.818  1.00  0.00    -0.087 A  
HETATM   27  H2  UNL     1      -5.366   5.039  65.418  1.00  0.00     0.000 HD 
HETATM   28  H1  UNL     1      -5.273   6.620  64.639  1.00  0.00     0.000 HD 
HETATM   29  C   UNL     1      -7.313   6.998  68.571  1.00  0.00    -0.100 A  
HETATM   30  N   UNL     1      -6.504   7.861  66.572  1.00  0.00    -0.050 NA 
HETATM   31  S   UNL     1      -6.711   5.607  67.785  1.00  0.00    -0.060 SA 
HETATM   32  N   UNL     1      -5.567   6.038  65.424  1.00  0.00    -0.016 NA 
HETATM   33  C   UNL     1      -6.217   6.585  66.465  1.00  0.00    -0.040 A  
ENDBRANCH  25  26
BRANCH  25  34
HETATM   34  N   UNL     1      -7.013  10.446  67.470  1.00  0.00    -0.083 NA 
HETATM   35  H   UNL     1      -6.943  10.220  66.479  1.00  0.00     0.000 HD 
BRANCH  34  36
HETATM   36  O   UNL     1      -6.726  11.749  67.892  1.00  0.00    -0.064 OA 
HETATM   37  C   UNL     1      -5.470  12.057  68.463  1.00  0.00    -0.052 C  
ENDBRANCH  34  36
ENDBRANCH  25  34
ENDBRANCH  22  25
ENDBRANCH   5  21
TORSDOF 7
ENDMDL
MODEL      138
REMARK 921   NORMALIZED FREE ENERGY PREDICTED BY IDOCK:   -4.62 KCAL/MOL
REMARK 922        TOTAL FREE ENERGY PREDICTED BY IDOCK:   -8.02 KCAL/MOL
REMARK 923 INTER-LIGAND FREE ENERGY PREDICTED BY IDOCK:   -6.65 KCAL/MOL
REMARK 924 INTRA-LIGAND FREE ENERGY PREDICTED BY IDOCK:   -1.37 KCAL/MOL
REMARK 927      BINDING AFFINITY PREDICTED BY RF-SCORE:    0.00 PKD
ROOT
HETATM    1  C   UNL     1      -9.500  10.512  68.094  1.00  0.00    -0.151 C  
HETATM    2  S   UNL     1      -8.956  10.093  66.444  1.00  0.00    -0.146 SA 
HETATM    3  C   UNL     1      -8.923  11.784  65.873  1.00  0.00    -0.059 C  
HETATM    4  C   UNL     1     -10.064  12.686  66.324  1.00  0.00    -0.264 C  
HETATM    5  CA  UNL     1     -10.348   9.419  68.810  1.00  0.00    -0.209 C  
HETATM    6  CA  UNL     1     -10.909  12.439  67.360  1.00  0.00    -0.238 C  
HETATM    7  OXT UNL     1     -12.469  13.414  68.937  1.00  0.00    -0.080 OA 
HETATM    8  N   UNL     1     -10.737  11.285  68.084  1.00  0.00    -0.192 N  
HETATM    9  C   UNL     1     -12.064  13.330  67.785  1.00  0.00    -0.237 C  
HETATM   10  O   UNL     1     -12.011  10.931  70.052  1.00  0.00    -0.291 OA 
HETATM   11  C   UNL     1     -11.254  10.653  69.157  1.00  0.00    -0.265 C  
HETATM   12  O   UNL     1     -12.653  14.052  66.805  1.00  0.00    -0.311 OA 
ENDROOT
BRANCH   4  13
HETATM   13  C   UNL     1     -10.085  13.852  65.449  1.00  0.00    -0.328 C  
HETATM   14  C   UNL     1      -9.845  15.140  65.733  1.00  0.00    -0.384 C  
BRANCH  14  15
HETATM   15  C   UNL     1      -9.485  15.702  66.991  1.00  0.00    -0.224 A  
HETATM   16  C   UNL     1      -8.352  15.441  67.762  1.00  0.00    -0.147 A  
HETATM   17  N   UNL     1      -8.385  15.931  69.059  1.00  0.00    -0.225 NA 
HETATM   18  S   UNL     1     -10.522  16.749  67.896  1.00  0.00    -0.345 SA 
HETATM   19  C   UNL     1      -7.138  14.673  67.362  1.00  0.00    -0.157 C  
HETATM   20  C   UNL     1      -9.485  16.618  69.244  1.00  0.00    -0.127 A  
ENDBRANCH  14  15
ENDBRANCH   4  13
BRANCH   5  21
HETATM   21  N   UNL     1     -10.824   8.275  67.967  1.00  0.00    -0.467 N  
HETATM   22  C   UNL     1     -10.523   6.924  67.945  1.00  0.00    -0.212 C  
HETATM   23  O   UNL     1     -11.256   6.182  67.288  1.00  0.00    -0.288 OA 
HETATM   24  H   UNL     1     -11.511   8.549  67.264  1.00  0.00     0.000 HD 
BRANCH  22  25
HETATM   25  C   UNL     1      -9.262   6.315  68.525  1.00  0.00    -0.123 C  
BRANCH  25  26
HETATM   26  C   UNL     1      -9.203   5.904  69.952  1.00  0.00    -0.146 A  
HETATM   27  H2  UNL     1      -7.854   5.731  74.007  1.00  0.00     0.000 HD 
HETATM   28  H1  UNL     1      -6.644   6.425  72.924  1.00  0.00     0.000 HD 
HETATM   29  C   UNL     1     -10.255   5.271  70.602  1.00  0.00    -0.257 A  
HETATM   30  N   UNL     1      -8.105   6.129  70.786  1.00  0.00    -0.121 NA 
HETATM   31  S   UNL     1      -9.925   5.085  72.266  1.00  0.00    -0.189 SA 
HETATM   32  N   UNL     1      -7.561   6.001  73.068  1.00  0.00    -0.098 NA 
HETATM   33  C   UNL     1      -8.384   5.798  72.025  1.00  0.00    -0.122 A  
ENDBRANCH  25  26
BRANCH  25  34
HETATM   34  N   UNL     1      -8.199   5.977  67.848  1.00  0.00    -0.112 NA 
HETATM   35  H   UNL     1      -7.939   4.993  67.795  1.00  0.00     0.000 HD 
BRANCH  34  36
HETATM   36  O   UNL     1      -7.404   6.925  67.194  1.00  0.00    -0.085 OA 
HETATM   37  C   UNL     1      -6.288   7.498  67.845  1.00  0.00    -0.053 C  
ENDBRANCH  34  36
ENDBRANCH  25  34
ENDBRANCH  22  25
ENDBRANCH   5  21
TORSDOF 7
ENDMDL
MODEL      139
REMARK 921   NORMALIZED FREE ENERGY PREDICTED BY IDOCK:   -4.60 KCAL/MOL
REMARK 922        TOTAL FREE ENERGY PREDICTED BY IDOCK:   -7.99 KCAL/MOL
REMARK 923 INTER-LIGAND FREE ENERGY PREDICTED BY IDOCK:   -6.22 KCAL/MOL
REMARK 924 INTRA-LIGAND FREE ENERGY PREDICTED BY IDOCK:   -1.77 KCAL/MOL
REMARK 927      BINDING AFFINITY PREDICTED BY RF-SCORE:    0.00 PKD
ROOT
HETATM    1  C   UNL     1     -11.895   9.171  70.393  1.00  0.00    -0.020 C  
HETATM    2  S   UNL     1     -11.902  10.795  71.141  1.00  0.00    -0.039 SA 
HETATM    3  C   UNL     1     -12.258  11.650  69.616  1.00  0.00    -0.206 C  
HETATM    4  C   UNL     1     -11.544  11.156  68.364  1.00  0.00    -0.376 C  
HETATM    5  CA  UNL     1     -10.974   8.125  71.089  1.00  0.00    -0.237 C  
HETATM    6  CA  UNL     1     -10.931   9.951  68.226  1.00  0.00    -0.196 C  
HETATM    7  OXT UNL     1     -10.110   8.302  66.651  1.00  0.00    -0.267 OA 
HETATM    8  N   UNL     1     -10.948   9.081  69.287  1.00  0.00    -0.104 N  
HETATM    9  C   UNL     1     -10.195   9.477  66.983  1.00  0.00    -0.255 C  
HETATM   10  O   UNL     1     -10.125   6.874  69.014  1.00  0.00    -0.161 OA 
HETATM   11  C   UNL     1     -10.545   7.834  69.607  1.00  0.00    -0.242 C  
HETATM   12  O   UNL     1      -9.612  10.437  66.232  1.00  0.00    -0.169 OA 
ENDROOT
BRANCH   4  13
HETATM   13  C   UNL     1     -11.636  12.203  67.354  1.00  0.00    -0.410 C  
HETATM   14  C   UNL     1     -10.945  13.346  67.243  1.00  0.00    -0.286 C  
BRANCH  14  15
HETATM   15  C   UNL     1      -9.912  13.827  68.096  1.00  0.00    -0.242 A  
HETATM   16  C   UNL     1      -9.971  14.868  69.023  1.00  0.00    -0.235 A  
HETATM   17  N   UNL     1      -8.750  15.291  69.526  1.00  0.00    -0.226 NA 
HETATM   18  S   UNL     1      -8.277  13.270  68.015  1.00  0.00    -0.173 SA 
HETATM   19  C   UNL     1     -11.183  15.591  69.502  1.00  0.00    -0.300 C  
HETATM   20  C   UNL     1      -7.790  14.534  69.053  1.00  0.00    -0.106 A  
ENDBRANCH  14  15
ENDBRANCH   4  13
BRANCH   5  21
HETATM   21  N   UNL     1     -10.022   8.646  72.121  1.00  0.00    -0.318 N  
HETATM   22  C   UNL     1      -8.786   8.217  72.574  1.00  0.00    -0.203 C  
HETATM   23  O   UNL     1      -8.128   8.990  73.273  1.00  0.00    -0.194 OA 
HETATM   24  H   UNL     1     -10.353   9.492  72.587  1.00  0.00     0.000 HD 
BRANCH  22  25
HETATM   25  C   UNL     1      -8.257   6.804  72.419  1.00  0.00    -0.105 C  
BRANCH  25  26
HETATM   26  C   UNL     1      -9.053   5.639  72.885  1.00  0.00    -0.125 A  
HETATM   27  H2  UNL     1     -10.648   1.672  72.981  1.00  0.00     0.000 HD 
HETATM   28  H1  UNL     1      -9.963   2.084  71.407  1.00  0.00     0.000 HD 
HETATM   29  C   UNL     1      -9.595   5.554  74.162  1.00  0.00    -0.148 A  
HETATM   30  N   UNL     1      -9.319   4.511  72.105  1.00  0.00    -0.130 NA 
HETATM   31  S   UNL     1     -10.307   4.025  74.425  1.00  0.00    -0.226 SA 
HETATM   32  N   UNL     1     -10.197   2.347  72.364  1.00  0.00    -0.159 NA 
HETATM   33  C   UNL     1      -9.914   3.581  72.815  1.00  0.00    -0.154 A  
ENDBRANCH  25  26
BRANCH  25  34
HETATM   34  N   UNL     1      -7.174   6.463  71.776  1.00  0.00    -0.085 NA 
HETATM   35  H   UNL     1      -6.389   6.079  72.301  1.00  0.00     0.000 HD 
BRANCH  34  36
HETATM   36  O   UNL     1      -7.058   6.609  70.390  1.00  0.00    -0.065 OA 
HETATM   37  C   UNL     1      -6.718   5.503  69.578  1.00  0.00    -0.059 C  
ENDBRANCH  34  36
ENDBRANCH  25  34
ENDBRANCH  22  25
ENDBRANCH   5  21
TORSDOF 7
ENDMDL
MODEL      140
REMARK 921   NORMALIZED FREE ENERGY PREDICTED BY IDOCK:   -4.59 KCAL/MOL
REMARK 922        TOTAL FREE ENERGY PREDICTED BY IDOCK:   -7.98 KCAL/MOL
REMARK 923 INTER-LIGAND FREE ENERGY PREDICTED BY IDOCK:   -5.96 KCAL/MOL
REMARK 924 INTRA-LIGAND FREE ENERGY PREDICTED BY IDOCK:   -2.01 KCAL/MOL
REMARK 927      BINDING AFFINITY PREDICTED BY RF-SCORE:    0.00 PKD
ROOT
HETATM    1  C   UNL     1     -12.112   9.131  70.416  1.00  0.00     0.131 C  
HETATM    2  S   UNL     1     -11.766  10.836  70.824  1.00  0.00    -0.217 SA 
HETATM    3  C   UNL     1     -11.908  11.416  69.142  1.00  0.00    -0.345 C  
HETATM    4  C   UNL     1     -11.309  10.532  68.056  1.00  0.00    -0.319 C  
HETATM    5  CA  UNL     1     -11.453   8.077  71.355  1.00  0.00    -0.258 C  
HETATM    6  CA  UNL     1     -10.978   9.221  68.193  1.00  0.00    -0.002 C  
HETATM    7  OXT UNL     1     -10.527   7.146  67.026  1.00  0.00    -0.268 OA 
HETATM    8  N   UNL     1     -11.198   8.613  69.404  1.00  0.00     0.096 N  
HETATM    9  C   UNL     1     -10.352   8.354  67.112  1.00  0.00    -0.311 C  
HETATM   10  O   UNL     1     -10.882   6.273  69.620  1.00  0.00    -0.265 OA 
HETATM   11  C   UNL     1     -11.084   7.403  69.987  1.00  0.00    -0.220 C  
HETATM   12  O   UNL     1      -9.563   8.991  66.219  1.00  0.00    -0.217 OA 
ENDROOT
BRANCH   4  13
HETATM   13  C   UNL     1     -11.156  11.343  66.854  1.00  0.00    -0.356 C  
HETATM   14  C   UNL     1     -10.191  12.215  66.528  1.00  0.00    -0.230 C  
BRANCH  14  15
HETATM   15  C   UNL     1      -9.037  12.562  67.286  1.00  0.00    -0.189 A  
HETATM   16  C   UNL     1      -8.846  13.671  68.112  1.00  0.00    -0.189 A  
HETATM   17  N   UNL     1      -7.540  13.895  68.519  1.00  0.00    -0.129 NA 
HETATM   18  S   UNL     1      -7.542  11.700  67.189  1.00  0.00    -0.156 SA 
HETATM   19  C   UNL     1      -9.873  14.650  68.570  1.00  0.00    -0.228 C  
HETATM   20  C   UNL     1      -6.768  12.932  68.080  1.00  0.00    -0.109 A  
ENDBRANCH  14  15
ENDBRANCH   4  13
BRANCH   5  21
HETATM   21  N   UNL     1     -10.419   8.583  72.315  1.00  0.00    -0.332 N  
HETATM   22  C   UNL     1      -9.273   8.024  72.855  1.00  0.00    -0.265 C  
HETATM   23  O   UNL     1      -8.488   8.773  73.439  1.00  0.00    -0.351 OA 
HETATM   24  H   UNL     1     -10.596   9.535  72.636  1.00  0.00     0.000 HD 
BRANCH  22  25
HETATM   25  C   UNL     1      -8.998   6.535  72.933  1.00  0.00    -0.129 C  
BRANCH  25  26
HETATM   26  C   UNL     1      -8.156   5.863  71.910  1.00  0.00    -0.112 A  
HETATM   27  H2  UNL     1      -6.609   2.736  69.435  1.00  0.00     0.000 HD 
HETATM   28  H1  UNL     1      -7.510   2.115  70.821  1.00  0.00     0.000 HD 
HETATM   29  C   UNL     1      -7.437   6.558  70.946  1.00  0.00    -0.084 A  
HETATM   30  N   UNL     1      -8.019   4.477  71.797  1.00  0.00    -0.095 NA 
HETATM   31  S   UNL     1      -6.711   5.488  69.832  1.00  0.00    -0.053 SA 
HETATM   32  N   UNL     1      -7.137   2.903  70.292  1.00  0.00    -0.034 NA 
HETATM   33  C   UNL     1      -7.338   4.161  70.720  1.00  0.00    -0.041 A  
ENDBRANCH  25  26
BRANCH  25  34
HETATM   34  N   UNL     1      -9.334   5.750  73.920  1.00  0.00    -0.133 NA 
HETATM   35  H   UNL     1      -8.602   5.368  74.518  1.00  0.00     0.000 HD 
BRANCH  34  36
HETATM   36  O   UNL     1     -10.667   5.416  74.181  1.00  0.00    -0.274 OA 
HETATM   37  C   UNL     1     -11.507   4.951  73.143  1.00  0.00    -0.278 C  
ENDBRANCH  34  36
ENDBRANCH  25  34
ENDBRANCH  22  25
ENDBRANCH   5  21
TORSDOF 7
ENDMDL
MODEL      141
REMARK 921   NORMALIZED FREE ENERGY PREDICTED BY IDOCK:   -4.59 KCAL/MOL
REMARK 922        TOTAL FREE ENERGY PREDICTED BY IDOCK:   -7.97 KCAL/MOL
REMARK 923 INTER-LIGAND FREE ENERGY PREDICTED BY IDOCK:   -6.08 KCAL/MOL
REMARK 924 INTRA-LIGAND FREE ENERGY PREDICTED BY IDOCK:   -1.89 KCAL/MOL
REMARK 927      BINDING AFFINITY PREDICTED BY RF-SCORE:    0.00 PKD
ROOT
HETATM    1  C   UNL     1      -8.602  10.090  65.945  1.00  0.00    -0.139 C  
HETATM    2  S   UNL     1      -6.873  10.488  66.162  1.00  0.00    -0.136 SA 
HETATM    3  C   UNL     1      -6.386   8.809  66.521  1.00  0.00    -0.062 C  
HETATM    4  C   UNL     1      -7.318   7.996  67.410  1.00  0.00    -0.089 C  
HETATM    5  CA  UNL     1      -9.596  11.237  66.295  1.00  0.00    -0.209 C  
HETATM    6  CA  UNL     1      -8.615   8.296  67.682  1.00  0.00    -0.130 C  
HETATM    7  OXT UNL     1     -10.744   7.427  68.448  1.00  0.00    -0.180 OA 
HETATM    8  N   UNL     1      -9.161   9.420  67.114  1.00  0.00    -0.129 N  
HETATM    9  C   UNL     1      -9.531   7.494  68.594  1.00  0.00    -0.146 C  
HETATM   10  O   UNL     1     -11.482   9.847  67.345  1.00  0.00    -0.022 OA 
HETATM   11  C   UNL     1     -10.337  10.076  67.047  1.00  0.00    -0.243 C  
HETATM   12  O   UNL     1      -8.932   6.839  69.613  1.00  0.00    -0.142 OA 
ENDROOT
BRANCH   4  13
HETATM   13  C   UNL     1      -6.570   6.850  67.911  1.00  0.00    -0.059 C  
HETATM   14  C   UNL     1      -6.554   5.582  67.476  1.00  0.00    -0.053 C  
BRANCH  14  15
HETATM   15  C   UNL     1      -7.270   5.029  66.377  1.00  0.00    -0.077 A  
HETATM   16  C   UNL     1      -8.398   4.209  66.404  1.00  0.00    -0.105 A  
HETATM   17  N   UNL     1      -8.730   3.607  65.200  1.00  0.00    -0.113 NA 
HETATM   18  S   UNL     1      -6.745   5.166  64.735  1.00  0.00    -0.049 SA 
HETATM   19  C   UNL     1      -9.257   3.884  67.579  1.00  0.00    -0.203 C  
HETATM   20  C   UNL     1      -7.919   4.024  64.259  1.00  0.00    -0.086 A  
ENDBRANCH  14  15
ENDBRANCH   4  13
BRANCH   5  21
HETATM   21  N   UNL     1      -9.027  12.428  67.004  1.00  0.00    -0.204 N  
HETATM   22  C   UNL     1      -9.538  13.305  67.946  1.00  0.00    -0.217 C  
HETATM   23  O   UNL     1      -8.748  14.053  68.524  1.00  0.00    -0.181 OA 
HETATM   24  H   UNL     1      -8.064  12.636  66.737  1.00  0.00     0.000 HD 
BRANCH  22  25
HETATM   25  C   UNL     1     -11.017  13.534  68.193  1.00  0.00    -0.254 C  
BRANCH  25  26
HETATM   26  C   UNL     1     -11.608  13.303  69.536  1.00  0.00    -0.286 A  
HETATM   27  H2  UNL     1     -13.483  14.175  73.280  1.00  0.00     0.000 HD 
HETATM   28  H1  UNL     1     -12.791  15.612  72.523  1.00  0.00     0.000 HD 
HETATM   29  C   UNL     1     -12.008  12.049  69.982  1.00  0.00    -0.324 A  
HETATM   30  N   UNL     1     -11.841  14.313  70.473  1.00  0.00    -0.303 NA 
HETATM   31  S   UNL     1     -12.790  12.157  71.495  1.00  0.00    -0.195 SA 
HETATM   32  N   UNL     1     -12.962  14.606  72.517  1.00  0.00    -0.375 NA 
HETATM   33  C   UNL     1     -12.503  13.848  71.506  1.00  0.00    -0.297 A  
ENDBRANCH  25  26
BRANCH  25  34
HETATM   34  N   UNL     1     -11.858  14.058  67.344  1.00  0.00    -0.389 NA 
HETATM   35  H   UNL     1     -11.908  15.073  67.261  1.00  0.00     0.000 HD 
BRANCH  34  36
HETATM   36  O   UNL     1     -12.693  13.269  66.546  1.00  0.00    -0.202 OA 
HETATM   37  C   UNL     1     -12.463  13.160  65.155  1.00  0.00    -0.483 C  
ENDBRANCH  34  36
ENDBRANCH  25  34
ENDBRANCH  22  25
ENDBRANCH   5  21
TORSDOF 7
ENDMDL
MODEL      142
REMARK 921   NORMALIZED FREE ENERGY PREDICTED BY IDOCK:   -4.58 KCAL/MOL
REMARK 922        TOTAL FREE ENERGY PREDICTED BY IDOCK:   -7.97 KCAL/MOL
REMARK 923 INTER-LIGAND FREE ENERGY PREDICTED BY IDOCK:   -7.43 KCAL/MOL
REMARK 924 INTRA-LIGAND FREE ENERGY PREDICTED BY IDOCK:   -0.53 KCAL/MOL
REMARK 927      BINDING AFFINITY PREDICTED BY RF-SCORE:    0.00 PKD
ROOT
HETATM    1  C   UNL     1      -8.126  10.864  66.185  1.00  0.00    -0.160 C  
HETATM    2  S   UNL     1      -8.882  11.151  67.780  1.00  0.00    -0.139 SA 
HETATM    3  C   UNL     1      -7.915   9.907  68.619  1.00  0.00    -0.087 C  
HETATM    4  C   UNL     1      -7.677   8.600  67.874  1.00  0.00    -0.102 C  
HETATM    5  CA  UNL     1      -9.036  11.165  64.957  1.00  0.00    -0.068 C  
HETATM    6  CA  UNL     1      -7.836   8.409  66.538  1.00  0.00    -0.092 C  
HETATM    7  OXT UNL     1      -7.259   7.016  64.641  1.00  0.00    -0.064 OA 
HETATM    8  N   UNL     1      -8.240   9.471  65.768  1.00  0.00    -0.114 N  
HETATM    9  C   UNL     1      -7.624   7.093  65.807  1.00  0.00    -0.094 C  
HETATM   10  O   UNL     1      -8.282   9.263  63.406  1.00  0.00    -0.155 OA 
HETATM   11  C   UNL     1      -8.481   9.777  64.477  1.00  0.00    -0.176 C  
HETATM   12  O   UNL     1      -7.867   5.970  66.518  1.00  0.00    -0.101 OA 
ENDROOT
BRANCH   4  13
HETATM   13  C   UNL     1      -7.252   7.602  68.848  1.00  0.00    -0.081 C  
HETATM   14  C   UNL     1      -7.979   6.916  69.742  1.00  0.00    -0.124 C  
BRANCH  14  15
HETATM   15  C   UNL     1      -9.384   6.981  69.956  1.00  0.00    -0.158 A  
HETATM   16  C   UNL     1     -10.094   7.855  70.781  1.00  0.00    -0.192 A  
HETATM   17  N   UNL     1     -11.423   7.526  70.998  1.00  0.00    -0.274 NA 
HETATM   18  S   UNL     1     -10.499   5.828  69.310  1.00  0.00    -0.304 SA 
HETATM   19  C   UNL     1      -9.578   9.070  71.475  1.00  0.00    -0.340 C  
HETATM   20  C   UNL     1     -11.739   6.471  70.289  1.00  0.00    -0.366 A  
ENDBRANCH  14  15
ENDBRANCH   4  13
BRANCH   5  21
HETATM   21  N   UNL     1     -10.488  11.406  65.236  1.00  0.00    -0.274 N  
HETATM   22  C   UNL     1     -11.205  12.522  65.632  1.00  0.00    -0.317 C  
HETATM   23  O   UNL     1     -12.434  12.475  65.552  1.00  0.00    -0.646 OA 
HETATM   24  H   UNL     1     -11.067  10.576  65.109  1.00  0.00     0.000 HD 
BRANCH  22  25
HETATM   25  C   UNL     1     -10.602  13.732  66.319  1.00  0.00    -0.289 C  
BRANCH  25  26
HETATM   26  C   UNL     1     -11.174  14.250  67.588  1.00  0.00    -0.304 A  
HETATM   27  H2  UNL     1     -12.458  14.292  71.668  1.00  0.00     0.000 HD 
HETATM   28  H1  UNL     1     -12.252  12.654  71.044  1.00  0.00     0.000 HD 
HETATM   29  C   UNL     1     -11.341  15.605  67.846  1.00  0.00    -0.302 A  
HETATM   30  N   UNL     1     -11.579  13.439  68.652  1.00  0.00    -0.303 NA 
HETATM   31  S   UNL     1     -11.868  15.863  69.449  1.00  0.00    -0.244 SA 
HETATM   32  N   UNL     1     -12.231  13.663  70.898  1.00  0.00    -0.354 NA 
HETATM   33  C   UNL     1     -11.904  14.166  69.695  1.00  0.00    -0.324 A  
ENDBRANCH  25  26
BRANCH  25  34
HETATM   34  N   UNL     1      -9.498  14.334  65.969  1.00  0.00    -0.499 NA 
HETATM   35  H   UNL     1      -9.121  14.170  65.036  1.00  0.00     0.000 HD 
BRANCH  34  36
HETATM   36  O   UNL     1      -8.818  15.197  66.834  1.00  0.00    -0.222 OA 
HETATM   37  C   UNL     1      -7.861  16.109  66.333  1.00  0.00    -0.162 C  
ENDBRANCH  34  36
ENDBRANCH  25  34
ENDBRANCH  22  25
ENDBRANCH   5  21
TORSDOF 7
ENDMDL
MODEL      143
REMARK 921   NORMALIZED FREE ENERGY PREDICTED BY IDOCK:   -4.58 KCAL/MOL
REMARK 922        TOTAL FREE ENERGY PREDICTED BY IDOCK:   -7.96 KCAL/MOL
REMARK 923 INTER-LIGAND FREE ENERGY PREDICTED BY IDOCK:   -6.02 KCAL/MOL
REMARK 924 INTRA-LIGAND FREE ENERGY PREDICTED BY IDOCK:   -1.94 KCAL/MOL
REMARK 927      BINDING AFFINITY PREDICTED BY RF-SCORE:    0.00 PKD
ROOT
HETATM    1  C   UNL     1     -10.085   6.864  67.845  1.00  0.00    -0.162 C  
HETATM    2  S   UNL     1      -8.655   5.880  67.416  1.00  0.00    -0.104 SA 
HETATM    3  C   UNL     1      -8.242   5.487  69.107  1.00  0.00    -0.095 C  
HETATM    4  C   UNL     1      -8.384   6.606  70.130  1.00  0.00    -0.135 C  
HETATM    5  CA  UNL     1     -10.428   8.007  66.844  1.00  0.00    -0.317 C  
HETATM    6  CA  UNL     1      -9.091   7.754  69.956  1.00  0.00    -0.150 C  
HETATM    7  OXT UNL     1     -10.178   9.613  71.067  1.00  0.00    -0.288 OA 
HETATM    8  N   UNL     1      -9.750   7.943  68.767  1.00  0.00    -0.156 N  
HETATM    9  C   UNL     1      -9.203   8.880  70.971  1.00  0.00    -0.245 C  
HETATM   10  O   UNL     1     -11.204   9.799  68.511  1.00  0.00    -0.143 OA 
HETATM   11  C   UNL     1     -10.566   8.836  68.170  1.00  0.00    -0.147 C  
HETATM   12  O   UNL     1      -8.143   9.051  71.792  1.00  0.00    -0.348 OA 
ENDROOT
BRANCH   4  13
HETATM   13  C   UNL     1      -7.628   6.225  71.316  1.00  0.00    -0.094 C  
HETATM   14  C   UNL     1      -8.015   5.516  72.386  1.00  0.00    -0.103 C  
BRANCH  14  15
HETATM   15  C   UNL     1      -9.290   4.930  72.628  1.00  0.00    -0.133 A  
HETATM   16  C   UNL     1     -10.387   5.488  73.285  1.00  0.00    -0.209 A  
HETATM   17  N   UNL     1     -11.406   4.603  73.605  1.00  0.00    -0.271 NA 
HETATM   18  S   UNL     1      -9.664   3.282  72.259  1.00  0.00    -0.162 SA 
HETATM   19  C   UNL     1     -10.569   6.906  73.707  1.00  0.00    -0.333 C  
HETATM   20  C   UNL     1     -11.124   3.414  73.131  1.00  0.00    -0.066 A  
ENDBRANCH  14  15
ENDBRANCH   4  13
BRANCH   5  21
HETATM   21  N   UNL     1      -9.402   8.316  65.797  1.00  0.00    -0.419 N  
HETATM   22  C   UNL     1      -8.559   9.394  65.586  1.00  0.00    -0.142 C  
HETATM   23  O   UNL     1      -7.648   9.260  64.766  1.00  0.00    -0.104 OA 
HETATM   24  H   UNL     1      -9.305   7.582  65.096  1.00  0.00     0.000 HD 
BRANCH  22  25
HETATM   25  C   UNL     1      -8.777  10.781  66.158  1.00  0.00    -0.180 C  
BRANCH  25  26
HETATM   26  C   UNL     1      -7.780  11.390  67.076  1.00  0.00    -0.154 A  
HETATM   27  H2  UNL     1      -4.934  14.202  68.586  1.00  0.00     0.000 HD 
HETATM   28  H1  UNL     1      -5.228  14.404  66.857  1.00  0.00     0.000 HD 
HETATM   29  C   UNL     1      -7.646  11.012  68.407  1.00  0.00    -0.108 A  
HETATM   30  N   UNL     1      -6.899  12.410  66.710  1.00  0.00     0.096 NA 
HETATM   31  S   UNL     1      -6.529  12.014  69.220  1.00  0.00    -0.111 SA 
HETATM   32  N   UNL     1      -5.400  13.905  67.729  1.00  0.00    -0.288 NA 
HETATM   33  C   UNL     1      -6.239  12.855  67.754  1.00  0.00    -0.144 A  
ENDBRANCH  25  26
BRANCH  25  34
HETATM   34  N   UNL     1      -9.735  11.601  65.822  1.00  0.00    -0.231 NA 
HETATM   35  H   UNL     1      -9.950  11.730  64.834  1.00  0.00     0.000 HD 
BRANCH  34  36
HETATM   36  O   UNL     1     -10.475  12.306  66.776  1.00  0.00    -0.216 OA 
HETATM   37  C   UNL     1     -11.618  13.045  66.396  1.00  0.00    -0.363 C  
ENDBRANCH  34  36
ENDBRANCH  25  34
ENDBRANCH  22  25
ENDBRANCH   5  21
TORSDOF 7
ENDMDL
MODEL      144
REMARK 921   NORMALIZED FREE ENERGY PREDICTED BY IDOCK:   -4.58 KCAL/MOL
REMARK 922        TOTAL FREE ENERGY PREDICTED BY IDOCK:   -7.96 KCAL/MOL
REMARK 923 INTER-LIGAND FREE ENERGY PREDICTED BY IDOCK:   -5.98 KCAL/MOL
REMARK 924 INTRA-LIGAND FREE ENERGY PREDICTED BY IDOCK:   -1.98 KCAL/MOL
REMARK 927      BINDING AFFINITY PREDICTED BY RF-SCORE:    0.00 PKD
ROOT
HETATM    1  C   UNL     1     -11.465   9.103  69.698  1.00  0.00     0.199 C  
HETATM    2  S   UNL     1     -11.588  10.612  70.648  1.00  0.00    -0.282 SA 
HETATM    3  C   UNL     1     -12.116  11.607  69.263  1.00  0.00    -0.259 C  
HETATM    4  C   UNL     1     -11.431  11.348  67.927  1.00  0.00    -0.361 C  
HETATM    5  CA  UNL     1     -10.406   8.082  70.211  1.00  0.00    -0.212 C  
HETATM    6  CA  UNL     1     -10.712  10.241  67.607  1.00  0.00    -0.288 C  
HETATM    7  OXT UNL     1      -9.826   8.894  65.798  1.00  0.00    -0.226 OA 
HETATM    8  N   UNL     1     -10.581   9.250  68.548  1.00  0.00    -0.206 N  
HETATM    9  C   UNL     1     -10.007  10.004  66.281  1.00  0.00    -0.245 C  
HETATM   10  O   UNL     1      -9.561   7.193  67.955  1.00  0.00    -0.133 OA 
HETATM   11  C   UNL     1     -10.038   8.023  68.686  1.00  0.00    -0.199 C  
HETATM   12  O   UNL     1      -9.566  11.105  65.634  1.00  0.00    -0.206 OA 
ENDROOT
BRANCH   4  13
HETATM   13  C   UNL     1     -11.685  12.496  67.066  1.00  0.00    -0.437 C  
HETATM   14  C   UNL     1     -11.140  13.720  67.088  1.00  0.00    -0.315 C  
BRANCH  14  15
HETATM   15  C   UNL     1     -10.138  14.211  67.973  1.00  0.00    -0.233 A  
HETATM   16  C   UNL     1     -10.286  15.100  69.039  1.00  0.00    -0.241 A  
HETATM   17  N   UNL     1      -9.106  15.606  69.564  1.00  0.00    -0.272 NA 
HETATM   18  S   UNL     1      -8.451  13.888  67.772  1.00  0.00    -0.199 SA 
HETATM   19  C   UNL     1     -11.557  15.587  69.646  1.00  0.00    -0.359 C  
HETATM   20  C   UNL     1      -8.081  15.052  68.964  1.00  0.00    -0.178 A  
ENDBRANCH  14  15
ENDBRANCH   4  13
BRANCH   5  21
HETATM   21  N   UNL     1      -9.451   8.570  71.257  1.00  0.00    -0.185 N  
HETATM   22  C   UNL     1      -8.168   8.195  71.618  1.00  0.00    -0.126 C  
HETATM   23  O   UNL     1      -7.540   8.944  72.369  1.00  0.00    -0.351 OA 
HETATM   24  H   UNL     1      -9.823   9.335  71.820  1.00  0.00     0.000 HD 
BRANCH  22  25
HETATM   25  C   UNL     1      -7.543   6.851  71.298  1.00  0.00    -0.087 C  
BRANCH  25  26
HETATM   26  C   UNL     1      -6.845   6.626  70.006  1.00  0.00    -0.054 A  
HETATM   27  H2  UNL     1      -5.692   4.684  66.374  1.00  0.00     0.000 HD 
HETATM   28  H1  UNL     1      -6.451   3.575  67.518  1.00  0.00     0.000 HD 
HETATM   29  C   UNL     1      -6.216   7.642  69.297  1.00  0.00    -0.035 A  
HETATM   30  N   UNL     1      -6.767   5.387  69.364  1.00  0.00    -0.050 NA 
HETATM   31  S   UNL     1      -5.657   7.081  67.785  1.00  0.00    -0.017 SA 
HETATM   32  N   UNL     1      -6.114   4.509  67.285  1.00  0.00    -0.027 NA 
HETATM   33  C   UNL     1      -6.224   5.510  68.176  1.00  0.00    -0.033 A  
ENDBRANCH  25  26
BRANCH  25  34
HETATM   34  N   UNL     1      -7.434   5.847  72.124  1.00  0.00    -0.094 NA 
HETATM   35  H   UNL     1      -6.511   5.451  72.302  1.00  0.00     0.000 HD 
BRANCH  34  36
HETATM   36  O   UNL     1      -8.545   5.297  72.772  1.00  0.00    -0.119 OA 
HETATM   37  C   UNL     1      -9.627   4.777  72.026  1.00  0.00    -0.149 C  
ENDBRANCH  34  36
ENDBRANCH  25  34
ENDBRANCH  22  25
ENDBRANCH   5  21
TORSDOF 7
ENDMDL
MODEL      145
REMARK 921   NORMALIZED FREE ENERGY PREDICTED BY IDOCK:   -4.57 KCAL/MOL
REMARK 922        TOTAL FREE ENERGY PREDICTED BY IDOCK:   -7.95 KCAL/MOL
REMARK 923 INTER-LIGAND FREE ENERGY PREDICTED BY IDOCK:   -6.99 KCAL/MOL
REMARK 924 INTRA-LIGAND FREE ENERGY PREDICTED BY IDOCK:   -0.96 KCAL/MOL
REMARK 927      BINDING AFFINITY PREDICTED BY RF-SCORE:    0.00 PKD
ROOT
HETATM    1  C   UNL     1      -9.632  12.798  68.455  1.00  0.00    -0.110 C  
HETATM    2  S   UNL     1      -7.978  13.229  67.930  1.00  0.00    -0.175 SA 
HETATM    3  C   UNL     1      -8.494  14.665  67.005  1.00  0.00    -0.210 C  
HETATM    4  C   UNL     1      -9.774  14.537  66.190  1.00  0.00    -0.340 C  
HETATM    5  CA  UNL     1      -9.874  11.279  68.701  1.00  0.00    -0.202 C  
HETATM    6  CA  UNL     1     -10.722  13.577  66.348  1.00  0.00    -0.287 C  
HETATM    7  OXT UNL     1     -13.030  12.965  65.932  1.00  0.00    -0.179 OA 
HETATM    8  N   UNL     1     -10.539  12.630  67.326  1.00  0.00    -0.227 N  
HETATM    9  C   UNL     1     -11.983  13.439  65.510  1.00  0.00    -0.398 C  
HETATM   10  O   UNL     1     -12.278  11.094  67.817  1.00  0.00    -0.432 OA 
HETATM   11  C   UNL     1     -11.172  11.570  67.868  1.00  0.00    -0.279 C  
HETATM   12  O   UNL     1     -11.900  13.870  64.232  1.00  0.00    -0.408 OA 
ENDROOT
BRANCH   4  13
HETATM   13  C   UNL     1      -9.794  15.622  65.217  1.00  0.00    -0.150 C  
HETATM   14  C   UNL     1      -9.664  16.943  65.405  1.00  0.00     0.396 C  
BRANCH  14  15
HETATM   15  C   UNL     1      -9.452  17.631  66.634  1.00  0.00    -0.279 A  
HETATM   16  C   UNL     1      -8.266  18.178  67.125  1.00  0.00    -0.229 A  
HETATM   17  N   UNL     1      -8.290  18.558  68.458  1.00  0.00    -0.332 NA 
HETATM   18  S   UNL     1     -10.663  17.782  67.860  1.00  0.00    -0.229 SA 
HETATM   19  C   UNL     1      -6.981  18.364  66.394  1.00  0.00    -0.264 C  
HETATM   20  C   UNL     1      -9.492  18.379  68.948  1.00  0.00    -0.227 A  
ENDBRANCH  14  15
ENDBRANCH   4  13
BRANCH   5  21
HETATM   21  N   UNL     1      -8.804  10.341  68.234  1.00  0.00    -0.123 N  
HETATM   22  C   UNL     1      -8.155   9.272  68.828  1.00  0.00    -0.104 C  
HETATM   23  O   UNL     1      -7.480   8.535  68.106  1.00  0.00    -0.093 OA 
HETATM   24  H   UNL     1      -8.488  10.529  67.282  1.00  0.00     0.000 HD 
BRANCH  22  25
HETATM   25  C   UNL     1      -8.072   9.040  70.324  1.00  0.00    -0.136 C  
BRANCH  25  26
HETATM   26  C   UNL     1      -9.107   8.240  71.028  1.00  0.00    -0.158 A  
HETATM   27  H2  UNL     1     -12.950   6.608  71.952  1.00  0.00     0.000 HD 
HETATM   28  H1  UNL     1     -13.057   8.042  70.929  1.00  0.00     0.000 HD 
HETATM   29  C   UNL     1      -8.800   7.188  71.883  1.00  0.00    -0.123 A  
HETATM   30  N   UNL     1     -10.482   8.443  70.888  1.00  0.00    -0.192 NA 
HETATM   31  S   UNL     1     -10.214   6.381  72.395  1.00  0.00    -0.188 SA 
HETATM   32  N   UNL     1     -12.496   7.375  71.458  1.00  0.00    -0.345 NA 
HETATM   33  C   UNL     1     -11.158   7.503  71.506  1.00  0.00    -0.236 A  
ENDBRANCH  25  26
BRANCH  25  34
HETATM   34  N   UNL     1      -7.073   9.379  71.092  1.00  0.00    -0.292 NA 
HETATM   35  H   UNL     1      -6.677   8.683  71.723  1.00  0.00     0.000 HD 
BRANCH  34  36
HETATM   36  O   UNL     1      -6.529  10.668  71.075  1.00  0.00    -0.334 OA 
HETATM   37  C   UNL     1      -5.166  10.868  70.758  1.00  0.00    -0.102 C  
ENDBRANCH  34  36
ENDBRANCH  25  34
ENDBRANCH  22  25
ENDBRANCH   5  21
TORSDOF 7
ENDMDL
MODEL      146
REMARK 921   NORMALIZED FREE ENERGY PREDICTED BY IDOCK:   -4.56 KCAL/MOL
REMARK 922        TOTAL FREE ENERGY PREDICTED BY IDOCK:   -7.94 KCAL/MOL
REMARK 923 INTER-LIGAND FREE ENERGY PREDICTED BY IDOCK:   -6.55 KCAL/MOL
REMARK 924 INTRA-LIGAND FREE ENERGY PREDICTED BY IDOCK:   -1.39 KCAL/MOL
REMARK 927      BINDING AFFINITY PREDICTED BY RF-SCORE:    0.00 PKD
ROOT
HETATM    1  C   UNL     1      -9.029   9.489  68.844  1.00  0.00    -0.141 C  
HETATM    2  S   UNL     1      -7.979   8.057  69.046  1.00  0.00    -0.116 SA 
HETATM    3  C   UNL     1      -6.882   8.497  67.709  1.00  0.00    -0.067 C  
HETATM    4  C   UNL     1      -7.522   9.068  66.450  1.00  0.00    -0.092 C  
HETATM    5  CA  UNL     1     -10.514   9.287  69.267  1.00  0.00    -0.218 C  
HETATM    6  CA  UNL     1      -8.780   9.575  66.361  1.00  0.00    -0.135 C  
HETATM    7  OXT UNL     1     -10.269  10.998  65.085  1.00  0.00    -0.260 OA 
HETATM    8  N   UNL     1      -9.560   9.593  67.490  1.00  0.00    -0.147 N  
HETATM    9  C   UNL     1      -9.422  10.115  65.094  1.00  0.00    -0.260 C  
HETATM   10  O   UNL     1     -11.658  10.699  67.452  1.00  0.00    -0.445 OA 
HETATM   11  C   UNL     1     -10.778  10.005  67.896  1.00  0.00    -0.272 C  
HETATM   12  O   UNL     1      -9.011   9.559  63.933  1.00  0.00    -0.228 OA 
ENDROOT
BRANCH   4  13
HETATM   13  C   UNL     1      -6.549   8.969  65.370  1.00  0.00    -0.068 C  
HETATM   14  C   UNL     1      -6.011   7.881  64.800  1.00  0.00    -0.045 C  
BRANCH  14  15
HETATM   15  C   UNL     1      -6.276   6.516  65.105  1.00  0.00    -0.034 A  
HETATM   16  C   UNL     1      -7.328   5.718  64.653  1.00  0.00    -0.069 A  
HETATM   17  N   UNL     1      -7.487   4.508  65.313  1.00  0.00    -0.076 NA 
HETATM   18  S   UNL     1      -5.375   5.610  66.270  1.00  0.00    -0.013 SA 
HETATM   19  C   UNL     1      -8.309   6.032  63.576  1.00  0.00     0.050 C  
HETATM   20  C   UNL     1      -6.528   4.355  66.193  1.00  0.00    -0.041 A  
ENDBRANCH  14  15
ENDBRANCH   4  13
BRANCH   5  21
HETATM   21  N   UNL     1     -10.951   7.881  69.543  1.00  0.00    -0.429 N  
HETATM   22  C   UNL     1     -11.508   7.261  70.649  1.00  0.00    -0.293 C  
HETATM   23  O   UNL     1     -11.984   6.134  70.497  1.00  0.00    -0.147 OA 
HETATM   24  H   UNL     1     -10.809   7.251  68.753  1.00  0.00     0.000 HD 
BRANCH  22  25
HETATM   25  C   UNL     1     -11.420   7.791  72.066  1.00  0.00    -0.289 C  
BRANCH  25  26
HETATM   26  C   UNL     1     -10.190   7.596  72.876  1.00  0.00    -0.298 A  
HETATM   27  H2  UNL     1      -6.690   8.584  75.127  1.00  0.00     0.000 HD 
HETATM   28  H1  UNL     1      -7.245   9.926  74.122  1.00  0.00     0.000 HD 
HETATM   29  C   UNL     1      -9.890   6.403  73.523  1.00  0.00    -0.185 A  
HETATM   30  N   UNL     1      -9.227   8.587  73.089  1.00  0.00    -0.237 NA 
HETATM   31  S   UNL     1      -8.495   6.565  74.493  1.00  0.00    -0.154 SA 
HETATM   32  N   UNL     1      -7.342   8.961  74.440  1.00  0.00    -0.421 NA 
HETATM   33  C   UNL     1      -8.329   8.186  73.958  1.00  0.00    -0.247 A  
ENDBRANCH  25  26
BRANCH  25  34
HETATM   34  N   UNL     1     -12.306   8.550  72.651  1.00  0.00    -0.519 NA 
HETATM   35  H   UNL     1     -12.196   8.763  73.642  1.00  0.00     0.000 HD 
BRANCH  34  36
HETATM   36  O   UNL     1     -13.401   9.079  71.960  1.00  0.00    -0.373 OA 
HETATM   37  C   UNL     1     -13.305  10.333  71.316  1.00  0.00    -0.284 C  
ENDBRANCH  34  36
ENDBRANCH  25  34
ENDBRANCH  22  25
ENDBRANCH   5  21
TORSDOF 7
ENDMDL
MODEL      147
REMARK 921   NORMALIZED FREE ENERGY PREDICTED BY IDOCK:   -4.52 KCAL/MOL
REMARK 922        TOTAL FREE ENERGY PREDICTED BY IDOCK:   -7.89 KCAL/MOL
REMARK 923 INTER-LIGAND FREE ENERGY PREDICTED BY IDOCK:   -6.87 KCAL/MOL
REMARK 924 INTRA-LIGAND FREE ENERGY PREDICTED BY IDOCK:   -1.02 KCAL/MOL
REMARK 927      BINDING AFFINITY PREDICTED BY RF-SCORE:    0.00 PKD
ROOT
HETATM    1  C   UNL     1      -8.541  12.494  68.358  1.00  0.00    -0.123 C  
HETATM    2  S   UNL     1      -7.130  13.290  67.603  1.00  0.00    -0.152 SA 
HETATM    3  C   UNL     1      -8.088  14.600  66.861  1.00  0.00    -0.013 C  
HETATM    4  C   UNL     1      -9.431  14.214  66.254  1.00  0.00    -0.264 C  
HETATM    5  CA  UNL     1      -8.410  10.953  68.547  1.00  0.00    -0.142 C  
HETATM    6  CA  UNL     1     -10.112  13.065  66.503  1.00  0.00    -0.270 C  
HETATM    7  OXT UNL     1     -12.273  11.972  66.423  1.00  0.00    -0.551 OA 
HETATM    8  N   UNL     1      -9.570  12.159  67.380  1.00  0.00    -0.176 N  
HETATM    9  C   UNL     1     -11.438  12.674  65.870  1.00  0.00    -0.363 C  
HETATM   10  O   UNL     1     -10.833  10.266  68.047  1.00  0.00    -0.236 OA 
HETATM   11  C   UNL     1      -9.862  10.972  67.950  1.00  0.00    -0.171 C  
HETATM   12  O   UNL     1     -11.665  13.144  64.623  1.00  0.00    -0.332 OA 
ENDROOT
BRANCH   4  13
HETATM   13  C   UNL     1      -9.845  15.292  65.364  1.00  0.00    -0.318 C  
HETATM   14  C   UNL     1     -10.041  16.591  65.628  1.00  0.00    -0.278 C  
BRANCH  14  15
HETATM   15  C   UNL     1      -9.874  17.263  66.872  1.00  0.00    -0.287 A  
HETATM   16  C   UNL     1     -10.608  17.102  68.047  1.00  0.00    -0.374 A  
HETATM   17  N   UNL     1     -10.399  18.067  69.021  1.00  0.00    -0.281 NA 
HETATM   18  S   UNL     1      -8.766  18.571  67.105  1.00  0.00    -0.276 SA 
HETATM   19  C   UNL     1     -11.608  16.040  68.355  1.00  0.00    -0.279 C  
HETATM   20  C   UNL     1      -9.465  18.897  68.627  1.00  0.00    -0.378 A  
ENDBRANCH  14  15
ENDBRANCH   4  13
BRANCH   5  21
HETATM   21  N   UNL     1      -7.259  10.285  67.859  1.00  0.00    -0.085 N  
HETATM   22  C   UNL     1      -7.013   8.978  67.476  1.00  0.00    -0.078 C  
HETATM   23  O   UNL     1      -6.070   8.770  66.710  1.00  0.00    -0.055 OA 
HETATM   24  H   UNL     1      -6.501  10.926  67.624  1.00  0.00     0.000 HD 
BRANCH  22  25
HETATM   25  C   UNL     1      -7.706   7.765  68.065  1.00  0.00    -0.126 C  
BRANCH  25  26
HETATM   26  C   UNL     1      -8.293   7.812  69.429  1.00  0.00    -0.133 A  
HETATM   27  H2  UNL     1     -11.154   7.304  72.568  1.00  0.00     0.000 HD 
HETATM   28  H1  UNL     1     -11.890   7.217  70.965  1.00  0.00     0.000 HD 
HETATM   29  C   UNL     1      -7.529   7.988  70.577  1.00  0.00    -0.071 A  
HETATM   30  N   UNL     1      -9.656   7.664  69.701  1.00  0.00    -0.160 NA 
HETATM   31  S   UNL     1      -8.487   7.832  71.981  1.00  0.00    -0.125 SA 
HETATM   32  N   UNL     1     -11.067   7.354  71.553  1.00  0.00    -0.237 NA 
HETATM   33  C   UNL     1      -9.870   7.601  70.994  1.00  0.00    -0.174 A  
ENDBRANCH  25  26
BRANCH  25  34
HETATM   34  N   UNL     1      -7.970   6.656  67.430  1.00  0.00    -0.113 NA 
HETATM   35  H   UNL     1      -7.785   5.766  67.891  1.00  0.00     0.000 HD 
BRANCH  34  36
HETATM   36  O   UNL     1      -8.501   6.652  66.135  1.00  0.00    -0.123 OA 
HETATM   37  C   UNL     1      -7.916   5.858  65.123  1.00  0.00    -0.121 C  
ENDBRANCH  34  36
ENDBRANCH  25  34
ENDBRANCH  22  25
ENDBRANCH   5  21
TORSDOF 7
ENDMDL
MODEL      148
REMARK 921   NORMALIZED FREE ENERGY PREDICTED BY IDOCK:   -4.52 KCAL/MOL
REMARK 922        TOTAL FREE ENERGY PREDICTED BY IDOCK:   -7.88 KCAL/MOL
REMARK 923 INTER-LIGAND FREE ENERGY PREDICTED BY IDOCK:   -6.28 KCAL/MOL
REMARK 924 INTRA-LIGAND FREE ENERGY PREDICTED BY IDOCK:   -1.60 KCAL/MOL
REMARK 927      BINDING AFFINITY PREDICTED BY RF-SCORE:    0.00 PKD
ROOT
HETATM    1  C   UNL     1      -9.411  10.283  68.235  1.00  0.00    -0.138 C  
HETATM    2  S   UNL     1      -8.993   9.878  66.545  1.00  0.00    -0.149 SA 
HETATM    3  C   UNL     1      -8.945  11.577  66.001  1.00  0.00    -0.176 C  
HETATM    4  C   UNL     1     -10.025  12.506  66.543  1.00  0.00    -0.252 C  
HETATM    5  CA  UNL     1     -10.243   9.204  68.989  1.00  0.00    -0.207 C  
HETATM    6  CA  UNL     1     -10.804  12.265  67.629  1.00  0.00    -0.225 C  
HETATM    7  OXT UNL     1     -12.223  13.258  69.325  1.00  0.00    -0.268 OA 
HETATM    8  N   UNL     1     -10.620  11.094  68.321  1.00  0.00    -0.180 N  
HETATM    9  C   UNL     1     -11.900  13.183  68.147  1.00  0.00    -0.348 C  
HETATM   10  O   UNL     1     -11.769  10.742  70.366  1.00  0.00    -0.302 OA 
HETATM   11  C   UNL     1     -11.084  10.458  69.417  1.00  0.00    -0.254 C  
HETATM   12  O   UNL     1     -12.530  13.940  67.221  1.00  0.00    -0.259 OA 
ENDROOT
BRANCH   4  13
HETATM   13  C   UNL     1     -10.068  13.687  65.690  1.00  0.00    -0.299 C  
HETATM   14  C   UNL     1      -9.544  14.905  65.888  1.00  0.00    -0.343 C  
BRANCH  14  15
HETATM   15  C   UNL     1      -8.782  15.354  67.003  1.00  0.00    -0.229 A  
HETATM   16  C   UNL     1      -9.149  16.271  67.989  1.00  0.00    -0.188 A  
HETATM   17  N   UNL     1      -8.120  16.718  68.804  1.00  0.00    -0.247 NA 
HETATM   18  S   UNL     1      -7.124  14.930  67.254  1.00  0.00     0.073 SA 
HETATM   19  C   UNL     1     -10.503  16.842  68.238  1.00  0.00    -0.352 C  
HETATM   20  C   UNL     1      -7.009  16.094  68.496  1.00  0.00    -0.137 A  
ENDBRANCH  14  15
ENDBRANCH   4  13
BRANCH   5  21
HETATM   21  N   UNL     1     -10.810   8.091  68.162  1.00  0.00    -0.444 N  
HETATM   22  C   UNL     1     -10.523   6.740  68.066  1.00  0.00    -0.211 C  
HETATM   23  O   UNL     1     -11.324   6.023  67.464  1.00  0.00    -0.103 OA 
HETATM   24  H   UNL     1     -11.563   8.390  67.542  1.00  0.00     0.000 HD 
BRANCH  22  25
HETATM   25  C   UNL     1      -9.213   6.107  68.495  1.00  0.00    -0.115 C  
BRANCH  25  26
HETATM   26  C   UNL     1      -8.158   5.794  67.498  1.00  0.00    -0.102 A  
HETATM   27  H2  UNL     1      -6.253   3.955  64.138  1.00  0.00     0.000 HD 
HETATM   28  H1  UNL     1      -7.663   3.048  64.693  1.00  0.00     0.000 HD 
HETATM   29  C   UNL     1      -7.056   6.613  67.279  1.00  0.00    -0.080 A  
HETATM   30  N   UNL     1      -8.172   4.670  66.669  1.00  0.00    -0.107 NA 
HETATM   31  S   UNL     1      -6.128   6.053  65.961  1.00  0.00    -0.033 SA 
HETATM   32  N   UNL     1      -7.025   3.838  64.794  1.00  0.00    -0.049 NA 
HETATM   33  C   UNL     1      -7.199   4.725  65.789  1.00  0.00    -0.076 A  
ENDBRANCH  25  26
BRANCH  25  34
HETATM   34  N   UNL     1      -8.834   5.904  69.727  1.00  0.00    -0.127 NA 
HETATM   35  H   UNL     1      -7.891   5.559  69.902  1.00  0.00     0.000 HD 
BRANCH  34  36
HETATM   36  O   UNL     1      -9.682   6.145  70.813  1.00  0.00    -0.174 OA 
HETATM   37  C   UNL     1      -9.806   5.194  71.851  1.00  0.00    -0.177 C  
ENDBRANCH  34  36
ENDBRANCH  25  34
ENDBRANCH  22  25
ENDBRANCH   5  21
TORSDOF 7
ENDMDL
MODEL      149
REMARK 921   NORMALIZED FREE ENERGY PREDICTED BY IDOCK:   -4.49 KCAL/MOL
REMARK 922        TOTAL FREE ENERGY PREDICTED BY IDOCK:   -7.84 KCAL/MOL
REMARK 923 INTER-LIGAND FREE ENERGY PREDICTED BY IDOCK:   -6.82 KCAL/MOL
REMARK 924 INTRA-LIGAND FREE ENERGY PREDICTED BY IDOCK:   -1.03 KCAL/MOL
REMARK 927      BINDING AFFINITY PREDICTED BY RF-SCORE:    0.00 PKD
ROOT
HETATM    1  C   UNL     1     -10.828   7.786  68.722  1.00  0.00     0.030 C  
HETATM    2  S   UNL     1     -10.777   6.177  67.944  1.00  0.00    -0.307 SA 
HETATM    3  C   UNL     1     -10.424   5.300  69.458  1.00  0.00    -0.234 C  
HETATM    4  C   UNL     1      -9.436   5.951  70.418  1.00  0.00    -0.192 C  
HETATM    5  CA  UNL     1     -10.416   8.977  67.807  1.00  0.00    -0.245 C  
HETATM    6  CA  UNL     1      -9.056   7.256  70.399  1.00  0.00    -0.155 C  
HETATM    7  OXT UNL     1      -8.081   9.066  71.681  1.00  0.00    -0.329 OA 
HETATM    8  N   UNL     1      -9.598   8.083  69.447  1.00  0.00    -0.160 N  
HETATM    9  C   UNL     1      -8.047   7.891  71.342  1.00  0.00    -0.102 C  
HETATM   10  O   UNL     1      -9.170  10.414  69.532  1.00  0.00    -0.194 OA 
HETATM   11  C   UNL     1      -9.574   9.377  69.070  1.00  0.00    -0.164 C  
HETATM   12  O   UNL     1      -7.071   7.080  71.806  1.00  0.00    -0.068 OA 
ENDROOT
BRANCH   4  13
HETATM   13  C   UNL     1      -8.977   4.928  71.349  1.00  0.00    -0.162 C  
HETATM   14  C   UNL     1      -8.127   3.911  71.151  1.00  0.00    -0.064 C  
BRANCH  14  15
HETATM   15  C   UNL     1      -7.429   3.578  69.956  1.00  0.00    -0.044 A  
HETATM   16  C   UNL     1      -7.785   2.650  68.976  1.00  0.00    -0.046 A  
HETATM   17  N   UNL     1      -6.795   2.343  68.055  1.00  0.00    -0.042 NA 
HETATM   18  S   UNL     1      -5.860   4.195  69.568  1.00  0.00    -0.019 SA 
HETATM   19  C   UNL     1      -9.085   1.934  68.833  1.00  0.00    -0.182 C  
HETATM   20  C   UNL     1      -5.737   3.082  68.280  1.00  0.00    -0.022 A  
ENDBRANCH  14  15
ENDBRANCH   4  13
BRANCH   5  21
HETATM   21  N   UNL     1      -9.790   8.631  66.490  1.00  0.00    -0.259 N  
HETATM   22  C   UNL     1      -9.542   9.358  65.338  1.00  0.00    -0.226 C  
HETATM   23  O   UNL     1      -8.791   8.862  64.496  1.00  0.00    -0.144 OA 
HETATM   24  H   UNL     1      -9.482   7.660  66.431  1.00  0.00     0.000 HD 
BRANCH  22  25
HETATM   25  C   UNL     1     -10.260  10.638  64.958  1.00  0.00    -0.310 C  
BRANCH  25  26
HETATM   26  C   UNL     1     -10.387  11.756  65.929  1.00  0.00    -0.241 A  
HETATM   27  H2  UNL     1     -11.986  14.119  69.115  1.00  0.00     0.000 HD 
HETATM   28  H1  UNL     1     -13.164  12.973  68.470  1.00  0.00     0.000 HD 
HETATM   29  C   UNL     1      -9.340  12.620  66.230  1.00  0.00    -0.160 A  
HETATM   30  N   UNL     1     -11.550  12.039  66.650  1.00  0.00    -0.513 NA 
HETATM   31  S   UNL     1      -9.767  13.682  67.496  1.00  0.00    -0.233 SA 
HETATM   32  N   UNL     1     -12.234  13.390  68.446  1.00  0.00    -0.215 NA 
HETATM   33  C   UNL     1     -11.332  12.981  67.537  1.00  0.00    -0.305 A  
ENDBRANCH  25  26
BRANCH  25  34
HETATM   34  N   UNL     1     -10.701  10.939  63.768  1.00  0.00    -0.528 NA 
HETATM   35  H   UNL     1     -10.951  10.184  63.129  1.00  0.00     0.000 HD 
BRANCH  34  36
HETATM   36  O   UNL     1     -10.841  12.264  63.342  1.00  0.00    -0.449 OA 
HETATM   37  C   UNL     1     -12.093  12.915  63.422  1.00  0.00    -0.530 C  
ENDBRANCH  34  36
ENDBRANCH  25  34
ENDBRANCH  22  25
ENDBRANCH   5  21
TORSDOF 7
ENDMDL
MODEL      150
REMARK 921   NORMALIZED FREE ENERGY PREDICTED BY IDOCK:   -4.47 KCAL/MOL
REMARK 922        TOTAL FREE ENERGY PREDICTED BY IDOCK:   -7.82 KCAL/MOL
REMARK 923 INTER-LIGAND FREE ENERGY PREDICTED BY IDOCK:   -8.92 KCAL/MOL
REMARK 924 INTRA-LIGAND FREE ENERGY PREDICTED BY IDOCK:    1.10 KCAL/MOL
REMARK 927      BINDING AFFINITY PREDICTED BY RF-SCORE:    0.00 PKD
ROOT
HETATM    1  C   UNL     1      -9.726  10.556  69.450  1.00  0.00    -0.164 C  
HETATM    2  S   UNL     1     -10.905  11.405  68.408  1.00  0.00    -0.225 SA 
HETATM    3  C   UNL     1     -11.893  11.999  69.770  1.00  0.00    -0.331 C  
HETATM    4  C   UNL     1     -12.130  11.033  70.924  1.00  0.00    -0.444 C  
HETATM    5  CA  UNL     1      -9.052   9.308  68.806  1.00  0.00    -0.136 C  
HETATM    6  CA  UNL     1     -11.411   9.907  71.174  1.00  0.00    -0.370 C  
HETATM    7  OXT UNL     1     -10.798   8.265  72.848  1.00  0.00    -0.320 OA 
HETATM    8  N   UNL     1     -10.371   9.593  70.335  1.00  0.00    -0.273 N  
HETATM    9  C   UNL     1     -11.672   8.932  72.311  1.00  0.00    -0.280 C  
HETATM   10  O   UNL     1      -8.927   7.791  70.874  1.00  0.00    -0.144 OA 
HETATM   11  C   UNL     1      -9.399   8.669  70.197  1.00  0.00    -0.164 C  
HETATM   12  O   UNL     1     -12.956   8.821  72.719  1.00  0.00    -0.345 OA 
ENDROOT
BRANCH   4  13
HETATM   13  C   UNL     1     -13.259  11.531  71.700  1.00  0.00    -0.389 C  
HETATM   14  C   UNL     1     -13.547  12.783  72.083  1.00  0.00    -0.547 C  
BRANCH  14  15
HETATM   15  C   UNL     1     -12.811  13.970  71.807  1.00  0.00    -0.340 A  
HETATM   16  C   UNL     1     -12.381  14.949  72.703  1.00  0.00    -0.327 A  
HETATM   17  N   UNL     1     -11.915  16.122  72.128  1.00  0.00    -0.519 NA 
HETATM   18  S   UNL     1     -12.435  14.504  70.205  1.00  0.00    -0.331 SA 
HETATM   19  C   UNL     1     -12.400  14.889  74.192  1.00  0.00    -0.467 C  
HETATM   20  C   UNL     1     -11.914  16.006  70.823  1.00  0.00    -0.307 A  
ENDBRANCH  14  15
ENDBRANCH   4  13
BRANCH   5  21
HETATM   21  N   UNL     1      -9.637   8.814  67.518  1.00  0.00    -0.147 N  
HETATM   22  C   UNL     1      -9.437   9.158  66.192  1.00  0.00    -0.245 C  
HETATM   23  O   UNL     1      -9.893   8.407  65.328  1.00  0.00     0.571 OA 
HETATM   24  H   UNL     1     -10.325   8.072  67.645  1.00  0.00     0.000 HD 
BRANCH  22  25
HETATM   25  C   UNL     1      -8.850  10.476  65.725  1.00  0.00    -0.175 C  
BRANCH  25  26
HETATM   26  C   UNL     1      -9.725  11.549  65.188  1.00  0.00    -0.237 A  
HETATM   27  H2  UNL     1     -13.129  13.394  63.371  1.00  0.00     0.000 HD 
HETATM   28  H1  UNL     1     -13.053  11.659  63.052  1.00  0.00     0.000 HD 
HETATM   29  C   UNL     1      -9.551  12.893  65.497  1.00  0.00     0.029 A  
HETATM   30  N   UNL     1     -10.816  11.322  64.346  1.00  0.00    -0.331 NA 
HETATM   31  S   UNL     1     -10.817  13.839  64.851  1.00  0.00    -0.412 SA 
HETATM   32  N   UNL     1     -12.652  12.499  63.470  1.00  0.00    -0.745 NA 
HETATM   33  C   UNL     1     -11.494  12.428  64.149  1.00  0.00    -0.381 A  
ENDBRANCH  25  26
BRANCH  25  34
HETATM   34  N   UNL     1      -7.606  10.845  65.860  1.00  0.00    -0.302 NA 
HETATM   35  H   UNL     1      -7.306  11.728  65.448  1.00  0.00     0.000 HD 
BRANCH  34  36
HETATM   36  O   UNL     1      -6.673  10.067  66.554  1.00  0.00    -0.077 OA 
HETATM   37  C   UNL     1      -5.939  10.617  67.630  1.00  0.00    -0.044 C  
ENDBRANCH  34  36
ENDBRANCH  25  34
ENDBRANCH  22  25
ENDBRANCH   5  21
TORSDOF 7
ENDMDL
MODEL      151
REMARK 921   NORMALIZED FREE ENERGY PREDICTED BY IDOCK:   -4.47 KCAL/MOL
REMARK 922        TOTAL FREE ENERGY PREDICTED BY IDOCK:   -7.81 KCAL/MOL
REMARK 923 INTER-LIGAND FREE ENERGY PREDICTED BY IDOCK:   -6.59 KCAL/MOL
REMARK 924 INTRA-LIGAND FREE ENERGY PREDICTED BY IDOCK:   -1.22 KCAL/MOL
REMARK 927      BINDING AFFINITY PREDICTED BY RF-SCORE:    0.00 PKD
ROOT
HETATM    1  C   UNL     1      -8.046  14.214  68.534  1.00  0.00    -0.143 C  
HETATM    2  S   UNL     1      -6.411  14.073  67.824  1.00  0.00    -0.146 SA 
HETATM    3  C   UNL     1      -6.355  15.766  67.262  1.00  0.00    -0.070 C  
HETATM    4  C   UNL     1      -7.634  16.335  66.660  1.00  0.00    -0.268 C  
HETATM    5  CA  UNL     1      -8.878  12.898  68.549  1.00  0.00    -0.044 C  
HETATM    6  CA  UNL     1      -8.879  15.812  66.805  1.00  0.00    -0.267 C  
HETATM    7  OXT UNL     1     -11.257  16.261  66.677  1.00  0.00     0.012 OA 
HETATM    8  N   UNL     1      -9.028  14.675  67.559  1.00  0.00    -0.182 N  
HETATM    9  C   UNL     1     -10.146  16.370  66.177  1.00  0.00    -0.346 C  
HETATM   10  O   UNL     1     -11.203  13.870  68.057  1.00  0.00    -0.252 OA 
HETATM   11  C   UNL     1      -9.999  13.852  68.005  1.00  0.00    -0.241 C  
HETATM   12  O   UNL     1      -9.994  17.012  64.997  1.00  0.00    -0.079 OA 
ENDROOT
BRANCH   4  13
HETATM   13  C   UNL     1      -7.278  17.532  65.908  1.00  0.00    -0.195 C  
HETATM   14  C   UNL     1      -7.628  18.809  66.117  1.00  0.00    -0.286 C  
BRANCH  14  15
HETATM   15  C   UNL     1      -8.440  19.330  67.163  1.00  0.00    -0.285 A  
HETATM   16  C   UNL     1      -8.233  19.250  68.541  1.00  0.00    -0.366 A  
HETATM   17  N   UNL     1      -9.313  19.615  69.330  1.00  0.00    -0.083 NA 
HETATM   18  S   UNL     1      -9.985  20.060  66.893  1.00  0.00    -0.476 SA 
HETATM   19  C   UNL     1      -7.006  18.787  69.249  1.00  0.00    -0.247 C  
HETATM   20  C   UNL     1     -10.292  20.041  68.572  1.00  0.00    -0.294 A  
ENDBRANCH  14  15
ENDBRANCH   4  13
BRANCH   5  21
HETATM   21  N   UNL     1      -8.336  11.749  67.755  1.00  0.00    -0.138 N  
HETATM   22  C   UNL     1      -8.248  10.388  67.995  1.00  0.00    -0.114 C  
HETATM   23  O   UNL     1      -7.964   9.653  67.047  1.00  0.00    -0.108 OA 
HETATM   24  H   UNL     1      -7.953  12.026  66.851  1.00  0.00     0.000 HD 
BRANCH  22  25
HETATM   25  C   UNL     1      -8.304   9.753  69.371  1.00  0.00    -0.152 C  
BRANCH  25  26
HETATM   26  C   UNL     1      -9.436   8.871  69.755  1.00  0.00    -0.170 A  
HETATM   27  H2  UNL     1     -12.167   5.582  69.613  1.00  0.00     0.000 HD 
HETATM   28  H1  UNL     1     -11.322   5.823  68.081  1.00  0.00     0.000 HD 
HETATM   29  C   UNL     1     -10.033   8.908  71.010  1.00  0.00    -0.256 A  
HETATM   30  N   UNL     1     -10.000   7.908  68.914  1.00  0.00    -0.185 NA 
HETATM   31  S   UNL     1     -11.188   7.663  71.178  1.00  0.00    -0.265 SA 
HETATM   32  N   UNL     1     -11.506   6.109  69.043  1.00  0.00    -0.208 NA 
HETATM   33  C   UNL     1     -10.879   7.180  69.561  1.00  0.00    -0.225 A  
ENDBRANCH  25  26
BRANCH  25  34
HETATM   34  N   UNL     1      -7.357   9.794  70.267  1.00  0.00    -0.146 NA 
HETATM   35  H   UNL     1      -7.185   8.970  70.842  1.00  0.00     0.000 HD 
BRANCH  34  36
HETATM   36  O   UNL     1      -6.571  10.935  70.462  1.00  0.00    -0.309 OA 
HETATM   37  C   UNL     1      -5.190  10.916  70.159  1.00  0.00    -0.055 C  
ENDBRANCH  34  36
ENDBRANCH  25  34
ENDBRANCH  22  25
ENDBRANCH   5  21
TORSDOF 7
ENDMDL
MODEL      152
REMARK 921   NORMALIZED FREE ENERGY PREDICTED BY IDOCK:   -4.46 KCAL/MOL
REMARK 922        TOTAL FREE ENERGY PREDICTED BY IDOCK:   -7.80 KCAL/MOL
REMARK 923 INTER-LIGAND FREE ENERGY PREDICTED BY IDOCK:   -6.16 KCAL/MOL
REMARK 924 INTRA-LIGAND FREE ENERGY PREDICTED BY IDOCK:   -1.64 KCAL/MOL
REMARK 927      BINDING AFFINITY PREDICTED BY RF-SCORE:    0.00 PKD
ROOT
HETATM    1  C   UNL     1      -6.501   9.144  69.590  1.00  0.00    -0.042 C  
HETATM    2  S   UNL     1      -7.077   9.080  71.282  1.00  0.00    -0.042 SA 
HETATM    3  C   UNL     1      -6.742   7.338  71.478  1.00  0.00    -0.051 C  
HETATM    4  C   UNL     1      -7.077   6.434  70.299  1.00  0.00    -0.078 C  
HETATM    5  CA  UNL     1      -7.183  10.224  68.699  1.00  0.00    -0.081 C  
HETATM    6  CA  UNL     1      -7.290   6.845  69.021  1.00  0.00    -0.093 C  
HETATM    7  OXT UNL     1      -7.345   6.171  66.694  1.00  0.00    -0.078 OA 
HETATM    8  N   UNL     1      -7.194   8.185  68.739  1.00  0.00    -0.081 N  
HETATM    9  C   UNL     1      -7.653   5.939  67.855  1.00  0.00    -0.086 C  
HETATM   10  O   UNL     1      -7.299   8.924  66.488  1.00  0.00    -0.083 OA 
HETATM   11  C   UNL     1      -7.270   9.026  67.688  1.00  0.00    -0.083 C  
HETATM   12  O   UNL     1      -8.359   4.828  68.161  1.00  0.00    -0.098 OA 
ENDROOT
BRANCH   4  13
HETATM   13  C   UNL     1      -7.128   5.062  70.788  1.00  0.00    -0.056 C  
HETATM   14  C   UNL     1      -7.970   4.498  71.666  1.00  0.00    -0.100 C  
BRANCH  14  15
HETATM   15  C   UNL     1      -9.061   5.111  72.344  1.00  0.00    -0.134 A  
HETATM   16  C   UNL     1     -10.231   5.642  71.798  1.00  0.00    -0.202 A  
HETATM   17  N   UNL     1     -11.000   6.408  72.661  1.00  0.00    -0.242 NA 
HETATM   18  S   UNL     1      -9.055   5.456  74.039  1.00  0.00    -0.118 SA 
HETATM   19  C   UNL     1     -10.721   5.507  70.397  1.00  0.00    -0.321 C  
HETATM   20  C   UNL     1     -10.469   6.393  73.858  1.00  0.00    -0.291 A  
ENDBRANCH  14  15
ENDBRANCH   4  13
BRANCH   5  21
HETATM   21  N   UNL     1      -8.396  10.898  69.265  1.00  0.00    -0.358 N  
HETATM   22  C   UNL     1      -9.721  10.956  68.866  1.00  0.00    -0.187 C  
HETATM   23  O   UNL     1     -10.545  11.397  69.670  1.00  0.00    -0.073 OA 
HETATM   24  H   UNL     1      -8.207  11.421  70.120  1.00  0.00     0.000 HD 
BRANCH  22  25
HETATM   25  C   UNL     1     -10.207  10.680  67.457  1.00  0.00    -0.199 C  
BRANCH  25  26
HETATM   26  C   UNL     1     -10.577  11.796  66.549  1.00  0.00    -0.253 A  
HETATM   27  H2  UNL     1     -13.042  14.409  64.227  1.00  0.00     0.000 HD 
HETATM   28  H1  UNL     1     -13.867  12.907  64.653  1.00  0.00     0.000 HD 
HETATM   29  C   UNL     1      -9.725  12.858  66.268  1.00  0.00    -0.268 A  
HETATM   30  N   UNL     1     -11.813  11.906  65.907  1.00  0.00    -0.448 NA 
HETATM   31  S   UNL     1     -10.512  14.043  65.324  1.00  0.00    -0.403 SA 
HETATM   32  N   UNL     1     -13.032  13.493  64.674  1.00  0.00    -0.609 NA 
HETATM   33  C   UNL     1     -11.917  13.060  65.289  1.00  0.00    -0.407 A  
ENDBRANCH  25  26
BRANCH  25  34
HETATM   34  N   UNL     1     -10.225   9.514  66.873  1.00  0.00    -0.242 NA 
HETATM   35  H   UNL     1      -9.898   9.439  65.910  1.00  0.00     0.000 HD 
BRANCH  34  36
HETATM   36  O   UNL     1     -10.679   8.364  67.527  1.00  0.00    -0.240 OA 
HETATM   37  C   UNL     1     -10.886   7.164  66.809  1.00  0.00    -0.114 C  
ENDBRANCH  34  36
ENDBRANCH  25  34
ENDBRANCH  22  25
ENDBRANCH   5  21
TORSDOF 7
ENDMDL
MODEL      153
REMARK 921   NORMALIZED FREE ENERGY PREDICTED BY IDOCK:   -4.46 KCAL/MOL
REMARK 922        TOTAL FREE ENERGY PREDICTED BY IDOCK:   -7.80 KCAL/MOL
REMARK 923 INTER-LIGAND FREE ENERGY PREDICTED BY IDOCK:   -6.07 KCAL/MOL
REMARK 924 INTRA-LIGAND FREE ENERGY PREDICTED BY IDOCK:   -1.72 KCAL/MOL
REMARK 927      BINDING AFFINITY PREDICTED BY RF-SCORE:    0.00 PKD
ROOT
HETATM    1  C   UNL     1      -9.874  11.213  68.202  1.00  0.00    -0.180 C  
HETATM    2  S   UNL     1     -10.895  10.386  66.990  1.00  0.00    -0.149 SA 
HETATM    3  C   UNL     1      -9.668   9.153  66.589  1.00  0.00    -0.223 C  
HETATM    4  C   UNL     1      -8.224   9.626  66.488  1.00  0.00    -0.119 C  
HETATM    5  CA  UNL     1     -10.150  12.736  68.372  1.00  0.00    -0.226 C  
HETATM    6  CA  UNL     1      -7.735  10.793  66.983  1.00  0.00    -0.121 C  
HETATM    7  OXT UNL     1      -5.743  11.986  67.675  1.00  0.00    -0.067 OA 
HETATM    8  N   UNL     1      -8.595  11.635  67.643  1.00  0.00    -0.137 N  
HETATM    9  C   UNL     1      -6.298  11.271  66.852  1.00  0.00    -0.125 C  
HETATM   10  O   UNL     1      -7.745  13.554  68.749  1.00  0.00    -0.119 OA 
HETATM   11  C   UNL     1      -8.583  12.809  68.308  1.00  0.00    -0.166 C  
HETATM   12  O   UNL     1      -5.633  10.865  65.748  1.00  0.00    -0.134 OA 
ENDROOT
BRANCH   4  13
HETATM   13  C   UNL     1      -7.470   8.607  65.768  1.00  0.00    -0.085 C  
HETATM   14  C   UNL     1      -6.854   7.510  66.232  1.00  0.00    -0.061 C  
BRANCH  14  15
HETATM   15  C   UNL     1      -6.796   7.047  67.577  1.00  0.00    -0.073 A  
HETATM   16  C   UNL     1      -7.759   6.330  68.287  1.00  0.00    -0.104 A  
HETATM   17  N   UNL     1      -7.549   6.239  69.655  1.00  0.00    -0.092 NA 
HETATM   18  S   UNL     1      -5.513   7.448  68.665  1.00  0.00    -0.023 SA 
HETATM   19  C   UNL     1      -8.993   5.688  67.750  1.00  0.00    -0.107 C  
HETATM   20  C   UNL     1      -6.409   6.805  69.966  1.00  0.00    -0.039 A  
ENDBRANCH  14  15
ENDBRANCH   4  13
BRANCH   5  21
HETATM   21  N   UNL     1     -11.034  13.380  67.348  1.00  0.00    -0.268 N  
HETATM   22  C   UNL     1     -11.296  14.698  67.015  1.00  0.00    -0.355 C  
HETATM   23  O   UNL     1     -11.895  14.917  65.961  1.00  0.00    -0.257 OA 
HETATM   24  H   UNL     1     -11.549  12.708  66.778  1.00  0.00     0.000 HD 
BRANCH  22  25
HETATM   25  C   UNL     1     -11.055  15.880  67.934  1.00  0.00    -0.317 C  
BRANCH  25  26
HETATM   26  C   UNL     1     -10.103  16.955  67.555  1.00  0.00    -0.282 A  
HETATM   27  H2  UNL     1      -6.397  18.837  66.546  1.00  0.00     0.000 HD 
HETATM   28  H1  UNL     1      -6.165  17.276  67.339  1.00  0.00     0.000 HD 
HETATM   29  C   UNL     1     -10.508  18.173  67.023  1.00  0.00    -0.370 A  
HETATM   30  N   UNL     1      -8.714  16.848  67.671  1.00  0.00    -0.208 NA 
HETATM   31  S   UNL     1      -9.164  19.113  66.548  1.00  0.00    -0.352 SA 
HETATM   32  N   UNL     1      -6.787  18.008  66.994  1.00  0.00    -0.184 NA 
HETATM   33  C   UNL     1      -8.119  17.883  67.128  1.00  0.00    -0.212 A  
ENDBRANCH  25  26
BRANCH  25  34
HETATM   34  N   UNL     1     -11.716  16.141  69.028  1.00  0.00    -0.313 NA 
HETATM   35  H   UNL     1     -12.493  16.800  68.991  1.00  0.00     0.000 HD 
BRANCH  34  36
HETATM   36  O   UNL     1     -11.391  15.543  70.251  1.00  0.00    -0.273 OA 
HETATM   37  C   UNL     1     -12.210  14.528  70.794  1.00  0.00    -0.333 C  
ENDBRANCH  34  36
ENDBRANCH  25  34
ENDBRANCH  22  25
ENDBRANCH   5  21
TORSDOF 7
ENDMDL
MODEL      154
REMARK 921   NORMALIZED FREE ENERGY PREDICTED BY IDOCK:   -4.45 KCAL/MOL
REMARK 922        TOTAL FREE ENERGY PREDICTED BY IDOCK:   -7.78 KCAL/MOL
REMARK 923 INTER-LIGAND FREE ENERGY PREDICTED BY IDOCK:   -6.36 KCAL/MOL
REMARK 924 INTRA-LIGAND FREE ENERGY PREDICTED BY IDOCK:   -1.43 KCAL/MOL
REMARK 927      BINDING AFFINITY PREDICTED BY RF-SCORE:    0.00 PKD
ROOT
HETATM    1  C   UNL     1     -10.331   9.284  68.630  1.00  0.00    -0.205 C  
HETATM    2  S   UNL     1     -10.168   8.887  66.895  1.00  0.00    -0.268 SA 
HETATM    3  C   UNL     1     -10.737   7.206  67.081  1.00  0.00    -0.352 C  
HETATM    4  C   UNL     1     -10.249   6.444  68.307  1.00  0.00    -0.197 C  
HETATM    5  CA  UNL     1      -9.344  10.367  69.158  1.00  0.00    -0.199 C  
HETATM    6  CA  UNL     1      -9.704   7.000  69.420  1.00  0.00    -0.159 C  
HETATM    7  OXT UNL     1      -9.198   6.674  71.768  1.00  0.00    -0.149 OA 
HETATM    8  N   UNL     1      -9.578   8.366  69.476  1.00  0.00    -0.169 N  
HETATM    9  C   UNL     1      -9.192   6.231  70.627  1.00  0.00    -0.158 C  
HETATM   10  O   UNL     1      -8.878   9.402  71.491  1.00  0.00    -0.268 OA 
HETATM   11  C   UNL     1      -9.168   9.331  70.324  1.00  0.00    -0.237 C  
HETATM   12  O   UNL     1      -8.707   4.993  70.383  1.00  0.00    -0.104 OA 
ENDROOT
BRANCH   4  13
HETATM   13  C   UNL     1     -10.469   5.023  68.066  1.00  0.00    -0.026 C  
HETATM   14  C   UNL     1      -9.782   4.170  67.293  1.00  0.00    -0.214 C  
BRANCH  14  15
HETATM   15  C   UNL     1      -8.626   4.443  66.508  1.00  0.00    -0.112 A  
HETATM   16  C   UNL     1      -7.294   4.497  66.918  1.00  0.00    -0.081 A  
HETATM   17  N   UNL     1      -6.407   5.039  66.001  1.00  0.00    -0.038 NA 
HETATM   18  S   UNL     1      -8.698   4.929  64.849  1.00  0.00    -0.147 SA 
HETATM   19  C   UNL     1      -6.731   4.073  68.232  1.00  0.00    -0.047 C  
HETATM   20  C   UNL     1      -7.037   5.317  64.887  1.00  0.00    -0.058 A  
ENDBRANCH  14  15
ENDBRANCH   4  13
BRANCH   5  21
HETATM   21  N   UNL     1      -8.223  10.760  68.245  1.00  0.00    -0.118 N  
HETATM   22  C   UNL     1      -7.940  11.911  67.531  1.00  0.00    -0.155 C  
HETATM   23  O   UNL     1      -6.812  12.028  67.049  1.00  0.00    -0.143 OA 
HETATM   24  H   UNL     1      -7.523  10.026  68.125  1.00  0.00     0.000 HD 
BRANCH  22  25
HETATM   25  C   UNL     1      -8.967  12.960  67.151  1.00  0.00    -0.219 C  
BRANCH  25  26
HETATM   26  C   UNL     1      -9.910  12.728  66.027  1.00  0.00    -0.255 A  
HETATM   27  H2  UNL     1     -13.389  13.159  63.576  1.00  0.00     0.000 HD 
HETATM   28  H1  UNL     1     -13.618  13.830  65.193  1.00  0.00     0.000 HD 
HETATM   29  C   UNL     1      -9.544  12.082  64.852  1.00  0.00    -0.019 A  
HETATM   30  N   UNL     1     -11.242  13.150  66.023  1.00  0.00    -0.288 NA 
HETATM   31  S   UNL     1     -10.811  12.125  63.708  1.00  0.00    -0.476 SA 
HETATM   32  N   UNL     1     -13.033  13.343  64.514  1.00  0.00    -0.567 NA 
HETATM   33  C   UNL     1     -11.794  12.943  64.850  1.00  0.00    -0.366 A  
ENDBRANCH  25  26
BRANCH  25  34
HETATM   34  N   UNL     1      -9.215  14.058  67.812  1.00  0.00    -0.188 NA 
HETATM   35  H   UNL     1     -10.100  14.145  68.310  1.00  0.00     0.000 HD 
BRANCH  34  36
HETATM   36  O   UNL     1      -8.303  15.118  67.856  1.00  0.00    -0.141 OA 
HETATM   37  C   UNL     1      -8.009  15.861  66.690  1.00  0.00    -0.235 C  
ENDBRANCH  34  36
ENDBRANCH  25  34
ENDBRANCH  22  25
ENDBRANCH   5  21
TORSDOF 7
ENDMDL
MODEL      155
REMARK 921   NORMALIZED FREE ENERGY PREDICTED BY IDOCK:   -4.43 KCAL/MOL
REMARK 922        TOTAL FREE ENERGY PREDICTED BY IDOCK:   -7.76 KCAL/MOL
REMARK 923 INTER-LIGAND FREE ENERGY PREDICTED BY IDOCK:   -6.25 KCAL/MOL
REMARK 924 INTRA-LIGAND FREE ENERGY PREDICTED BY IDOCK:   -1.51 KCAL/MOL
REMARK 927      BINDING AFFINITY PREDICTED BY RF-SCORE:    0.00 PKD
ROOT
HETATM    1  C   UNL     1     -10.059  13.152  65.801  1.00  0.00    -0.285 C  
HETATM    2  S   UNL     1     -11.817  13.251  66.111  1.00  0.00    -0.410 SA 
HETATM    3  C   UNL     1     -11.729  14.845  66.909  1.00  0.00    -0.248 C  
HETATM    4  C   UNL     1     -10.557  15.081  67.853  1.00  0.00    -0.259 C  
HETATM    5  CA  UNL     1      -9.474  11.709  65.756  1.00  0.00    -0.226 C  
HETATM    6  CA  UNL     1      -9.416  14.344  67.898  1.00  0.00    -0.214 C  
HETATM    7  OXT UNL     1      -7.098  14.302  68.603  1.00  0.00    -0.098 OA 
HETATM    8  N   UNL     1      -9.278  13.295  67.024  1.00  0.00    -0.231 N  
HETATM    9  C   UNL     1      -8.263  14.568  68.864  1.00  0.00    -0.114 C  
HETATM   10  O   UNL     1      -7.209  12.145  66.884  1.00  0.00    -0.107 OA 
HETATM   11  C   UNL     1      -8.376  12.357  66.672  1.00  0.00     0.016 C  
HETATM   12  O   UNL     1      -8.587  15.086  70.070  1.00  0.00     0.100 OA 
ENDROOT
BRANCH   4  13
HETATM   13  C   UNL     1     -10.883  16.228  68.691  1.00  0.00    -0.322 C  
HETATM   14  C   UNL     1     -10.368  17.466  68.684  1.00  0.00    -0.364 C  
BRANCH  14  15
HETATM   15  C   UNL     1      -9.361  17.986  67.823  1.00  0.00    -0.263 A  
HETATM   16  C   UNL     1      -9.512  18.532  66.548  1.00  0.00    -0.320 A  
HETATM   17  N   UNL     1      -8.337  18.719  65.834  1.00  0.00    -0.468 NA 
HETATM   18  S   UNL     1      -7.669  17.886  68.169  1.00  0.00    -0.264 SA 
HETATM   19  C   UNL     1     -10.783  18.901  65.862  1.00  0.00    -0.366 C  
HETATM   20  C   UNL     1      -7.310  18.396  66.581  1.00  0.00    -0.225 A  
ENDBRANCH  14  15
ENDBRANCH   4  13
BRANCH   5  21
HETATM   21  N   UNL     1     -10.371  10.604  66.224  1.00  0.00    -0.245 N  
HETATM   22  C   UNL     1     -10.163   9.482  67.008  1.00  0.00    -0.255 C  
HETATM   23  O   UNL     1     -11.154   8.876  67.420  1.00  0.00    -0.008 OA 
HETATM   24  H   UNL     1     -11.333  10.697  65.897  1.00  0.00     0.000 HD 
BRANCH  22  25
HETATM   25  C   UNL     1      -8.810   8.843  67.252  1.00  0.00    -0.128 C  
BRANCH  25  26
HETATM   26  C   UNL     1      -8.037   8.246  66.133  1.00  0.00    -0.111 A  
HETATM   27  H2  UNL     1      -6.819   7.408  62.119  1.00  0.00     0.000 HD 
HETATM   28  H1  UNL     1      -8.437   8.110  62.199  1.00  0.00     0.000 HD 
HETATM   29  C   UNL     1      -6.796   7.644  66.304  1.00  0.00    -0.062 A  
HETATM   30  N   UNL     1      -8.462   8.246  64.801  1.00  0.00    -0.118 NA 
HETATM   31  S   UNL     1      -6.112   7.210  64.802  1.00  0.00    -0.037 SA 
HETATM   32  N   UNL     1      -7.600   7.767  62.669  1.00  0.00    -0.111 NA 
HETATM   33  C   UNL     1      -7.520   7.787  64.011  1.00  0.00    -0.103 A  
ENDBRANCH  25  26
BRANCH  25  34
HETATM   34  N   UNL     1      -8.150   8.866  68.378  1.00  0.00    -0.108 NA 
HETATM   35  H   UNL     1      -7.344   9.484  68.466  1.00  0.00     0.000 HD 
BRANCH  34  36
HETATM   36  O   UNL     1      -8.515   8.067  69.467  1.00  0.00    -0.128 OA 
HETATM   37  C   UNL     1      -9.567   8.460  70.324  1.00  0.00    -0.165 C  
ENDBRANCH  34  36
ENDBRANCH  25  34
ENDBRANCH  22  25
ENDBRANCH   5  21
TORSDOF 7
ENDMDL
MODEL      156
REMARK 921   NORMALIZED FREE ENERGY PREDICTED BY IDOCK:   -4.43 KCAL/MOL
REMARK 922        TOTAL FREE ENERGY PREDICTED BY IDOCK:   -7.76 KCAL/MOL
REMARK 923 INTER-LIGAND FREE ENERGY PREDICTED BY IDOCK:   -5.83 KCAL/MOL
REMARK 924 INTRA-LIGAND FREE ENERGY PREDICTED BY IDOCK:   -1.93 KCAL/MOL
REMARK 927      BINDING AFFINITY PREDICTED BY RF-SCORE:    0.00 PKD
ROOT
HETATM    1  C   UNL     1      -9.590   4.573  69.150  1.00  0.00    -0.180 C  
HETATM    2  S   UNL     1      -8.118   4.549  70.164  1.00  0.00    -0.063 SA 
HETATM    3  C   UNL     1      -8.397   6.169  70.856  1.00  0.00    -0.127 C  
HETATM    4  C   UNL     1      -8.911   7.245  69.909  1.00  0.00    -0.142 C  
HETATM    5  CA  UNL     1      -9.504   3.740  67.837  1.00  0.00    -0.170 C  
HETATM    6  CA  UNL     1      -9.482   7.026  68.695  1.00  0.00    -0.135 C  
HETATM    7  OXT UNL     1     -10.892   7.955  66.958  1.00  0.00    -0.305 OA 
HETATM    8  N   UNL     1      -9.626   5.730  68.264  1.00  0.00    -0.117 N  
HETATM    9  C   UNL     1      -9.965   8.107  67.742  1.00  0.00    -0.181 C  
HETATM   10  O   UNL     1     -10.844   5.280  66.279  1.00  0.00    -0.285 OA 
HETATM   11  C   UNL     1     -10.135   5.040  67.224  1.00  0.00    -0.184 C  
HETATM   12  O   UNL     1      -9.304   9.285  67.792  1.00  0.00    -0.129 OA 
ENDROOT
BRANCH   4  13
HETATM   13  C   UNL     1      -8.679   8.541  70.535  1.00  0.00    -0.163 C  
HETATM   14  C   UNL     1      -9.551   9.381  71.110  1.00  0.00    -0.220 C  
BRANCH  14  15
HETATM   15  C   UNL     1     -10.955   9.205  71.270  1.00  0.00    -0.330 A  
HETATM   16  C   UNL     1     -11.989   9.964  70.721  1.00  0.00    -0.323 A  
HETATM   17  N   UNL     1     -13.249   9.729  71.251  1.00  0.00    -0.384 NA 
HETATM   18  S   UNL     1     -11.651   8.049  72.351  1.00  0.00    -0.401 SA 
HETATM   19  C   UNL     1     -11.887  11.011  69.665  1.00  0.00    -0.414 C  
HETATM   20  C   UNL     1     -13.187   8.757  72.127  1.00  0.00    -0.414 A  
ENDBRANCH  14  15
ENDBRANCH   4  13
BRANCH   5  21
HETATM   21  N   UNL     1      -8.148   3.235  67.446  1.00  0.00    -0.081 N  
HETATM   22  C   UNL     1      -7.388   3.353  66.295  1.00  0.00    -0.072 C  
HETATM   23  O   UNL     1      -6.201   3.027  66.353  1.00  0.00    -0.024 OA 
HETATM   24  H   UNL     1      -7.692   2.692  68.180  1.00  0.00     0.000 HD 
BRANCH  22  25
HETATM   25  C   UNL     1      -7.948   3.687  64.926  1.00  0.00    -0.090 C  
BRANCH  25  26
HETATM   26  C   UNL     1      -7.661   4.997  64.287  1.00  0.00    -0.085 A  
HETATM   27  H2  UNL     1      -7.028   9.211  63.922  1.00  0.00     0.000 HD 
HETATM   28  H1  UNL     1      -7.855   8.782  65.422  1.00  0.00     0.000 HD 
HETATM   29  C   UNL     1      -7.078   5.116  63.031  1.00  0.00    -0.042 A  
HETATM   30  N   UNL     1      -7.923   6.233  64.883  1.00  0.00    -0.120 NA 
HETATM   31  S   UNL     1      -6.738   6.748  62.664  1.00  0.00    -0.044 SA 
HETATM   32  N   UNL     1      -7.440   8.506  64.532  1.00  0.00    -0.100 NA 
HETATM   33  C   UNL     1      -7.435   7.214  64.160  1.00  0.00    -0.099 A  
ENDBRANCH  25  26
BRANCH  25  34
HETATM   34  N   UNL     1      -8.590   2.863  64.144  1.00  0.00    -0.089 NA 
HETATM   35  H   UNL     1      -8.064   2.318  63.462  1.00  0.00     0.000 HD 
BRANCH  34  36
HETATM   36  O   UNL     1      -9.979   2.706  64.214  1.00  0.00    -0.138 OA 
HETATM   37  C   UNL     1     -10.811   3.219  63.193  1.00  0.00    -0.184 C  
ENDBRANCH  34  36
ENDBRANCH  25  34
ENDBRANCH  22  25
ENDBRANCH   5  21
TORSDOF 7
ENDMDL
MODEL      157
REMARK 921   NORMALIZED FREE ENERGY PREDICTED BY IDOCK:   -4.42 KCAL/MOL
REMARK 922        TOTAL FREE ENERGY PREDICTED BY IDOCK:   -7.75 KCAL/MOL
REMARK 923 INTER-LIGAND FREE ENERGY PREDICTED BY IDOCK:   -6.24 KCAL/MOL
REMARK 924 INTRA-LIGAND FREE ENERGY PREDICTED BY IDOCK:   -1.51 KCAL/MOL
REMARK 927      BINDING AFFINITY PREDICTED BY RF-SCORE:    0.00 PKD
ROOT
HETATM    1  C   UNL     1      -8.719   8.876  65.223  1.00  0.00    -0.186 C  
HETATM    2  S   UNL     1      -7.104   9.591  64.947  1.00  0.00    -0.113 SA 
HETATM    3  C   UNL     1      -6.247   8.026  64.994  1.00  0.00    -0.045 C  
HETATM    4  C   UNL     1      -6.702   7.022  66.045  1.00  0.00    -0.053 C  
HETATM    5  CA  UNL     1      -9.736   9.801  65.955  1.00  0.00    -0.266 C  
HETATM    6  CA  UNL     1      -7.882   7.060  66.718  1.00  0.00    -0.107 C  
HETATM    7  OXT UNL     1      -9.484   5.776  68.007  1.00  0.00    -0.108 OA 
HETATM    8  N   UNL     1      -8.762   8.076  66.442  1.00  0.00    -0.143 N  
HETATM    9  C   UNL     1      -8.316   6.070  67.788  1.00  0.00    -0.112 C  
HETATM   10  O   UNL     1     -10.934   8.044  67.394  1.00  0.00    -0.151 OA 
HETATM   11  C   UNL     1      -9.996   8.496  66.788  1.00  0.00    -0.281 C  
HETATM   12  O   UNL     1      -7.327   5.510  68.519  1.00  0.00    -0.073 OA 
ENDROOT
BRANCH   4  13
HETATM   13  C   UNL     1      -5.650   6.026  66.196  1.00  0.00    -0.016 C  
HETATM   14  C   UNL     1      -5.494   4.846  65.578  1.00  0.00    -0.013 C  
BRANCH  14  15
HETATM   15  C   UNL     1      -6.331   4.266  64.583  1.00  0.00    -0.034 A  
HETATM   16  C   UNL     1      -7.341   3.318  64.748  1.00  0.00    -0.071 A  
HETATM   17  N   UNL     1      -7.816   2.740  63.581  1.00  0.00    -0.072 NA 
HETATM   18  S   UNL     1      -6.125   4.543  62.888  1.00  0.00    -0.018 SA 
HETATM   19  C   UNL     1      -7.936   2.838  66.028  1.00  0.00    -0.082 C  
HETATM   20  C   UNL     1      -7.236   3.295  62.545  1.00  0.00    -0.040 A  
ENDBRANCH  14  15
ENDBRANCH   4  13
BRANCH   5  21
HETATM   21  N   UNL     1      -9.190  11.056  66.563  1.00  0.00    -0.167 N  
HETATM   22  C   UNL     1      -9.719  11.999  67.428  1.00  0.00    -0.182 C  
HETATM   23  O   UNL     1      -8.943  12.806  67.944  1.00  0.00    -0.170 OA 
HETATM   24  H   UNL     1      -8.230  11.258  66.281  1.00  0.00     0.000 HD 
BRANCH  22  25
HETATM   25  C   UNL     1     -11.202  12.222  67.654  1.00  0.00    -0.290 C  
BRANCH  25  26
HETATM   26  C   UNL     1     -11.702  12.760  68.945  1.00  0.00    -0.326 A  
HETATM   27  H2  UNL     1     -13.427  15.515  71.726  1.00  0.00     0.000 HD 
HETATM   28  H1  UNL     1     -12.876  16.307  70.247  1.00  0.00     0.000 HD 
HETATM   29  C   UNL     1     -11.991  11.955  70.040  1.00  0.00    -0.332 A  
HETATM   30  N   UNL     1     -11.952  14.114  69.184  1.00  0.00    -0.343 NA 
HETATM   31  S   UNL     1     -12.696  12.865  71.301  1.00  0.00    -0.183 SA 
HETATM   32  N   UNL     1     -12.978  15.463  70.811  1.00  0.00    -0.465 NA 
HETATM   33  C   UNL     1     -12.524  14.284  70.353  1.00  0.00    -0.362 A  
ENDBRANCH  25  26
BRANCH  25  34
HETATM   34  N   UNL     1     -12.135  12.104  66.750  1.00  0.00    -0.565 NA 
HETATM   35  H   UNL     1     -12.811  11.346  66.834  1.00  0.00     0.000 HD 
BRANCH  34  36
HETATM   36  O   UNL     1     -12.235  12.986  65.668  1.00  0.00    -0.429 OA 
HETATM   37  C   UNL     1     -12.514  12.501  64.370  1.00  0.00    -0.446 C  
ENDBRANCH  34  36
ENDBRANCH  25  34
ENDBRANCH  22  25
ENDBRANCH   5  21
TORSDOF 7
ENDMDL
MODEL      158
REMARK 921   NORMALIZED FREE ENERGY PREDICTED BY IDOCK:   -4.41 KCAL/MOL
REMARK 922        TOTAL FREE ENERGY PREDICTED BY IDOCK:   -7.73 KCAL/MOL
REMARK 923 INTER-LIGAND FREE ENERGY PREDICTED BY IDOCK:   -6.80 KCAL/MOL
REMARK 924 INTRA-LIGAND FREE ENERGY PREDICTED BY IDOCK:   -0.93 KCAL/MOL
REMARK 927      BINDING AFFINITY PREDICTED BY RF-SCORE:    0.00 PKD
ROOT
HETATM    1  C   UNL     1      -8.801   6.501  67.516  1.00  0.00    -0.112 C  
HETATM    2  S   UNL     1     -10.578   6.330  67.610  1.00  0.00    -0.307 SA 
HETATM    3  C   UNL     1     -10.909   8.004  67.089  1.00  0.00    -0.080 C  
HETATM    4  C   UNL     1     -10.003   9.093  67.651  1.00  0.00    -0.245 C  
HETATM    5  CA  UNL     1      -7.995   5.602  68.501  1.00  0.00    -0.100 C  
HETATM    6  CA  UNL     1      -8.791   8.893  68.232  1.00  0.00    -0.134 C  
HETATM    7  OXT UNL     1      -6.684   9.919  68.852  1.00  0.00    -0.052 OA 
HETATM    8  N   UNL     1      -8.314   7.610  68.329  1.00  0.00    -0.124 N  
HETATM    9  C   UNL     1      -7.906   9.983  68.817  1.00  0.00    -0.094 C  
HETATM   10  O   UNL     1      -6.101   7.232  69.095  1.00  0.00    -0.029 OA 
HETATM   11  C   UNL     1      -7.221   6.944  68.754  1.00  0.00    -0.091 C  
HETATM   12  O   UNL     1      -8.543  11.064  69.319  1.00  0.00    -0.061 OA 
ENDROOT
BRANCH   4  13
HETATM   13  C   UNL     1     -10.669  10.374  67.453  1.00  0.00    -0.338 C  
HETATM   14  C   UNL     1     -10.648  11.195  66.394  1.00  0.00    -0.315 C  
BRANCH  14  15
HETATM   15  C   UNL     1      -9.964  11.007  65.159  1.00  0.00    -0.278 A  
HETATM   16  C   UNL     1     -10.442  11.217  63.865  1.00  0.00    -0.391 A  
HETATM   17  N   UNL     1      -9.653  10.706  62.846  1.00  0.00    -0.323 NA 
HETATM   18  S   UNL     1      -8.388  10.303  65.043  1.00  0.00    -0.169 SA 
HETATM   19  C   UNL     1     -11.709  11.892  63.463  1.00  0.00    -0.550 C  
HETATM   20  C   UNL     1      -8.559  10.189  63.349  1.00  0.00    -0.199 A  
ENDBRANCH  14  15
ENDBRANCH   4  13
BRANCH   5  21
HETATM   21  N   UNL     1      -8.778   4.904  69.570  1.00  0.00    -0.086 N  
HETATM   22  C   UNL     1      -9.555   5.354  70.624  1.00  0.00    -0.172 C  
HETATM   23  O   UNL     1     -10.275   4.535  71.199  1.00  0.00    -0.174 OA 
HETATM   24  H   UNL     1      -8.728   3.886  69.509  1.00  0.00     0.000 HD 
BRANCH  22  25
HETATM   25  C   UNL     1      -9.458   6.739  71.233  1.00  0.00    -0.165 C  
BRANCH  25  26
HETATM   26  C   UNL     1     -10.644   7.632  71.283  1.00  0.00    -0.219 A  
HETATM   27  H2  UNL     1     -14.719   8.840  71.767  1.00  0.00     0.000 HD 
HETATM   28  H1  UNL     1     -14.558   7.100  71.517  1.00  0.00     0.000 HD 
HETATM   29  C   UNL     1     -10.548   9.015  71.389  1.00  0.00    -0.323 A  
HETATM   30  N   UNL     1     -11.966   7.181  71.253  1.00  0.00    -0.318 NA 
HETATM   31  S   UNL     1     -12.088   9.724  71.586  1.00  0.00    -0.354 SA 
HETATM   32  N   UNL     1     -14.133   8.024  71.592  1.00  0.00    -0.421 NA 
HETATM   33  C   UNL     1     -12.803   8.170  71.460  1.00  0.00    -0.301 A  
ENDBRANCH  25  26
BRANCH  25  34
HETATM   34  N   UNL     1      -8.424   7.222  71.865  1.00  0.00    -0.107 NA 
HETATM   35  H   UNL     1      -8.233   8.222  71.809  1.00  0.00     0.000 HD 
BRANCH  34  36
HETATM   36  O   UNL     1      -7.569   6.408  72.617  1.00  0.00    -0.101 OA 
HETATM   37  C   UNL     1      -6.618   6.981  73.490  1.00  0.00    -0.066 C  
ENDBRANCH  34  36
ENDBRANCH  25  34
ENDBRANCH  22  25
ENDBRANCH   5  21
TORSDOF 7
ENDMDL
MODEL      159
REMARK 921   NORMALIZED FREE ENERGY PREDICTED BY IDOCK:   -4.40 KCAL/MOL
REMARK 922        TOTAL FREE ENERGY PREDICTED BY IDOCK:   -7.71 KCAL/MOL
REMARK 923 INTER-LIGAND FREE ENERGY PREDICTED BY IDOCK:   -6.30 KCAL/MOL
REMARK 924 INTRA-LIGAND FREE ENERGY PREDICTED BY IDOCK:   -1.42 KCAL/MOL
REMARK 927      BINDING AFFINITY PREDICTED BY RF-SCORE:    0.00 PKD
ROOT
HETATM    1  C   UNL     1      -9.344  10.775  68.736  1.00  0.00    -0.182 C  
HETATM    2  S   UNL     1      -8.709  10.288  67.137  1.00  0.00    -0.128 SA 
HETATM    3  C   UNL     1      -8.661  11.952  66.492  1.00  0.00    -0.158 C  
HETATM    4  C   UNL     1      -9.833  12.861  66.841  1.00  0.00    -0.235 C  
HETATM    5  CA  UNL     1     -10.219   9.706  69.455  1.00  0.00    -0.218 C  
HETATM    6  CA  UNL     1     -10.728  12.650  67.841  1.00  0.00    -0.218 C  
HETATM    7  OXT UNL     1     -12.378  13.678  69.288  1.00  0.00    -0.288 OA 
HETATM    8  N   UNL     1     -10.585  11.533  68.625  1.00  0.00    -0.201 N  
HETATM    9  C   UNL     1     -11.913  13.547  68.164  1.00  0.00    -0.341 C  
HETATM   10  O   UNL     1     -11.958  11.253  70.539  1.00  0.00    -0.343 OA 
HETATM   11  C   UNL     1     -11.153  10.944  69.698  1.00  0.00    -0.266 C  
HETATM   12  O   UNL     1     -12.455  14.217  67.123  1.00  0.00    -0.266 OA 
ENDROOT
BRANCH   4  13
HETATM   13  C   UNL     1      -9.818  13.985  65.914  1.00  0.00    -0.302 C  
HETATM   14  C   UNL     1      -9.251  15.193  66.043  1.00  0.00    -0.273 C  
BRANCH  14  15
HETATM   15  C   UNL     1      -8.490  15.685  67.141  1.00  0.00    -0.207 A  
HETATM   16  C   UNL     1      -8.874  16.606  68.116  1.00  0.00    -0.206 A  
HETATM   17  N   UNL     1      -7.849  17.099  68.910  1.00  0.00    -0.246 NA 
HETATM   18  S   UNL     1      -6.816  15.317  67.378  1.00  0.00    -0.083 SA 
HETATM   19  C   UNL     1     -10.242  17.140  68.372  1.00  0.00    -0.340 C  
HETATM   20  C   UNL     1      -6.723  16.505  68.599  1.00  0.00    -0.152 A  
ENDBRANCH  14  15
ENDBRANCH   4  13
BRANCH   5  21
HETATM   21  N   UNL     1     -10.639   8.520  68.642  1.00  0.00    -0.369 N  
HETATM   22  C   UNL     1     -10.613   7.155  68.872  1.00  0.00    -0.201 C  
HETATM   23  O   UNL     1     -11.251   6.430  68.106  1.00  0.00    -0.312 OA 
HETATM   24  H   UNL     1     -11.023   8.770  67.730  1.00  0.00     0.000 HD 
BRANCH  22  25
HETATM   25  C   UNL     1      -9.720   6.472  69.889  1.00  0.00    -0.164 C  
BRANCH  25  26
HETATM   26  C   UNL     1     -10.233   6.126  71.240  1.00  0.00    -0.207 A  
HETATM   27  H2  UNL     1     -12.532   4.146  74.254  1.00  0.00     0.000 HD 
HETATM   28  H1  UNL     1     -13.214   3.933  72.639  1.00  0.00     0.000 HD 
HETATM   29  C   UNL     1      -9.576   6.479  72.413  1.00  0.00    -0.145 A  
HETATM   30  N   UNL     1     -11.404   5.399  71.470  1.00  0.00     0.038 NA 
HETATM   31  S   UNL     1     -10.341   5.791  73.775  1.00  0.00    -0.276 SA 
HETATM   32  N   UNL     1     -12.505   4.335  73.252  1.00  0.00     0.466 NA 
HETATM   33  C   UNL     1     -11.534   5.114  72.744  1.00  0.00    -0.210 A  
ENDBRANCH  25  26
BRANCH  25  34
HETATM   34  N   UNL     1      -8.519   6.015  69.662  1.00  0.00    -0.124 NA 
HETATM   35  H   UNL     1      -7.716   6.566  69.964  1.00  0.00     0.000 HD 
BRANCH  34  36
HETATM   36  O   UNL     1      -8.300   4.793  69.017  1.00  0.00    -0.081 OA 
HETATM   37  C   UNL     1      -7.049   4.509  68.424  1.00  0.00    -0.056 C  
ENDBRANCH  34  36
ENDBRANCH  25  34
ENDBRANCH  22  25
ENDBRANCH   5  21
TORSDOF 7
ENDMDL
MODEL      160
REMARK 921   NORMALIZED FREE ENERGY PREDICTED BY IDOCK:   -4.40 KCAL/MOL
REMARK 922        TOTAL FREE ENERGY PREDICTED BY IDOCK:   -7.71 KCAL/MOL
REMARK 923 INTER-LIGAND FREE ENERGY PREDICTED BY IDOCK:   -6.25 KCAL/MOL
REMARK 924 INTRA-LIGAND FREE ENERGY PREDICTED BY IDOCK:   -1.46 KCAL/MOL
REMARK 927      BINDING AFFINITY PREDICTED BY RF-SCORE:    0.00 PKD
ROOT
HETATM    1  C   UNL     1     -10.519   8.119  69.612  1.00  0.00    -0.224 C  
HETATM    2  S   UNL     1     -10.959   6.449  69.151  1.00  0.00    -0.366 SA 
HETATM    3  C   UNL     1     -10.552   5.752  70.743  1.00  0.00    -0.269 C  
HETATM    4  C   UNL     1      -9.295   6.277  71.424  1.00  0.00    -0.160 C  
HETATM    5  CA  UNL     1     -10.020   9.020  68.444  1.00  0.00    -0.180 C  
HETATM    6  CA  UNL     1      -8.646   7.429  71.111  1.00  0.00    -0.122 C  
HETATM    7  OXT UNL     1      -7.090   9.116  71.890  1.00  0.00    -0.314 OA 
HETATM    8  N   UNL     1      -9.149   8.210  70.101  1.00  0.00    -0.147 N  
HETATM    9  C   UNL     1      -7.375   7.931  71.777  1.00  0.00    -0.073 C  
HETATM   10  O   UNL     1      -8.209  10.349  69.689  1.00  0.00    -0.155 OA 
HETATM   11  C   UNL     1      -8.906   9.386  69.487  1.00  0.00    -0.162 C  
HETATM   12  O   UNL     1      -6.536   6.984  72.253  1.00  0.00    -0.056 OA 
ENDROOT
BRANCH   4  13
HETATM   13  C   UNL     1      -8.919   5.325  72.463  1.00  0.00    -0.134 C  
HETATM   14  C   UNL     1      -8.489   4.060  72.349  1.00  0.00    -0.101 C  
BRANCH  14  15
HETATM   15  C   UNL     1      -8.272   3.318  71.154  1.00  0.00    -0.062 A  
HETATM   16  C   UNL     1      -7.246   3.465  70.220  1.00  0.00    -0.041 A  
HETATM   17  N   UNL     1      -7.424   2.787  69.023  1.00  0.00    -0.047 NA 
HETATM   18  S   UNL     1      -9.388   2.145  70.546  1.00  0.00    -0.105 SA 
HETATM   19  C   UNL     1      -6.009   4.287  70.350  1.00  0.00    -0.017 C  
HETATM   20  C   UNL     1      -8.524   2.076  69.077  1.00  0.00    -0.058 A  
ENDBRANCH  14  15
ENDBRANCH   4  13
BRANCH   5  21
HETATM   21  N   UNL     1      -9.721   8.335  67.145  1.00  0.00    -0.177 N  
HETATM   22  C   UNL     1      -9.095   8.743  65.980  1.00  0.00    -0.213 C  
HETATM   23  O   UNL     1      -8.783   7.877  65.160  1.00  0.00    -0.086 OA 
HETATM   24  H   UNL     1     -10.047   7.369  67.113  1.00  0.00     0.000 HD 
BRANCH  22  25
HETATM   25  C   UNL     1      -8.919  10.190  65.560  1.00  0.00    -0.172 C  
BRANCH  25  26
HETATM   26  C   UNL     1     -10.073  10.983  65.065  1.00  0.00    -0.296 A  
HETATM   27  H2  UNL     1     -13.353  13.728  65.123  1.00  0.00     0.000 HD 
HETATM   28  H1  UNL     1     -12.881  13.209  66.743  1.00  0.00     0.000 HD 
HETATM   29  C   UNL     1     -10.322  11.198  63.715  1.00  0.00    -0.386 A  
HETATM   30  N   UNL     1     -11.007  11.609  65.896  1.00  0.00    -0.294 NA 
HETATM   31  S   UNL     1     -11.624  12.279  63.495  1.00  0.00    -0.481 SA 
HETATM   32  N   UNL     1     -12.761  13.163  65.731  1.00  0.00    -0.433 NA 
HETATM   33  C   UNL     1     -11.826  12.358  65.196  1.00  0.00    -0.388 A  
ENDBRANCH  25  26
BRANCH  25  34
HETATM   34  N   UNL     1      -7.833  10.898  65.706  1.00  0.00    -0.317 NA 
HETATM   35  H   UNL     1      -7.891  11.801  66.175  1.00  0.00     0.000 HD 
BRANCH  34  36
HETATM   36  O   UNL     1      -6.591  10.455  65.237  1.00  0.00    -0.123 OA 
HETATM   37  C   UNL     1      -5.434  10.585  66.038  1.00  0.00    -0.091 C  
ENDBRANCH  34  36
ENDBRANCH  25  34
ENDBRANCH  22  25
ENDBRANCH   5  21
TORSDOF 7
ENDMDL
MODEL      161
REMARK 921   NORMALIZED FREE ENERGY PREDICTED BY IDOCK:   -4.39 KCAL/MOL
REMARK 922        TOTAL FREE ENERGY PREDICTED BY IDOCK:   -7.70 KCAL/MOL
REMARK 923 INTER-LIGAND FREE ENERGY PREDICTED BY IDOCK:   -6.67 KCAL/MOL
REMARK 924 INTRA-LIGAND FREE ENERGY PREDICTED BY IDOCK:   -1.03 KCAL/MOL
REMARK 927      BINDING AFFINITY PREDICTED BY RF-SCORE:    0.00 PKD
ROOT
HETATM    1  C   UNL     1      -7.657  13.716  67.361  1.00  0.00    -0.130 C  
HETATM    2  S   UNL     1      -7.253  13.733  69.103  1.00  0.00     0.047 SA 
HETATM    3  C   UNL     1      -7.204  11.956  69.254  1.00  0.00     0.039 C  
HETATM    4  C   UNL     1      -8.276  11.170  68.509  1.00  0.00    -0.149 C  
HETATM    5  CA  UNL     1      -8.486  14.935  66.861  1.00  0.00    -0.223 C  
HETATM    6  CA  UNL     1      -9.048  11.647  67.498  1.00  0.00    -0.172 C  
HETATM    7  OXT UNL     1     -10.451  11.055  65.612  1.00  0.00    -0.254 OA 
HETATM    8  N   UNL     1      -8.863  12.943  67.086  1.00  0.00    -0.204 N  
HETATM    9  C   UNL     1     -10.137  10.865  66.779  1.00  0.00    -0.216 C  
HETATM   10  O   UNL     1      -9.997  13.741  65.162  1.00  0.00    -0.297 OA 
HETATM   11  C   UNL     1      -9.320  13.807  66.157  1.00  0.00    -0.080 C  
HETATM   12  O   UNL     1     -10.772   9.920  67.507  1.00  0.00    -0.258 OA 
ENDROOT
BRANCH   4  13
HETATM   13  C   UNL     1      -8.322   9.829  69.077  1.00  0.00    -0.127 C  
HETATM   14  C   UNL     1      -7.792   8.686  68.616  1.00  0.00    -0.107 C  
BRANCH  14  15
HETATM   15  C   UNL     1      -7.019   8.499  67.435  1.00  0.00    -0.078 A  
HETATM   16  C   UNL     1      -7.436   8.008  66.197  1.00  0.00    -0.075 A  
HETATM   17  N   UNL     1      -6.421   7.687  65.308  1.00  0.00    -0.041 NA 
HETATM   18  S   UNL     1      -5.304   8.719  67.376  1.00  0.00    -0.034 SA 
HETATM   19  C   UNL     1      -8.834   7.760  65.743  1.00  0.00    -0.141 C  
HETATM   20  C   UNL     1      -5.261   8.003  65.829  1.00  0.00    -0.028 A  
ENDBRANCH  14  15
ENDBRANCH   4  13
BRANCH   5  21
HETATM   21  N   UNL     1      -9.063  15.834  67.911  1.00  0.00    -0.185 N  
HETATM   22  C   UNL     1     -10.157  15.729  68.753  1.00  0.00    -0.215 C  
HETATM   23  O   UNL     1     -10.246  16.531  69.684  1.00  0.00    -0.238 OA 
HETATM   24  H   UNL     1      -8.543  16.704  68.030  1.00  0.00     0.000 HD 
BRANCH  22  25
HETATM   25  C   UNL     1     -11.342  14.813  68.512  1.00  0.00    -0.290 C  
BRANCH  25  26
HETATM   26  C   UNL     1     -11.853  13.931  69.593  1.00  0.00    -0.327 A  
HETATM   27  H2  UNL     1     -14.147  12.680  72.979  1.00  0.00     0.000 HD 
HETATM   28  H1  UNL     1     -14.110  14.436  72.803  1.00  0.00     0.000 HD 
HETATM   29  C   UNL     1     -11.689  12.551  69.585  1.00  0.00    -0.302 A  
HETATM   30  N   UNL     1     -12.562  14.388  70.706  1.00  0.00    -0.338 NA 
HETATM   31  S   UNL     1     -12.531  11.827  70.882  1.00  0.00    -0.238 SA 
HETATM   32  N   UNL     1     -13.822  13.511  72.485  1.00  0.00    -0.744 NA 
HETATM   33  C   UNL     1     -13.016  13.382  71.417  1.00  0.00    -0.328 A  
ENDBRANCH  25  26
BRANCH  25  34
HETATM   34  N   UNL     1     -12.085  14.796  67.440  1.00  0.00    -0.501 NA 
HETATM   35  H   UNL     1     -12.327  15.680  66.993  1.00  0.00     0.000 HD 
BRANCH  34  36
HETATM   36  O   UNL     1     -12.560  13.603  66.885  1.00  0.00    -0.233 OA 
HETATM   37  C   UNL     1     -13.026  13.566  65.552  1.00  0.00    -0.209 C  
ENDBRANCH  34  36
ENDBRANCH  25  34
ENDBRANCH  22  25
ENDBRANCH   5  21
TORSDOF 7
ENDMDL
MODEL      162
REMARK 921   NORMALIZED FREE ENERGY PREDICTED BY IDOCK:   -4.39 KCAL/MOL
REMARK 922        TOTAL FREE ENERGY PREDICTED BY IDOCK:   -7.69 KCAL/MOL
REMARK 923 INTER-LIGAND FREE ENERGY PREDICTED BY IDOCK:   -6.34 KCAL/MOL
REMARK 924 INTRA-LIGAND FREE ENERGY PREDICTED BY IDOCK:   -1.36 KCAL/MOL
REMARK 927      BINDING AFFINITY PREDICTED BY RF-SCORE:    0.00 PKD
ROOT
HETATM    1  C   UNL     1      -8.888   8.867  67.382  1.00  0.00    -0.129 C  
HETATM    2  S   UNL     1      -9.369   9.293  69.050  1.00  0.00    -0.154 SA 
HETATM    3  C   UNL     1      -9.363  11.053  68.754  1.00  0.00    -0.179 C  
HETATM    4  C   UNL     1      -8.232  11.603  67.895  1.00  0.00    -0.141 C  
HETATM    5  CA  UNL     1      -8.080   7.543  67.243  1.00  0.00    -0.115 C  
HETATM    6  CA  UNL     1      -7.432  10.873  67.074  1.00  0.00    -0.122 C  
HETATM    7  OXT UNL     1      -5.927  10.944  65.177  1.00  0.00    -0.057 OA 
HETATM    8  N   UNL     1      -7.644   9.519  66.988  1.00  0.00    -0.091 N  
HETATM    9  C   UNL     1      -6.286  11.426  66.243  1.00  0.00     0.013 C  
HETATM   10  O   UNL     1      -6.454   8.242  65.382  1.00  0.00    -0.051 OA 
HETATM   11  C   UNL     1      -7.176   8.442  66.326  1.00  0.00    -0.078 C  
HETATM   12  O   UNL     1      -5.652  12.508  66.746  1.00  0.00    -0.300 OA 
ENDROOT
BRANCH   4  13
HETATM   13  C   UNL     1      -8.165  13.043  68.114  1.00  0.00    -0.157 C  
HETATM   14  C   UNL     1      -8.960  14.017  67.650  1.00  0.00    -0.194 C  
BRANCH  14  15
HETATM   15  C   UNL     1     -10.107  13.882  66.818  1.00  0.00    -0.265 A  
HETATM   16  C   UNL     1     -11.412  13.557  67.190  1.00  0.00    -0.338 A  
HETATM   17  N   UNL     1     -12.270  13.240  66.148  1.00  0.00    -0.420 NA 
HETATM   18  S   UNL     1     -10.043  13.956  65.091  1.00  0.00    -0.242 SA 
HETATM   19  C   UNL     1     -11.970  13.481  68.570  1.00  0.00    -0.379 C  
HETATM   20  C   UNL     1     -11.653  13.398  65.003  1.00  0.00    -0.317 A  
ENDBRANCH  14  15
ENDBRANCH   4  13
BRANCH   5  21
HETATM   21  N   UNL     1      -7.582   6.920  68.511  1.00  0.00    -0.109 N  
HETATM   22  C   UNL     1      -8.077   5.925  69.337  1.00  0.00    -0.109 C  
HETATM   23  O   UNL     1      -7.322   5.458  70.191  1.00  0.00    -0.064 OA 
HETATM   24  H   UNL     1      -6.696   7.310  68.833  1.00  0.00     0.000 HD 
BRANCH  22  25
HETATM   25  C   UNL     1      -9.529   5.491  69.384  1.00  0.00    -0.133 C  
BRANCH  25  26
HETATM   26  C   UNL     1     -10.430   5.965  70.465  1.00  0.00    -0.254 A  
HETATM   27  H2  UNL     1     -13.994   7.368  72.368  1.00  0.00     0.000 HD 
HETATM   28  H1  UNL     1     -14.045   7.564  70.614  1.00  0.00     0.000 HD 
HETATM   29  C   UNL     1     -10.151   5.789  71.815  1.00  0.00    -0.187 A  
HETATM   30  N   UNL     1     -11.649   6.610  70.242  1.00  0.00    -0.393 NA 
HETATM   31  S   UNL     1     -11.460   6.300  72.784  1.00  0.00    -0.100 SA 
HETATM   32  N   UNL     1     -13.546   7.278  71.457  1.00  0.00    -0.389 NA 
HETATM   33  C   UNL     1     -12.300   6.782  71.369  1.00  0.00    -0.353 A  
ENDBRANCH  25  26
BRANCH  25  34
HETATM   34  N   UNL     1     -10.148   4.805  68.462  1.00  0.00    -0.094 NA 
HETATM   35  H   UNL     1     -11.037   4.361  68.690  1.00  0.00     0.000 HD 
BRANCH  34  36
HETATM   36  O   UNL     1      -9.629   4.662  67.171  1.00  0.00    -0.152 OA 
HETATM   37  C   UNL     1     -10.455   4.854  66.040  1.00  0.00    -0.283 C  
ENDBRANCH  34  36
ENDBRANCH  25  34
ENDBRANCH  22  25
ENDBRANCH   5  21
TORSDOF 7
ENDMDL
MODEL      163
REMARK 921   NORMALIZED FREE ENERGY PREDICTED BY IDOCK:   -4.37 KCAL/MOL
REMARK 922        TOTAL FREE ENERGY PREDICTED BY IDOCK:   -7.67 KCAL/MOL
REMARK 923 INTER-LIGAND FREE ENERGY PREDICTED BY IDOCK:   -6.48 KCAL/MOL
REMARK 924 INTRA-LIGAND FREE ENERGY PREDICTED BY IDOCK:   -1.19 KCAL/MOL
REMARK 927      BINDING AFFINITY PREDICTED BY RF-SCORE:    0.00 PKD
ROOT
HETATM    1  C   UNL     1     -10.635   9.952  68.256  1.00  0.00    -0.229 C  
HETATM    2  S   UNL     1      -9.502   9.634  66.910  1.00  0.00    -0.161 SA 
HETATM    3  C   UNL     1     -10.255   8.082  66.455  1.00  0.00    -0.158 C  
HETATM    4  C   UNL     1     -10.698   7.170  67.593  1.00  0.00    -0.314 C  
HETATM    5  CA  UNL     1     -10.053  10.798  69.427  1.00  0.00    -0.139 C  
HETATM    6  CA  UNL     1     -10.879   7.548  68.886  1.00  0.00    -0.037 C  
HETATM    7  OXT UNL     1     -11.936   6.994  70.995  1.00  0.00    -0.328 OA 
HETATM    8  N   UNL     1     -10.657   8.860  69.222  1.00  0.00    -0.226 N  
HETATM    9  C   UNL     1     -11.292   6.626  70.022  1.00  0.00    -0.382 C  
HETATM   10  O   UNL     1     -11.206   9.626  71.399  1.00  0.00    -0.365 OA 
HETATM   11  C   UNL     1     -10.737   9.679  70.291  1.00  0.00    -0.281 C  
HETATM   12  O   UNL     1     -10.903   5.336  69.914  1.00  0.00    -0.241 OA 
ENDROOT
BRANCH   4  13
HETATM   13  C   UNL     1     -10.887   5.833  67.046  1.00  0.00    -0.328 C  
HETATM   14  C   UNL     1      -9.999   5.010  66.472  1.00  0.00    -0.249 C  
BRANCH  14  15
HETATM   15  C   UNL     1      -8.609   5.237  66.262  1.00  0.00    -0.116 A  
HETATM   16  C   UNL     1      -7.619   5.480  67.216  1.00  0.00    -0.089 A  
HETATM   17  N   UNL     1      -6.404   5.923  66.717  1.00  0.00    -0.043 NA 
HETATM   18  S   UNL     1      -7.899   5.409  64.694  1.00  0.00    -0.111 SA 
HETATM   19  C   UNL     1      -7.733   5.350  68.696  1.00  0.00    -0.084 C  
HETATM   20  C   UNL     1      -6.443   5.940  65.407  1.00  0.00    -0.042 A  
ENDBRANCH  14  15
ENDBRANCH   4  13
BRANCH   5  21
HETATM   21  N   UNL     1      -8.573  11.027  69.422  1.00  0.00    -0.379 N  
HETATM   22  C   UNL     1      -7.785  12.132  69.149  1.00  0.00     0.234 C  
HETATM   23  O   UNL     1      -6.593  12.081  69.460  1.00  0.00    -0.116 OA 
HETATM   24  H   UNL     1      -8.034  10.197  69.671  1.00  0.00     0.000 HD 
BRANCH  22  25
HETATM   25  C   UNL     1      -8.239  13.332  68.341  1.00  0.00    -0.134 C  
BRANCH  25  26
HETATM   26  C   UNL     1      -7.464  14.600  68.362  1.00  0.00    -0.117 A  
HETATM   27  H2  UNL     1      -5.091  17.856  66.926  1.00  0.00     0.000 HD 
HETATM   28  H1  UNL     1      -5.062  16.469  65.834  1.00  0.00     0.000 HD 
HETATM   29  C   UNL     1      -7.566  15.533  69.386  1.00  0.00    -0.225 A  
HETATM   30  N   UNL     1      -6.579  14.993  67.355  1.00  0.00    -0.296 NA 
HETATM   31  S   UNL     1      -6.672  16.941  69.025  1.00  0.00    -0.225 SA 
HETATM   32  N   UNL     1      -5.372  16.901  66.705  1.00  0.00    -0.331 NA 
HETATM   33  C   UNL     1      -6.150  16.216  67.560  1.00  0.00    -0.161 A  
ENDBRANCH  25  26
BRANCH  25  34
HETATM   34  N   UNL     1      -9.221  13.344  67.483  1.00  0.00    -0.209 NA 
HETATM   35  H   UNL     1      -9.105  12.861  66.592  1.00  0.00     0.000 HD 
BRANCH  34  36
HETATM   36  O   UNL     1     -10.429  13.999  67.748  1.00  0.00    -0.233 OA 
HETATM   37  C   UNL     1     -11.663  13.373  67.460  1.00  0.00    -0.366 C  
ENDBRANCH  34  36
ENDBRANCH  25  34
ENDBRANCH  22  25
ENDBRANCH   5  21
TORSDOF 7
ENDMDL
MODEL      164
REMARK 921   NORMALIZED FREE ENERGY PREDICTED BY IDOCK:   -4.34 KCAL/MOL
REMARK 922        TOTAL FREE ENERGY PREDICTED BY IDOCK:   -7.63 KCAL/MOL
REMARK 923 INTER-LIGAND FREE ENERGY PREDICTED BY IDOCK:   -5.51 KCAL/MOL
REMARK 924 INTRA-LIGAND FREE ENERGY PREDICTED BY IDOCK:   -2.12 KCAL/MOL
REMARK 927      BINDING AFFINITY PREDICTED BY RF-SCORE:    0.00 PKD
ROOT
HETATM    1  C   UNL     1      -7.229  10.423  70.045  1.00  0.00    -0.135 C  
HETATM    2  S   UNL     1      -6.030  10.448  68.719  1.00  0.00    -0.040 SA 
HETATM    3  C   UNL     1      -7.009  11.503  67.664  1.00  0.00    -0.091 C  
HETATM    4  C   UNL     1      -8.507  11.234  67.619  1.00  0.00    -0.124 C  
HETATM    5  CA  UNL     1      -7.225   9.132  70.916  1.00  0.00    -0.111 C  
HETATM    6  CA  UNL     1      -9.209  10.507  68.527  1.00  0.00    -0.168 C  
HETATM    7  OXT UNL     1     -11.405  10.048  69.445  1.00  0.00    -0.215 OA 
HETATM    8  N   UNL     1      -8.536   9.962  69.592  1.00  0.00    -0.173 N  
HETATM    9  C   UNL     1     -10.700  10.218  68.459  1.00  0.00    -0.227 C  
HETATM   10  O   UNL     1      -9.749   8.910  71.337  1.00  0.00    -0.249 OA 
HETATM   11  C   UNL     1      -8.777   9.246  70.709  1.00  0.00    -0.217 C  
HETATM   12  O   UNL     1     -11.238  10.148  67.221  1.00  0.00    -0.218 OA 
ENDROOT
BRANCH   4  13
HETATM   13  C   UNL     1      -9.043  11.891  66.433  1.00  0.00    -0.208 C  
HETATM   14  C   UNL     1      -9.752  13.024  66.330  1.00  0.00    -0.268 C  
BRANCH  14  15
HETATM   15  C   UNL     1     -10.154  13.899  67.379  1.00  0.00    -0.244 A  
HETATM   16  C   UNL     1      -9.355  14.731  68.164  1.00  0.00    -0.197 A  
HETATM   17  N   UNL     1      -9.974  15.275  69.280  1.00  0.00    -0.238 NA 
HETATM   18  S   UNL     1     -11.770  13.971  67.991  1.00  0.00    -0.373 SA 
HETATM   19  C   UNL     1      -7.918  15.069  67.959  1.00  0.00    -0.134 C  
HETATM   20  C   UNL     1     -11.237  14.929  69.298  1.00  0.00    -0.284 A  
ENDBRANCH  14  15
ENDBRANCH   4  13
BRANCH   5  21
HETATM   21  N   UNL     1      -6.422   7.975  70.405  1.00  0.00    -0.036 N  
HETATM   22  C   UNL     1      -6.760   6.795  69.766  1.00  0.00    -0.050 C  
HETATM   23  O   UNL     1      -5.853   6.139  69.250  1.00  0.00    -0.018 OA 
HETATM   24  H   UNL     1      -5.419   8.079  70.560  1.00  0.00     0.000 HD 
BRANCH  22  25
HETATM   25  C   UNL     1      -8.137   6.161  69.803  1.00  0.00    -0.119 C  
BRANCH  25  26
HETATM   26  C   UNL     1      -8.932   5.997  68.559  1.00  0.00    -0.114 A  
HETATM   27  H2  UNL     1     -10.322   4.260  64.906  1.00  0.00     0.000 HD 
HETATM   28  H1  UNL     1      -8.751   3.623  65.399  1.00  0.00     0.000 HD 
HETATM   29  C   UNL     1     -10.120   6.679  68.324  1.00  0.00    -0.159 A  
HETATM   30  N   UNL     1      -8.586   5.132  67.517  1.00  0.00    -0.105 NA 
HETATM   31  S   UNL     1     -10.860   6.142  66.882  1.00  0.00    -0.282 SA 
HETATM   32  N   UNL     1      -9.536   4.254  65.556  1.00  0.00    -0.174 NA 
HETATM   33  C   UNL     1      -9.539   5.080  66.617  1.00  0.00    -0.158 A  
ENDBRANCH  25  26
BRANCH  25  34
HETATM   34  N   UNL     1      -8.688   5.599  70.844  1.00  0.00    -0.131 NA 
HETATM   35  H   UNL     1      -9.404   4.888  70.700  1.00  0.00     0.000 HD 
BRANCH  34  36
HETATM   36  O   UNL     1      -8.326   5.944  72.151  1.00  0.00    -0.117 OA 
HETATM   37  C   UNL     1      -9.273   5.881  73.198  1.00  0.00    -0.133 C  
ENDBRANCH  34  36
ENDBRANCH  25  34
ENDBRANCH  22  25
ENDBRANCH   5  21
TORSDOF 7
ENDMDL
MODEL      165
REMARK 921   NORMALIZED FREE ENERGY PREDICTED BY IDOCK:   -4.34 KCAL/MOL
REMARK 922        TOTAL FREE ENERGY PREDICTED BY IDOCK:   -7.63 KCAL/MOL
REMARK 923 INTER-LIGAND FREE ENERGY PREDICTED BY IDOCK:   -6.14 KCAL/MOL
REMARK 924 INTRA-LIGAND FREE ENERGY PREDICTED BY IDOCK:   -1.49 KCAL/MOL
REMARK 927      BINDING AFFINITY PREDICTED BY RF-SCORE:    0.00 PKD
ROOT
HETATM    1  C   UNL     1      -8.506  11.304  68.462  1.00  0.00    -0.156 C  
HETATM    2  S   UNL     1      -7.008  12.210  68.098  1.00  0.00    -0.091 SA 
HETATM    3  C   UNL     1      -7.859  13.710  67.641  1.00  0.00    -0.174 C  
HETATM    4  C   UNL     1      -9.131  13.558  66.817  1.00  0.00    -0.223 C  
HETATM    5  CA  UNL     1      -8.418   9.764  68.242  1.00  0.00    -0.114 C  
HETATM    6  CA  UNL     1      -9.852  12.415  66.677  1.00  0.00    -0.223 C  
HETATM    7  OXT UNL     1     -12.007  11.478  66.084  1.00  0.00    -0.257 OA 
HETATM    8  N   UNL     1      -9.424  11.286  67.329  1.00  0.00    -0.172 N  
HETATM    9  C   UNL     1     -11.105  12.264  65.828  1.00  0.00    -0.323 C  
HETATM   10  O   UNL     1     -10.781   9.341  67.329  1.00  0.00    -0.268 OA 
HETATM   11  C   UNL     1      -9.794  10.004  67.526  1.00  0.00    -0.175 C  
HETATM   12  O   UNL     1     -11.186  13.058  64.738  1.00  0.00    -0.299 OA 
ENDROOT
BRANCH   4  13
HETATM   13  C   UNL     1      -9.428  14.850  66.211  1.00  0.00    -0.339 C  
HETATM   14  C   UNL     1     -10.134  15.881  66.698  1.00  0.00    -0.287 C  
BRANCH  14  15
HETATM   15  C   UNL     1     -10.772  15.978  67.967  1.00  0.00    -0.309 A  
HETATM   16  C   UNL     1     -10.538  16.905  68.983  1.00  0.00    -0.338 A  
HETATM   17  N   UNL     1     -11.116  16.608  70.209  1.00  0.00    -0.187 NA 
HETATM   18  S   UNL     1     -11.901  14.807  68.556  1.00  0.00    -0.272 SA 
HETATM   19  C   UNL     1      -9.718  18.148  68.909  1.00  0.00    -0.283 C  
HETATM   20  C   UNL     1     -11.839  15.520  70.105  1.00  0.00    -0.356 A  
ENDBRANCH  14  15
ENDBRANCH   4  13
BRANCH   5  21
HETATM   21  N   UNL     1      -7.208   9.253  67.523  1.00  0.00    -0.079 N  
HETATM   22  C   UNL     1      -6.899   8.041  66.931  1.00  0.00    -0.073 C  
HETATM   23  O   UNL     1      -5.906   7.993  66.202  1.00  0.00    -0.039 OA 
HETATM   24  H   UNL     1      -6.457   9.940  67.456  1.00  0.00     0.000 HD 
BRANCH  22  25
HETATM   25  C   UNL     1      -7.588   6.728  67.248  1.00  0.00    -0.104 C  
BRANCH  25  26
HETATM   26  C   UNL     1      -7.563   6.170  68.625  1.00  0.00    -0.092 A  
HETATM   27  H2  UNL     1      -7.981   6.006  72.878  1.00  0.00     0.000 HD 
HETATM   28  H1  UNL     1      -7.913   7.663  72.272  1.00  0.00     0.000 HD 
HETATM   29  C   UNL     1      -7.521   4.806  68.888  1.00  0.00    -0.061 A  
HETATM   30  N   UNL     1      -7.601   6.947  69.785  1.00  0.00    -0.101 NA 
HETATM   31  S   UNL     1      -7.666   4.500  70.561  1.00  0.00    -0.054 SA 
HETATM   32  N   UNL     1      -7.883   6.658  72.100  1.00  0.00    -0.097 NA 
HETATM   33  C   UNL     1      -7.716   6.190  70.851  1.00  0.00    -0.098 A  
ENDBRANCH  25  26
BRANCH  25  34
HETATM   34  N   UNL     1      -8.350   6.052  66.433  1.00  0.00    -0.115 NA 
HETATM   35  H   UNL     1      -7.968   5.229  65.968  1.00  0.00     0.000 HD 
BRANCH  34  36
HETATM   36  O   UNL     1      -9.675   6.422  66.177  1.00  0.00    -0.085 OA 
HETATM   37  C   UNL     1     -10.744   5.737  66.797  1.00  0.00    -0.297 C  
ENDBRANCH  34  36
ENDBRANCH  25  34
ENDBRANCH  22  25
ENDBRANCH   5  21
TORSDOF 7
ENDMDL
MODEL      166
REMARK 921   NORMALIZED FREE ENERGY PREDICTED BY IDOCK:   -4.32 KCAL/MOL
REMARK 922        TOTAL FREE ENERGY PREDICTED BY IDOCK:   -7.61 KCAL/MOL
REMARK 923 INTER-LIGAND FREE ENERGY PREDICTED BY IDOCK:   -5.39 KCAL/MOL
REMARK 924 INTRA-LIGAND FREE ENERGY PREDICTED BY IDOCK:   -2.21 KCAL/MOL
REMARK 927      BINDING AFFINITY PREDICTED BY RF-SCORE:    0.00 PKD
ROOT
HETATM    1  C   UNL     1      -7.843   4.908  68.190  1.00  0.00    -0.083 C  
HETATM    2  S   UNL     1      -6.229   5.657  68.366  1.00  0.00    -0.031 SA 
HETATM    3  C   UNL     1      -6.824   7.056  69.301  1.00  0.00    -0.054 C  
HETATM    4  C   UNL     1      -8.143   7.674  68.854  1.00  0.00    -0.127 C  
HETATM    5  CA  UNL     1      -8.039   4.051  66.904  1.00  0.00    -0.097 C  
HETATM    6  CA  UNL     1      -9.060   7.083  68.044  1.00  0.00    -0.127 C  
HETATM    7  OXT UNL     1     -11.373   7.081  67.320  1.00  0.00    -0.207 OA 
HETATM    8  N   UNL     1      -8.805   5.817  67.578  1.00  0.00    -0.107 N  
HETATM    9  C   UNL     1     -10.361   7.719  67.578  1.00  0.00    -0.264 C  
HETATM   10  O   UNL     1     -10.481   4.645  66.378  1.00  0.00    -0.268 OA 
HETATM   11  C   UNL     1      -9.385   4.855  66.832  1.00  0.00    -0.132 C  
HETATM   12  O   UNL     1     -10.355   9.064  67.451  1.00  0.00    -0.232 OA 
ENDROOT
BRANCH   4  13
HETATM   13  C   UNL     1      -8.238   9.001  69.448  1.00  0.00    -0.117 C  
HETATM   14  C   UNL     1      -8.857   9.394  70.570  1.00  0.00    -0.287 C  
BRANCH  14  15
HETATM   15  C   UNL     1      -9.581   8.588  71.494  1.00  0.00    -0.228 A  
HETATM   16  C   UNL     1     -10.963   8.489  71.657  1.00  0.00    -0.292 A  
HETATM   17  N   UNL     1     -11.384   7.828  72.801  1.00  0.00    -0.391 NA 
HETATM   18  S   UNL     1      -8.823   7.656  72.739  1.00  0.00    -0.171 SA 
HETATM   19  C   UNL     1     -12.025   9.038  70.767  1.00  0.00    -0.214 C  
HETATM   20  C   UNL     1     -10.345   7.364  73.452  1.00  0.00    -0.360 A  
ENDBRANCH  14  15
ENDBRANCH   4  13
BRANCH   5  21
HETATM   21  N   UNL     1      -6.974   4.156  65.855  1.00  0.00    -0.064 N  
HETATM   22  C   UNL     1      -6.841   4.929  64.714  1.00  0.00    -0.049 C  
HETATM   23  O   UNL     1      -5.735   4.967  64.171  1.00  0.00    -0.016 OA 
HETATM   24  H   UNL     1      -6.186   3.529  66.014  1.00  0.00     0.000 HD 
BRANCH  22  25
HETATM   25  C   UNL     1      -7.993   5.594  63.986  1.00  0.00    -0.121 C  
BRANCH  25  26
HETATM   26  C   UNL     1      -8.006   7.062  63.764  1.00  0.00    -0.065 A  
HETATM   27  H2  UNL     1      -7.803  11.240  64.656  1.00  0.00     0.000 HD 
HETATM   28  H1  UNL     1      -8.098  10.258  66.094  1.00  0.00     0.000 HD 
HETATM   29  C   UNL     1      -7.847   7.640  62.510  1.00  0.00    -0.130 A  
HETATM   30  N   UNL     1      -8.155   8.007  64.782  1.00  0.00    -0.146 NA 
HETATM   31  S   UNL     1      -7.748   9.340  62.626  1.00  0.00    -0.121 SA 
HETATM   32  N   UNL     1      -7.959  10.329  65.085  1.00  0.00    -0.147 NA 
HETATM   33  C   UNL     1      -7.981   9.223  64.321  1.00  0.00    -0.135 A  
ENDBRANCH  25  26
BRANCH  25  34
HETATM   34  N   UNL     1      -8.974   4.974  63.390  1.00  0.00    -0.328 NA 
HETATM   35  H   UNL     1      -9.709   5.525  62.947  1.00  0.00     0.000 HD 
BRANCH  34  36
HETATM   36  O   UNL     1      -9.048   3.578  63.340  1.00  0.00    -0.094 OA 
HETATM   37  C   UNL     1     -10.296   2.921  63.441  1.00  0.00    -0.190 C  
ENDBRANCH  34  36
ENDBRANCH  25  34
ENDBRANCH  22  25
ENDBRANCH   5  21
TORSDOF 7
ENDMDL
MODEL      167
REMARK 921   NORMALIZED FREE ENERGY PREDICTED BY IDOCK:   -4.30 KCAL/MOL
REMARK 922        TOTAL FREE ENERGY PREDICTED BY IDOCK:   -7.58 KCAL/MOL
REMARK 923 INTER-LIGAND FREE ENERGY PREDICTED BY IDOCK:   -5.94 KCAL/MOL
REMARK 924 INTRA-LIGAND FREE ENERGY PREDICTED BY IDOCK:   -1.64 KCAL/MOL
REMARK 927      BINDING AFFINITY PREDICTED BY RF-SCORE:    0.00 PKD
ROOT
HETATM    1  C   UNL     1      -9.416   7.655  68.365  1.00  0.00    -0.150 C  
HETATM    2  S   UNL     1      -8.649   8.450  69.770  1.00  0.00    -0.133 SA 
HETATM    3  C   UNL     1      -8.560  10.054  68.993  1.00  0.00    -0.153 C  
HETATM    4  C   UNL     1      -8.169  10.086  67.521  1.00  0.00    -0.114 C  
HETATM    5  CA  UNL     1      -9.102   6.138  68.209  1.00  0.00    -0.112 C  
HETATM    6  CA  UNL     1      -8.204   9.028  66.669  1.00  0.00    -0.118 C  
HETATM    7  OXT UNL     1      -8.268   8.341  64.346  1.00  0.00    -0.165 OA 
HETATM    8  N   UNL     1      -8.629   7.814  67.148  1.00  0.00    -0.126 N  
HETATM    9  C   UNL     1      -7.784   9.062  65.208  1.00  0.00    -0.100 C  
HETATM   10  O   UNL     1      -8.954   6.006  65.649  1.00  0.00    -0.144 OA 
HETATM   11  C   UNL     1      -8.866   6.559  66.715  1.00  0.00    -0.129 C  
HETATM   12  O   UNL     1      -6.816   9.948  64.885  1.00  0.00    -0.114 OA 
ENDROOT
BRANCH   4  13
HETATM   13  C   UNL     1      -7.755  11.446  67.198  1.00  0.00    -0.152 C  
HETATM   14  C   UNL     1      -8.502  12.526  66.927  1.00  0.00    -0.130 C  
BRANCH  14  15
HETATM   15  C   UNL     1      -9.922  12.620  66.904  1.00  0.00    -0.230 A  
HETATM   16  C   UNL     1     -10.801  12.186  65.910  1.00  0.00    -0.278 A  
HETATM   17  N   UNL     1     -12.107  12.637  66.028  1.00  0.00    -0.574 NA 
HETATM   18  S   UNL     1     -10.839  13.469  68.099  1.00  0.00    -0.263 SA 
HETATM   19  C   UNL     1     -10.487  11.329  64.732  1.00  0.00    -0.384 C  
HETATM   20  C   UNL     1     -12.237  13.333  67.130  1.00  0.00    -0.227 A  
ENDBRANCH  14  15
ENDBRANCH   4  13
BRANCH   5  21
HETATM   21  N   UNL     1      -8.014   5.582  69.076  1.00  0.00    -0.094 N  
HETATM   22  C   UNL     1      -8.010   4.709  70.151  1.00  0.00    -0.064 C  
HETATM   23  O   UNL     1      -6.926   4.249  70.515  1.00  0.00    -0.033 OA 
HETATM   24  H   UNL     1      -7.083   5.916  68.822  1.00  0.00     0.000 HD 
BRANCH  22  25
HETATM   25  C   UNL     1      -9.216   4.413  71.021  1.00  0.00    -0.138 C  
BRANCH  25  26
HETATM   26  C   UNL     1     -10.045   5.516  71.573  1.00  0.00    -0.205 A  
HETATM   27  H2  UNL     1     -13.529   7.816  72.500  1.00  0.00     0.000 HD 
HETATM   28  H1  UNL     1     -13.812   6.663  71.193  1.00  0.00     0.000 HD 
HETATM   29  C   UNL     1      -9.588   6.389  72.553  1.00  0.00    -0.152 A  
HETATM   30  N   UNL     1     -11.362   5.774  71.185  1.00  0.00    -0.158 NA 
HETATM   31  S   UNL     1     -10.836   7.429  73.078  1.00  0.00    -0.377 SA 
HETATM   32  N   UNL     1     -13.182   7.093  71.871  1.00  0.00    -0.274 NA 
HETATM   33  C   UNL     1     -11.896   6.708  71.938  1.00  0.00    -0.332 A  
ENDBRANCH  25  26
BRANCH  25  34
HETATM   34  N   UNL     1      -9.712   3.230  71.256  1.00  0.00    -0.165 NA 
HETATM   35  H   UNL     1     -10.598   2.970  70.823  1.00  0.00     0.000 HD 
BRANCH  34  36
HETATM   36  O   UNL     1      -9.066   2.306  72.086  1.00  0.00    -0.075 OA 
HETATM   37  C   UNL     1      -8.490   2.720  73.308  1.00  0.00    -0.078 C  
ENDBRANCH  34  36
ENDBRANCH  25  34
ENDBRANCH  22  25
ENDBRANCH   5  21
TORSDOF 7
ENDMDL
MODEL      168
REMARK 921   NORMALIZED FREE ENERGY PREDICTED BY IDOCK:   -4.30 KCAL/MOL
REMARK 922        TOTAL FREE ENERGY PREDICTED BY IDOCK:   -7.57 KCAL/MOL
REMARK 923 INTER-LIGAND FREE ENERGY PREDICTED BY IDOCK:   -5.83 KCAL/MOL
REMARK 924 INTRA-LIGAND FREE ENERGY PREDICTED BY IDOCK:   -1.74 KCAL/MOL
REMARK 927      BINDING AFFINITY PREDICTED BY RF-SCORE:    0.00 PKD
ROOT
HETATM    1  C   UNL     1      -9.955   8.817  68.555  1.00  0.00    -0.182 C  
HETATM    2  S   UNL     1      -9.351   9.900  69.843  1.00  0.00    -0.174 SA 
HETATM    3  C   UNL     1      -9.296  11.345  68.797  1.00  0.00    -0.106 C  
HETATM    4  C   UNL     1      -8.792  11.147  67.374  1.00  0.00    -0.139 C  
HETATM    5  CA  UNL     1      -9.538   7.323  68.696  1.00  0.00    -0.141 C  
HETATM    6  CA  UNL     1      -8.694   9.957  66.726  1.00  0.00    -0.128 C  
HETATM    7  OXT UNL     1      -8.532   8.871  64.565  1.00  0.00    -0.170 OA 
HETATM    8  N   UNL     1      -9.083   8.818  67.385  1.00  0.00    -0.132 N  
HETATM    9  C   UNL     1      -8.162   9.765  65.314  1.00  0.00    -0.137 C  
HETATM   10  O   UNL     1      -9.179   6.756  66.218  1.00  0.00    -0.163 OA 
HETATM   11  C   UNL     1      -9.209   7.493  67.171  1.00  0.00    -0.136 C  
HETATM   12  O   UNL     1      -7.226  10.650  64.904  1.00  0.00    -0.029 OA 
ENDROOT
BRANCH   4  13
HETATM   13  C   UNL     1      -8.435  12.456  66.840  1.00  0.00    -0.147 C  
HETATM   14  C   UNL     1      -9.201  13.364  66.217  1.00  0.00    -0.068 C  
BRANCH  14  15
HETATM   15  C   UNL     1     -10.592  13.279  65.929  1.00  0.00    -0.281 A  
HETATM   16  C   UNL     1     -11.211  12.715  64.813  1.00  0.00    -0.302 A  
HETATM   17  N   UNL     1     -12.560  13.003  64.667  1.00  0.00    -0.659 NA 
HETATM   18  S   UNL     1     -11.811  14.035  66.895  1.00  0.00    -0.446 SA 
HETATM   19  C   UNL     1     -10.583  11.876  63.753  1.00  0.00    -0.475 C  
HETATM   20  C   UNL     1     -12.976  13.704  65.694  1.00  0.00    -0.238 A  
ENDBRANCH  14  15
ENDBRANCH   4  13
BRANCH   5  21
HETATM   21  N   UNL     1      -8.492   7.009  69.721  1.00  0.00    -0.136 N  
HETATM   22  C   UNL     1      -8.075   5.832  70.321  1.00  0.00    -0.105 C  
HETATM   23  O   UNL     1      -7.021   5.854  70.960  1.00  0.00    -0.063 OA 
HETATM   24  H   UNL     1      -7.981   7.831  70.044  1.00  0.00     0.000 HD 
BRANCH  22  25
HETATM   25  C   UNL     1      -8.904   4.565  70.396  1.00  0.00    -0.087 C  
BRANCH  25  26
HETATM   26  C   UNL     1      -8.983   3.638  69.237  1.00  0.00    -0.116 A  
HETATM   27  H2  UNL     1      -8.293   2.078  65.315  1.00  0.00     0.000 HD 
HETATM   28  H1  UNL     1      -7.919   3.800  65.430  1.00  0.00     0.000 HD 
HETATM   29  C   UNL     1      -9.403   2.319  69.350  1.00  0.00    -0.098 A  
HETATM   30  N   UNL     1      -8.625   3.985  67.932  1.00  0.00    -0.095 NA 
HETATM   31  S   UNL     1      -9.221   1.488  67.870  1.00  0.00    -0.152 SA 
HETATM   32  N   UNL     1      -8.256   2.939  65.861  1.00  0.00    -0.087 NA 
HETATM   33  C   UNL     1      -8.653   2.935  67.145  1.00  0.00    -0.105 A  
ENDBRANCH  25  26
BRANCH  25  34
HETATM   34  N   UNL     1      -9.494   4.104  71.464  1.00  0.00    -0.143 NA 
HETATM   35  H   UNL     1      -9.545   3.096  71.605  1.00  0.00     0.000 HD 
BRANCH  34  36
HETATM   36  O   UNL     1     -10.060   4.952  72.423  1.00  0.00    -0.173 OA 
HETATM   37  C   UNL     1     -11.292   5.599  72.171  1.00  0.00    -0.214 C  
ENDBRANCH  34  36
ENDBRANCH  25  34
ENDBRANCH  22  25
ENDBRANCH   5  21
TORSDOF 7
ENDMDL
MODEL      169
REMARK 921   NORMALIZED FREE ENERGY PREDICTED BY IDOCK:   -4.29 KCAL/MOL
REMARK 922        TOTAL FREE ENERGY PREDICTED BY IDOCK:   -7.56 KCAL/MOL
REMARK 923 INTER-LIGAND FREE ENERGY PREDICTED BY IDOCK:   -6.65 KCAL/MOL
REMARK 924 INTRA-LIGAND FREE ENERGY PREDICTED BY IDOCK:   -0.92 KCAL/MOL
REMARK 927      BINDING AFFINITY PREDICTED BY RF-SCORE:    0.00 PKD
ROOT
HETATM    1  C   UNL     1      -9.222   8.637  68.011  1.00  0.00    -0.140 C  
HETATM    2  S   UNL     1     -10.551   9.544  67.231  1.00  0.00    -0.205 SA 
HETATM    3  C   UNL     1      -9.499  10.866  66.655  1.00  0.00    -0.179 C  
HETATM    4  C   UNL     1      -8.416  11.351  67.610  1.00  0.00    -0.130 C  
HETATM    5  CA  UNL     1      -9.640   7.776  69.240  1.00  0.00    -0.159 C  
HETATM    6  CA  UNL     1      -7.960  10.678  68.699  1.00  0.00    -0.128 C  
HETATM    7  OXT UNL     1      -6.141  10.449  70.283  1.00  0.00    -0.079 OA 
HETATM    8  N   UNL     1      -8.501   9.449  68.984  1.00  0.00    -0.125 N  
HETATM    9  C   UNL     1      -6.899  11.183  69.664  1.00  0.00    -0.117 C  
HETATM   10  O   UNL     1      -7.566   8.124  70.713  1.00  0.00    -0.066 OA 
HETATM   11  C   UNL     1      -8.364   8.440  69.868  1.00  0.00    -0.124 C  
HETATM   12  O   UNL     1      -6.825  12.523  69.822  1.00  0.00     0.058 OA 
ENDROOT
BRANCH   4  13
HETATM   13  C   UNL     1      -7.964  12.657  67.146  1.00  0.00    -0.123 C  
HETATM   14  C   UNL     1      -8.677  13.697  66.689  1.00  0.00    -0.018 C  
BRANCH  14  15
HETATM   15  C   UNL     1     -10.091  13.792  66.556  1.00  0.00    -0.286 A  
HETATM   16  C   UNL     1     -11.054  13.820  67.565  1.00  0.00    -0.278 A  
HETATM   17  N   UNL     1     -12.365  13.654  67.145  1.00  0.00    -0.282 NA 
HETATM   18  S   UNL     1     -10.908  13.734  65.033  1.00  0.00    -0.394 SA 
HETATM   19  C   UNL     1     -10.830  13.973  69.031  1.00  0.00    -0.268 C  
HETATM   20  C   UNL     1     -12.405  13.582  65.837  1.00  0.00    -0.456 A  
ENDBRANCH  14  15
ENDBRANCH   4  13
BRANCH   5  21
HETATM   21  N   UNL     1     -11.019   7.999  69.781  1.00  0.00    -0.397 N  
HETATM   22  C   UNL     1     -11.546   8.000  71.061  1.00  0.00    -0.283 C  
HETATM   23  O   UNL     1     -12.682   8.452  71.216  1.00  0.00    -0.285 OA 
HETATM   24  H   UNL     1     -11.712   8.188  69.057  1.00  0.00     0.000 HD 
BRANCH  22  25
HETATM   25  C   UNL     1     -10.900   7.328  72.258  1.00  0.00    -0.238 C  
BRANCH  25  26
HETATM   26  C   UNL     1     -10.745   5.851  72.308  1.00  0.00    -0.234 A  
HETATM   27  H2  UNL     1      -9.340   1.944  71.284  1.00  0.00     0.000 HD 
HETATM   28  H1  UNL     1      -9.057   3.120  69.997  1.00  0.00     0.000 HD 
HETATM   29  C   UNL     1     -11.128   5.087  73.404  1.00  0.00    -0.335 A  
HETATM   30  N   UNL     1     -10.184   5.087  71.282  1.00  0.00    -0.211 NA 
HETATM   31  S   UNL     1     -10.666   3.456  73.205  1.00  0.00    -0.185 SA 
HETATM   32  N   UNL     1      -9.430   2.892  70.919  1.00  0.00    -0.151 NA 
HETATM   33  C   UNL     1     -10.039   3.838  71.655  1.00  0.00    -0.079 A  
ENDBRANCH  25  26
BRANCH  25  34
HETATM   34  N   UNL     1     -10.320   7.941  73.253  1.00  0.00    -0.300 NA 
HETATM   35  H   UNL     1     -10.719   8.814  73.595  1.00  0.00     0.000 HD 
BRANCH  34  36
HETATM   36  O   UNL     1      -9.168   7.435  73.864  1.00  0.00    -0.231 OA 
HETATM   37  C   UNL     1      -8.118   8.302  74.244  1.00  0.00    -0.217 C  
ENDBRANCH  34  36
ENDBRANCH  25  34
ENDBRANCH  22  25
ENDBRANCH   5  21
TORSDOF 7
ENDMDL
MODEL      170
REMARK 921   NORMALIZED FREE ENERGY PREDICTED BY IDOCK:   -4.25 KCAL/MOL
REMARK 922        TOTAL FREE ENERGY PREDICTED BY IDOCK:   -7.51 KCAL/MOL
REMARK 923 INTER-LIGAND FREE ENERGY PREDICTED BY IDOCK:   -7.24 KCAL/MOL
REMARK 924 INTRA-LIGAND FREE ENERGY PREDICTED BY IDOCK:   -0.26 KCAL/MOL
REMARK 927      BINDING AFFINITY PREDICTED BY RF-SCORE:    0.00 PKD
ROOT
HETATM    1  C   UNL     1     -10.802  13.717  67.394  1.00  0.00    -0.277 C  
HETATM    2  S   UNL     1     -10.134  13.031  68.903  1.00  0.00     0.148 SA 
HETATM    3  C   UNL     1     -10.726  14.361  69.936  1.00  0.00     0.085 C  
HETATM    4  C   UNL     1     -10.616  15.772  69.374  1.00  0.00    -0.255 C  
HETATM    5  CA  UNL     1     -10.018  13.356  66.097  1.00  0.00    -0.294 C  
HETATM    6  CA  UNL     1     -10.426  16.092  68.067  1.00  0.00    -0.281 C  
HETATM    7  OXT UNL     1     -10.631  17.829  66.390  1.00  0.00    -0.314 OA 
HETATM    8  N   UNL     1     -10.327  15.074  67.151  1.00  0.00    -0.254 N  
HETATM    9  C   UNL     1     -10.288  17.503  67.519  1.00  0.00    -0.356 C  
HETATM   10  O   UNL     1     -10.255  15.579  64.835  1.00  0.00    -0.374 OA 
HETATM   11  C   UNL     1     -10.188  14.892  65.823  1.00  0.00    -0.336 C  
HETATM   12  O   UNL     1      -9.747  18.418  68.354  1.00  0.00    -0.319 OA 
ENDROOT
BRANCH   4  13
HETATM   13  C   UNL     1     -10.750  16.707  70.485  1.00  0.00     0.244 C  
HETATM   14  C   UNL     1     -11.602  16.689  71.520  1.00  0.00     0.038 C  
BRANCH  14  15
HETATM   15  C   UNL     1     -12.603  15.719  71.807  1.00  0.00    -0.462 A  
HETATM   16  C   UNL     1     -12.772  14.969  72.972  1.00  0.00    -0.456 A  
HETATM   17  N   UNL     1     -13.669  13.916  72.881  1.00  0.00    -0.619 NA 
HETATM   18  S   UNL     1     -13.755  15.167  70.641  1.00  0.00     0.133 SA 
HETATM   19  C   UNL     1     -12.076  15.151  74.278  1.00  0.00    -0.544 C  
HETATM   20  C   UNL     1     -14.231  13.914  71.697  1.00  0.00    -0.139 A  
ENDBRANCH  14  15
ENDBRANCH   4  13
BRANCH   5  21
HETATM   21  N   UNL     1      -8.680  12.707  66.278  1.00  0.00    -0.413 N  
HETATM   22  C   UNL     1      -8.230  11.406  66.137  1.00  0.00    -0.041 C  
HETATM   23  O   UNL     1      -7.012  11.216  66.124  1.00  0.00    -0.099 OA 
HETATM   24  H   UNL     1      -7.949  13.360  66.563  1.00  0.00     0.000 HD 
BRANCH  22  25
HETATM   25  C   UNL     1      -9.121  10.180  66.172  1.00  0.00    -0.155 C  
BRANCH  25  26
HETATM   26  C   UNL     1      -9.330   9.427  67.435  1.00  0.00    -0.126 A  
HETATM   27  H2  UNL     1      -8.688   8.112  71.454  1.00  0.00     0.000 HD 
HETATM   28  H1  UNL     1      -7.269   8.911  70.773  1.00  0.00     0.000 HD 
HETATM   29  C   UNL     1     -10.519   8.776  67.742  1.00  0.00    -0.229 A  
HETATM   30  N   UNL     1      -8.372   9.315  68.447  1.00  0.00    -0.118 NA 
HETATM   31  S   UNL     1     -10.484   8.151  69.330  1.00  0.00    -0.188 SA 
HETATM   32  N   UNL     1      -8.225   8.570  70.670  1.00  0.00    -0.113 NA 
HETATM   33  C   UNL     1      -8.876   8.723  69.504  1.00  0.00    -0.144 A  
ENDBRANCH  25  26
BRANCH  25  34
HETATM   34  N   UNL     1      -9.868   9.754  65.190  1.00  0.00    -0.405 NA 
HETATM   35  H   UNL     1     -10.421   8.907  65.321  1.00  0.00     0.000 HD 
BRANCH  34  36
HETATM   36  O   UNL     1      -9.934  10.424  63.964  1.00  0.00    -0.323 OA 
HETATM   37  C   UNL     1      -9.008  10.133  62.936  1.00  0.00    -0.255 C  
ENDBRANCH  34  36
ENDBRANCH  25  34
ENDBRANCH  22  25
ENDBRANCH   5  21
TORSDOF 7
ENDMDL
MODEL      171
REMARK 921   NORMALIZED FREE ENERGY PREDICTED BY IDOCK:   -4.22 KCAL/MOL
REMARK 922        TOTAL FREE ENERGY PREDICTED BY IDOCK:   -7.47 KCAL/MOL
REMARK 923 INTER-LIGAND FREE ENERGY PREDICTED BY IDOCK:   -6.07 KCAL/MOL
REMARK 924 INTRA-LIGAND FREE ENERGY PREDICTED BY IDOCK:   -1.40 KCAL/MOL
REMARK 927      BINDING AFFINITY PREDICTED BY RF-SCORE:    0.00 PKD
ROOT
HETATM    1  C   UNL     1      -8.460  10.563  67.173  1.00  0.00    -0.127 C  
HETATM    2  S   UNL     1      -9.588   9.789  68.323  1.00  0.00    -0.145 SA 
HETATM    3  C   UNL     1     -10.677  11.199  68.425  1.00  0.00    -0.198 C  
HETATM    4  C   UNL     1     -10.022  12.573  68.477  1.00  0.00    -0.170 C  
HETATM    5  CA  UNL     1      -6.983  10.077  67.264  1.00  0.00    -0.083 C  
HETATM    6  CA  UNL     1      -8.738  12.853  68.129  1.00  0.00    -0.190 C  
HETATM    7  OXT UNL     1      -7.187  14.593  67.466  1.00  0.00    -0.178 OA 
HETATM    8  N   UNL     1      -7.942  11.828  67.681  1.00  0.00    -0.134 N  
HETATM    9  C   UNL     1      -8.083  14.223  68.212  1.00  0.00    -0.143 C  
HETATM   10  O   UNL     1      -5.785  12.304  66.819  1.00  0.00    -0.307 OA 
HETATM   11  C   UNL     1      -6.697  11.620  67.208  1.00  0.00    -0.124 C  
HETATM   12  O   UNL     1      -8.542  15.046  69.181  1.00  0.00    -0.196 OA 
ENDROOT
BRANCH   4  13
HETATM   13  C   UNL     1     -11.014  13.523  68.966  1.00  0.00    -0.264 C  
HETATM   14  C   UNL     1     -11.609  14.541  68.330  1.00  0.00    -0.358 C  
BRANCH  14  15
HETATM   15  C   UNL     1     -11.428  14.949  66.978  1.00  0.00    -0.326 A  
HETATM   16  C   UNL     1     -11.719  14.238  65.814  1.00  0.00    -0.359 A  
HETATM   17  N   UNL     1     -11.201  14.770  64.642  1.00  0.00    -0.367 NA 
HETATM   18  S   UNL     1     -10.633  16.418  66.527  1.00  0.00    -0.180 SA 
HETATM   19  C   UNL     1     -12.487  12.966  65.694  1.00  0.00    -0.400 C  
HETATM   20  C   UNL     1     -10.597  15.904  64.900  1.00  0.00    -0.254 A  
ENDBRANCH  14  15
ENDBRANCH   4  13
BRANCH   5  21
HETATM   21  N   UNL     1      -6.624   9.228  68.445  1.00  0.00    -0.058 N  
HETATM   22  C   UNL     1      -6.438   7.867  68.612  1.00  0.00    -0.049 C  
HETATM   23  O   UNL     1      -5.912   7.482  69.658  1.00  0.00    -0.023 OA 
HETATM   24  H   UNL     1      -6.489   9.765  69.302  1.00  0.00     0.000 HD 
BRANCH  22  25
HETATM   25  C   UNL     1      -6.991   6.803  67.684  1.00  0.00    -0.083 C  
BRANCH  25  26
HETATM   26  C   UNL     1      -8.438   6.465  67.691  1.00  0.00    -0.117 A  
HETATM   27  H2  UNL     1     -12.424   5.997  69.168  1.00  0.00     0.000 HD 
HETATM   28  H1  UNL     1     -11.239   6.152  70.467  1.00  0.00     0.000 HD 
HETATM   29  C   UNL     1      -9.180   6.290  66.529  1.00  0.00    -0.154 A  
HETATM   30  N   UNL     1      -9.200   6.312  68.852  1.00  0.00    -0.124 NA 
HETATM   31  S   UNL     1     -10.835   6.073  66.886  1.00  0.00    -0.258 SA 
HETATM   32  N   UNL     1     -11.456   6.099  69.472  1.00  0.00    -0.381 NA 
HETATM   33  C   UNL     1     -10.471   6.162  68.560  1.00  0.00    -0.237 A  
ENDBRANCH  25  26
BRANCH  25  34
HETATM   34  N   UNL     1      -6.326   6.200  66.737  1.00  0.00    -0.043 NA 
HETATM   35  H   UNL     1      -6.221   6.663  65.835  1.00  0.00     0.000 HD 
BRANCH  34  36
HETATM   36  O   UNL     1      -5.753   4.937  66.923  1.00  0.00    -0.013 OA 
HETATM   37  C   UNL     1      -6.234   3.818  66.205  1.00  0.00    -0.032 C  
ENDBRANCH  34  36
ENDBRANCH  25  34
ENDBRANCH  22  25
ENDBRANCH   5  21
TORSDOF 7
ENDMDL
MODEL      172
REMARK 921   NORMALIZED FREE ENERGY PREDICTED BY IDOCK:   -4.22 KCAL/MOL
REMARK 922        TOTAL FREE ENERGY PREDICTED BY IDOCK:   -7.47 KCAL/MOL
REMARK 923 INTER-LIGAND FREE ENERGY PREDICTED BY IDOCK:   -5.62 KCAL/MOL
REMARK 924 INTRA-LIGAND FREE ENERGY PREDICTED BY IDOCK:   -1.85 KCAL/MOL
REMARK 927      BINDING AFFINITY PREDICTED BY RF-SCORE:    0.00 PKD
ROOT
HETATM    1  C   UNL     1      -7.902  12.037  66.381  1.00  0.00     0.246 C  
HETATM    2  S   UNL     1      -6.382  11.813  67.294  1.00  0.00    -0.146 SA 
HETATM    3  C   UNL     1      -6.447  10.031  67.240  1.00  0.00    -0.068 C  
HETATM    4  C   UNL     1      -7.811   9.384  67.444  1.00  0.00    -0.102 C  
HETATM    5  CA  UNL     1      -8.692  13.337  66.717  1.00  0.00    -0.080 C  
HETATM    6  CA  UNL     1      -9.010  10.013  67.334  1.00  0.00    -0.131 C  
HETATM    7  OXT UNL     1     -11.393   9.718  67.000  1.00  0.00     0.110 OA 
HETATM    8  N   UNL     1      -9.024  11.346  67.006  1.00  0.00    -0.162 N  
HETATM    9  C   UNL     1     -10.367   9.367  67.567  1.00  0.00    -0.255 C  
HETATM   10  O   UNL     1     -11.086  12.424  66.549  1.00  0.00    -0.273 OA 
HETATM   11  C   UNL     1      -9.902  12.338  66.753  1.00  0.00    -0.209 C  
HETATM   12  O   UNL     1     -10.399   8.354  68.462  1.00  0.00    -0.206 OA 
ENDROOT
BRANCH   4  13
HETATM   13  C   UNL     1      -7.595   7.981  67.775  1.00  0.00    -0.102 C  
HETATM   14  C   UNL     1      -7.119   7.432  68.902  1.00  0.00    -0.080 C  
BRANCH  14  15
HETATM   15  C   UNL     1      -6.711   8.099  70.092  1.00  0.00    -0.036 A  
HETATM   16  C   UNL     1      -7.475   8.397  71.221  1.00  0.00    -0.089 A  
HETATM   17  N   UNL     1      -6.895   9.280  72.119  1.00  0.00    -0.291 NA 
HETATM   18  S   UNL     1      -5.154   8.827  70.288  1.00  0.00    -0.021 SA 
HETATM   19  C   UNL     1      -8.843   7.904  71.549  1.00  0.00    -0.160 C  
HETATM   20  C   UNL     1      -5.684   9.585  71.721  1.00  0.00    -0.035 A  
ENDBRANCH  14  15
ENDBRANCH   4  13
BRANCH   5  21
HETATM   21  N   UNL     1      -8.241  14.108  67.920  1.00  0.00    -0.142 N  
HETATM   22  C   UNL     1      -8.917  14.744  68.947  1.00  0.00    -0.167 C  
HETATM   23  O   UNL     1      -8.267  15.096  69.933  1.00  0.00    -0.101 OA 
HETATM   24  H   UNL     1      -7.226  14.179  67.998  1.00  0.00     0.000 HD 
BRANCH  22  25
HETATM   25  C   UNL     1     -10.364  15.193  68.874  1.00  0.00    -0.243 C  
BRANCH  25  26
HETATM   26  C   UNL     1     -11.382  14.630  69.798  1.00  0.00    -0.275 A  
HETATM   27  H2  UNL     1     -13.504  11.729  72.116  1.00  0.00     0.000 HD 
HETATM   28  H1  UNL     1     -12.508  10.989  70.860  1.00  0.00     0.000 HD 
HETATM   29  C   UNL     1     -12.142  15.415  70.657  1.00  0.00    -0.369 A  
HETATM   30  N   UNL     1     -11.663  13.267  69.916  1.00  0.00    -0.287 NA 
HETATM   31  S   UNL     1     -13.095  14.447  71.691  1.00  0.00    -0.372 SA 
HETATM   32  N   UNL     1     -12.865  11.823  71.327  1.00  0.00    -0.363 NA 
HETATM   33  C   UNL     1     -12.495  13.045  70.906  1.00  0.00    -0.310 A  
ENDBRANCH  25  26
BRANCH  25  34
HETATM   34  N   UNL     1     -10.822  16.164  68.133  1.00  0.00    -0.316 NA 
HETATM   35  H   UNL     1     -11.819  16.377  68.159  1.00  0.00     0.000 HD 
BRANCH  34  36
HETATM   36  O   UNL     1      -9.988  16.920  67.302  1.00  0.00    -0.263 OA 
HETATM   37  C   UNL     1      -9.888  18.320  67.468  1.00  0.00    -0.317 C  
ENDBRANCH  34  36
ENDBRANCH  25  34
ENDBRANCH  22  25
ENDBRANCH   5  21
TORSDOF 7
ENDMDL
MODEL      173
REMARK 921   NORMALIZED FREE ENERGY PREDICTED BY IDOCK:   -4.22 KCAL/MOL
REMARK 922        TOTAL FREE ENERGY PREDICTED BY IDOCK:   -7.46 KCAL/MOL
REMARK 923 INTER-LIGAND FREE ENERGY PREDICTED BY IDOCK:   -7.18 KCAL/MOL
REMARK 924 INTRA-LIGAND FREE ENERGY PREDICTED BY IDOCK:   -0.28 KCAL/MOL
REMARK 927      BINDING AFFINITY PREDICTED BY RF-SCORE:    0.00 PKD
ROOT
HETATM    1  C   UNL     1     -11.335   9.638  69.496  1.00  0.00    -0.040 C  
HETATM    2  S   UNL     1     -10.325  11.113  69.518  1.00  0.00     0.138 SA 
HETATM    3  C   UNL     1     -10.246  11.257  67.741  1.00  0.00    -0.180 C  
HETATM    4  C   UNL     1     -10.070   9.966  66.952  1.00  0.00    -0.285 C  
HETATM    5  CA  UNL     1     -11.143   8.685  70.713  1.00  0.00    -0.255 C  
HETATM    6  CA  UNL     1     -10.293   8.711  67.425  1.00  0.00    -0.284 C  
HETATM    7  OXT UNL     1     -10.735   6.405  66.827  1.00  0.00    -0.290 OA 
HETATM    8  N   UNL     1     -10.722   8.566  68.721  1.00  0.00    -0.119 N  
HETATM    9  C   UNL     1     -10.087   7.426  66.640  1.00  0.00    -0.183 C  
HETATM   10  O   UNL     1     -11.373   6.427  69.512  1.00  0.00    -0.390 OA 
HETATM   11  C   UNL     1     -11.098   7.598  69.581  1.00  0.00    -0.062 C  
HETATM   12  O   UNL     1      -9.121   7.453  65.695  1.00  0.00    -0.040 OA 
ENDROOT
BRANCH   4  13
HETATM   13  C   UNL     1      -9.621  10.320  65.611  1.00  0.00    -0.289 C  
HETATM   14  C   UNL     1      -9.997  11.337  64.824  1.00  0.00    -0.327 C  
BRANCH  14  15
HETATM   15  C   UNL     1     -10.942  12.361  65.116  1.00  0.00    -0.302 A  
HETATM   16  C   UNL     1     -12.174  12.601  64.506  1.00  0.00    -0.443 A  
HETATM   17  N   UNL     1     -12.766  13.817  64.811  1.00  0.00    -0.684 NA 
HETATM   18  S   UNL     1     -10.639  13.643  66.238  1.00  0.00    -0.293 SA 
HETATM   19  C   UNL     1     -12.899  11.721  63.546  1.00  0.00    -0.347 C  
HETATM   20  C   UNL     1     -12.040  14.453  65.697  1.00  0.00    -0.354 A  
ENDBRANCH  14  15
ENDBRANCH   4  13
BRANCH   5  21
HETATM   21  N   UNL     1      -9.979   8.967  71.613  1.00  0.00    -0.324 N  
HETATM   22  C   UNL     1      -8.896   8.211  72.028  1.00  0.00    -0.174 C  
HETATM   23  O   UNL     1      -7.966   8.795  72.588  1.00  0.00    -0.380 OA 
HETATM   24  H   UNL     1      -9.986   9.911  72.001  1.00  0.00     0.000 HD 
BRANCH  22  25
HETATM   25  C   UNL     1      -8.845   6.696  72.000  1.00  0.00    -0.135 C  
BRANCH  25  26
HETATM   26  C   UNL     1      -8.291   5.975  70.825  1.00  0.00    -0.126 A  
HETATM   27  H2  UNL     1      -6.190   5.341  67.154  1.00  0.00     0.000 HD 
HETATM   28  H1  UNL     1      -6.567   7.044  67.428  1.00  0.00     0.000 HD 
HETATM   29  C   UNL     1      -8.165   4.592  70.775  1.00  0.00    -0.088 A  
HETATM   30  N   UNL     1      -7.822   6.606  69.670  1.00  0.00    -0.113 NA 
HETATM   31  S   UNL     1      -7.347   4.102  69.359  1.00  0.00    -0.054 SA 
HETATM   32  N   UNL     1      -6.620   6.069  67.723  1.00  0.00    -0.054 NA 
HETATM   33  C   UNL     1      -7.256   5.741  68.862  1.00  0.00    -0.082 A  
ENDBRANCH  25  26
BRANCH  25  34
HETATM   34  N   UNL     1      -9.136   5.906  72.997  1.00  0.00    -0.128 NA 
HETATM   35  H   UNL     1      -8.409   5.299  73.375  1.00  0.00     0.000 HD 
BRANCH  34  36
HETATM   36  O   UNL     1     -10.415   5.868  73.564  1.00  0.00    -0.225 OA 
HETATM   37  C   UNL     1     -11.495   5.292  72.859  1.00  0.00    -0.270 C  
ENDBRANCH  34  36
ENDBRANCH  25  34
ENDBRANCH  22  25
ENDBRANCH   5  21
TORSDOF 7
ENDMDL
MODEL      174
REMARK 921   NORMALIZED FREE ENERGY PREDICTED BY IDOCK:   -4.18 KCAL/MOL
REMARK 922        TOTAL FREE ENERGY PREDICTED BY IDOCK:   -7.41 KCAL/MOL
REMARK 923 INTER-LIGAND FREE ENERGY PREDICTED BY IDOCK:   -6.08 KCAL/MOL
REMARK 924 INTRA-LIGAND FREE ENERGY PREDICTED BY IDOCK:   -1.33 KCAL/MOL
REMARK 927      BINDING AFFINITY PREDICTED BY RF-SCORE:    0.00 PKD
ROOT
HETATM    1  C   UNL     1      -9.121   9.836  69.567  1.00  0.00    -0.216 C  
HETATM    2  S   UNL     1     -10.567   8.804  69.358  1.00  0.00    -0.175 SA 
HETATM    3  C   UNL     1      -9.859   7.398  70.198  1.00  0.00    -0.180 C  
HETATM    4  C   UNL     1      -8.394   7.092  69.916  1.00  0.00    -0.139 C  
HETATM    5  CA  UNL     1      -8.904  10.905  68.455  1.00  0.00    -0.153 C  
HETATM    6  CA  UNL     1      -7.497   7.950  69.362  1.00  0.00    -0.091 C  
HETATM    7  OXT UNL     1      -5.147   8.459  69.065  1.00  0.00    -0.030 OA 
HETATM    8  N   UNL     1      -7.920   9.211  69.024  1.00  0.00    -0.099 N  
HETATM    9  C   UNL     1      -6.043   7.626  69.057  1.00  0.00    -0.035 C  
HETATM   10  O   UNL     1      -6.342  10.826  68.299  1.00  0.00    -0.056 OA 
HETATM   11  C   UNL     1      -7.432  10.363  68.521  1.00  0.00    -0.089 C  
HETATM   12  O   UNL     1      -5.769   6.337  68.761  1.00  0.00    -0.017 OA 
ENDROOT
BRANCH   4  13
HETATM   13  C   UNL     1      -8.133   5.723  70.344  1.00  0.00    -0.106 C  
HETATM   14  C   UNL     1      -7.549   5.273  71.463  1.00  0.00    -0.102 C  
BRANCH  14  15
HETATM   15  C   UNL     1      -7.040   6.040  72.549  1.00  0.00    -0.084 A  
HETATM   16  C   UNL     1      -7.752   6.716  73.539  1.00  0.00    -0.090 A  
HETATM   17  N   UNL     1      -7.011   7.594  74.316  1.00  0.00    -0.101 NA 
HETATM   18  S   UNL     1      -5.361   6.407  72.748  1.00  0.00    -0.037 SA 
HETATM   19  C   UNL     1      -9.212   6.628  73.829  1.00  0.00    -0.176 C  
HETATM   20  C   UNL     1      -5.747   7.526  73.977  1.00  0.00    -0.057 A  
ENDBRANCH  14  15
ENDBRANCH   4  13
BRANCH   5  21
HETATM   21  N   UNL     1      -9.758  10.787  67.230  1.00  0.00    -0.160 N  
HETATM   22  C   UNL     1     -10.188  11.700  66.283  1.00  0.00    -0.227 C  
HETATM   23  O   UNL     1     -10.691  11.261  65.247  1.00  0.00    -0.281 OA 
HETATM   24  H   UNL     1     -10.090   9.838  67.058  1.00  0.00     0.000 HD 
BRANCH  22  25
HETATM   25  C   UNL     1     -10.246  13.200  66.499  1.00  0.00    -0.277 C  
BRANCH  25  26
HETATM   26  C   UNL     1     -10.738  13.765  67.782  1.00  0.00    -0.246 A  
HETATM   27  H2  UNL     1     -11.433  16.629  70.881  1.00  0.00     0.000 HD 
HETATM   28  H1  UNL     1     -10.117  17.108  69.805  1.00  0.00     0.000 HD 
HETATM   29  C   UNL     1     -11.739  13.167  68.538  1.00  0.00    -0.352 A  
HETATM   30  N   UNL     1     -10.268  14.954  68.345  1.00  0.00    -0.226 NA 
HETATM   31  S   UNL     1     -12.178  14.151  69.862  1.00  0.00    -0.343 SA 
HETATM   32  N   UNL     1     -10.831  16.433  70.082  1.00  0.00    -0.308 NA 
HETATM   33  C   UNL     1     -10.980  15.286  69.397  1.00  0.00    -0.271 A  
ENDBRANCH  25  26
BRANCH  25  34
HETATM   34  N   UNL     1      -9.772  14.105  65.687  1.00  0.00    -0.523 NA 
HETATM   35  H   UNL     1      -8.762  14.178  65.565  1.00  0.00     0.000 HD 
BRANCH  34  36
HETATM   36  O   UNL     1     -10.606  14.976  64.979  1.00  0.00    -0.384 OA 
HETATM   37  C   UNL     1     -11.857  14.534  64.491  1.00  0.00    -0.446 C  
ENDBRANCH  34  36
ENDBRANCH  25  34
ENDBRANCH  22  25
ENDBRANCH   5  21
TORSDOF 7
ENDMDL
MODEL      175
REMARK 921   NORMALIZED FREE ENERGY PREDICTED BY IDOCK:   -4.15 KCAL/MOL
REMARK 922        TOTAL FREE ENERGY PREDICTED BY IDOCK:   -7.36 KCAL/MOL
REMARK 923 INTER-LIGAND FREE ENERGY PREDICTED BY IDOCK:   -6.65 KCAL/MOL
REMARK 924 INTRA-LIGAND FREE ENERGY PREDICTED BY IDOCK:   -0.71 KCAL/MOL
REMARK 927      BINDING AFFINITY PREDICTED BY RF-SCORE:    0.00 PKD
ROOT
HETATM    1  C   UNL     1     -10.005  12.301  65.342  1.00  0.00    -0.244 C  
HETATM    2  S   UNL     1     -11.763  12.396  65.650  1.00  0.00    -0.396 SA 
HETATM    3  C   UNL     1     -11.713  14.081  66.234  1.00  0.00    -0.387 C  
HETATM    4  C   UNL     1     -10.544  14.466  67.132  1.00  0.00    -0.277 C  
HETATM    5  CA  UNL     1      -9.383  10.879  65.480  1.00  0.00    -0.206 C  
HETATM    6  CA  UNL     1      -9.384  13.770  67.264  1.00  0.00    -0.239 C  
HETATM    7  OXT UNL     1      -7.063  13.877  67.951  1.00  0.00    -0.126 OA 
HETATM    8  N   UNL     1      -9.223  12.620  66.531  1.00  0.00    -0.226 N  
HETATM    9  C   UNL     1      -8.234  14.145  68.184  1.00  0.00    -0.149 C  
HETATM   10  O   UNL     1      -7.125  11.513  66.526  1.00  0.00    -0.107 OA 
HETATM   11  C   UNL     1      -8.298  11.667  66.297  1.00  0.00    -0.027 C  
HETATM   12  O   UNL     1      -8.566  14.806  69.315  1.00  0.00    -0.135 OA 
ENDROOT
BRANCH   4  13
HETATM   13  C   UNL     1     -10.895  15.703  67.817  1.00  0.00    -0.307 C  
HETATM   14  C   UNL     1     -11.528  15.884  68.985  1.00  0.00    -0.380 C  
BRANCH  14  15
HETATM   15  C   UNL     1     -12.014  14.886  69.877  1.00  0.00    -0.330 A  
HETATM   16  C   UNL     1     -12.223  14.984  71.253  1.00  0.00    -0.320 A  
HETATM   17  N   UNL     1     -12.452  13.784  71.910  1.00  0.00    -0.179 NA 
HETATM   18  S   UNL     1     -12.299  13.247  69.404  1.00  0.00     0.099 SA 
HETATM   19  C   UNL     1     -12.194  16.217  72.090  1.00  0.00    -0.549 C  
HETATM   20  C   UNL     1     -12.496  12.805  71.041  1.00  0.00    -0.277 A  
ENDBRANCH  14  15
ENDBRANCH   4  13
BRANCH   5  21
HETATM   21  N   UNL     1     -10.250   9.822  66.093  1.00  0.00    -0.242 N  
HETATM   22  C   UNL     1      -9.990   8.560  66.600  1.00  0.00    -0.293 C  
HETATM   23  O   UNL     1     -10.875   8.011  67.260  1.00  0.00    -0.261 OA 
HETATM   24  H   UNL     1     -11.234  10.086  66.148  1.00  0.00     0.000 HD 
BRANCH  22  25
HETATM   25  C   UNL     1      -8.767   7.731  66.258  1.00  0.00    -0.155 C  
BRANCH  25  26
HETATM   26  C   UNL     1      -7.827   7.290  67.321  1.00  0.00    -0.111 A  
HETATM   27  H2  UNL     1      -5.251   4.710  69.557  1.00  0.00     0.000 HD 
HETATM   28  H1  UNL     1      -6.349   3.815  68.502  1.00  0.00     0.000 HD 
HETATM   29  C   UNL     1      -7.116   8.178  68.120  1.00  0.00    -0.082 A  
HETATM   30  N   UNL     1      -7.544   5.953  67.610  1.00  0.00    -0.088 NA 
HETATM   31  S   UNL     1      -6.010   7.350  69.123  1.00  0.00    -0.031 SA 
HETATM   32  N   UNL     1      -6.013   4.702  68.880  1.00  0.00    -0.024 NA 
HETATM   33  C   UNL     1      -6.573   5.859  68.488  1.00  0.00    -0.055 A  
ENDBRANCH  25  26
BRANCH  25  34
HETATM   34  N   UNL     1      -8.492   7.228  65.087  1.00  0.00    -0.319 NA 
HETATM   35  H   UNL     1      -8.471   6.214  64.977  1.00  0.00     0.000 HD 
BRANCH  34  36
HETATM   36  O   UNL     1      -8.225   8.037  63.976  1.00  0.00    -0.134 OA 
HETATM   37  C   UNL     1      -7.038   8.801  63.914  1.00  0.00    -0.091 C  
ENDBRANCH  34  36
ENDBRANCH  25  34
ENDBRANCH  22  25
ENDBRANCH   5  21
TORSDOF 7
ENDMDL
MODEL      176
REMARK 921   NORMALIZED FREE ENERGY PREDICTED BY IDOCK:   -4.11 KCAL/MOL
REMARK 922        TOTAL FREE ENERGY PREDICTED BY IDOCK:   -7.30 KCAL/MOL
REMARK 923 INTER-LIGAND FREE ENERGY PREDICTED BY IDOCK:   -7.12 KCAL/MOL
REMARK 924 INTRA-LIGAND FREE ENERGY PREDICTED BY IDOCK:   -0.18 KCAL/MOL
REMARK 927      BINDING AFFINITY PREDICTED BY RF-SCORE:    0.00 PKD
ROOT
HETATM    1  C   UNL     1      -9.414   8.929  68.546  1.00  0.00    -0.147 C  
HETATM    2  S   UNL     1      -9.646   9.701  66.951  1.00  0.00    -0.177 SA 
HETATM    3  C   UNL     1     -10.016  11.311  67.626  1.00  0.00    -0.178 C  
HETATM    4  C   UNL     1     -10.899  11.352  68.866  1.00  0.00    -0.259 C  
HETATM    5  CA  UNL     1      -9.751   7.409  68.603  1.00  0.00    -0.152 C  
HETATM    6  CA  UNL     1     -11.157  10.303  69.691  1.00  0.00    -0.274 C  
HETATM    7  OXT UNL     1     -11.905   9.639  71.898  1.00  0.00    -0.367 OA 
HETATM    8  N   UNL     1     -10.580   9.090  69.408  1.00  0.00    -0.228 N  
HETATM    9  C   UNL     1     -12.062  10.346  70.911  1.00  0.00    -0.374 C  
HETATM   10  O   UNL     1     -10.786   7.301  70.950  1.00  0.00    -0.229 OA 
HETATM   11  C   UNL     1     -10.499   7.843  69.913  1.00  0.00    -0.229 C  
HETATM   12  O   UNL     1     -13.089  11.223  70.862  1.00  0.00    -0.211 OA 
ENDROOT
BRANCH   4  13
HETATM   13  C   UNL     1     -11.411  12.710  69.005  1.00  0.00    -0.354 C  
HETATM   14  C   UNL     1     -11.570  13.663  68.076  1.00  0.00    -0.368 C  
BRANCH  14  15
HETATM   15  C   UNL     1     -11.286  13.578  66.683  1.00  0.00    -0.312 A  
HETATM   16  C   UNL     1     -10.238  14.171  65.977  1.00  0.00    -0.308 A  
HETATM   17  N   UNL     1     -10.352  14.135  64.596  1.00  0.00    -0.384 NA 
HETATM   18  S   UNL     1     -12.333  12.806  65.544  1.00  0.00    -0.339 SA 
HETATM   19  C   UNL     1      -9.042  14.862  66.537  1.00  0.00    -0.309 C  
HETATM   20  C   UNL     1     -11.422  13.459  64.257  1.00  0.00    -0.393 A  
ENDBRANCH  14  15
ENDBRANCH   4  13
BRANCH   5  21
HETATM   21  N   UNL     1     -10.461   6.831  67.417  1.00  0.00    -0.225 N  
HETATM   22  C   UNL     1     -10.394   5.606  66.777  1.00  0.00    -0.262 C  
HETATM   23  O   UNL     1     -11.279   5.333  65.963  1.00  0.00    -0.019 OA 
HETATM   24  H   UNL     1     -11.131   7.474  66.994  1.00  0.00     0.000 HD 
BRANCH  22  25
HETATM   25  C   UNL     1      -9.223   4.648  66.873  1.00  0.00    -0.127 C  
BRANCH  25  26
HETATM   26  C   UNL     1      -8.329   4.421  65.709  1.00  0.00    -0.113 A  
HETATM   27  H2  UNL     1      -7.011   2.974  61.906  1.00  0.00     0.000 HD 
HETATM   28  H1  UNL     1      -8.403   2.079  62.521  1.00  0.00     0.000 HD 
HETATM   29  C   UNL     1      -7.205   5.198  65.453  1.00  0.00    -0.068 A  
HETATM   30  N   UNL     1      -8.533   3.429  64.746  1.00  0.00    -0.097 NA 
HETATM   31  S   UNL     1      -6.497   4.780  63.958  1.00  0.00    -0.038 SA 
HETATM   32  N   UNL     1      -7.700   2.809  62.639  1.00  0.00    -0.057 NA 
HETATM   33  C   UNL     1      -7.679   3.553  63.758  1.00  0.00    -0.079 A  
ENDBRANCH  25  26
BRANCH  25  34
HETATM   34  N   UNL     1      -8.811   4.057  67.961  1.00  0.00    -0.102 NA 
HETATM   35  H   UNL     1      -7.810   3.921  68.101  1.00  0.00     0.000 HD 
BRANCH  34  36
HETATM   36  O   UNL     1      -9.701   3.603  68.941  1.00  0.00    -0.140 OA 
HETATM   37  C   UNL     1      -9.558   4.014  70.285  1.00  0.00    -0.201 C  
ENDBRANCH  34  36
ENDBRANCH  25  34
ENDBRANCH  22  25
ENDBRANCH   5  21
TORSDOF 7
ENDMDL
MODEL      177
REMARK 921   NORMALIZED FREE ENERGY PREDICTED BY IDOCK:   -4.07 KCAL/MOL
REMARK 922        TOTAL FREE ENERGY PREDICTED BY IDOCK:   -7.25 KCAL/MOL
REMARK 923 INTER-LIGAND FREE ENERGY PREDICTED BY IDOCK:   -5.65 KCAL/MOL
REMARK 924 INTRA-LIGAND FREE ENERGY PREDICTED BY IDOCK:   -1.61 KCAL/MOL
REMARK 927      BINDING AFFINITY PREDICTED BY RF-SCORE:    0.00 PKD
ROOT
HETATM    1  C   UNL     1      -9.028   9.872  66.936  1.00  0.00    -0.138 C  
HETATM    2  S   UNL     1      -9.732  10.048  65.302  1.00  0.00    -0.312 SA 
HETATM    3  C   UNL     1     -10.605  11.556  65.687  1.00  0.00    -0.274 C  
HETATM    4  C   UNL     1     -11.276  11.635  67.052  1.00  0.00    -0.376 C  
HETATM    5  CA  UNL     1      -8.746   8.406  67.382  1.00  0.00    -0.135 C  
HETATM    6  CA  UNL     1     -11.009  10.830  68.114  1.00  0.00    -0.257 C  
HETATM    7  OXT UNL     1     -11.170  10.587  70.520  1.00  0.00    -0.314 OA 
HETATM    8  N   UNL     1     -10.051   9.858  67.975  1.00  0.00    -0.163 N  
HETATM    9  C   UNL     1     -11.705  10.897  69.464  1.00  0.00    -0.328 C  
HETATM   10  O   UNL     1      -9.365   8.603  69.866  1.00  0.00    -0.155 OA 
HETATM   11  C   UNL     1      -9.437   8.902  68.702  1.00  0.00    -0.151 C  
HETATM   12  O   UNL     1     -12.988  11.323  69.454  1.00  0.00     0.067 OA 
ENDROOT
BRANCH   4  13
HETATM   13  C   UNL     1     -12.249  12.720  67.009  1.00  0.00    -0.083 C  
HETATM   14  C   UNL     1     -12.097  14.017  67.310  1.00  0.00    -0.405 C  
BRANCH  14  15
HETATM   15  C   UNL     1     -10.913  14.678  67.741  1.00  0.00    -0.286 A  
HETATM   16  C   UNL     1      -9.820  15.083  66.974  1.00  0.00    -0.238 A  
HETATM   17  N   UNL     1      -8.696  15.467  67.690  1.00  0.00    -0.163 NA 
HETATM   18  S   UNL     1     -10.542  14.975  69.405  1.00  0.00    -0.251 SA 
HETATM   19  C   UNL     1      -9.715  15.114  65.487  1.00  0.00    -0.303 C  
HETATM   20  C   UNL     1      -8.955  15.432  68.974  1.00  0.00    -0.230 A  
ENDBRANCH  14  15
ENDBRANCH   4  13
BRANCH   5  21
HETATM   21  N   UNL     1      -9.320   7.319  66.526  1.00  0.00    -0.175 N  
HETATM   22  C   UNL     1      -9.202   5.940  66.539  1.00  0.00    -0.145 C  
HETATM   23  O   UNL     1      -9.987   5.288  65.848  1.00  0.00    -0.146 OA 
HETATM   24  H   UNL     1      -9.922   7.667  65.779  1.00  0.00     0.000 HD 
BRANCH  22  25
HETATM   25  C   UNL     1      -8.069   5.181  67.203  1.00  0.00    -0.104 C  
BRANCH  25  26
HETATM   26  C   UNL     1      -7.718   5.430  68.625  1.00  0.00    -0.084 A  
HETATM   27  H2  UNL     1      -5.712   7.107  72.010  1.00  0.00     0.000 HD 
HETATM   28  H1  UNL     1      -4.811   7.340  70.509  1.00  0.00     0.000 HD 
HETATM   29  C   UNL     1      -8.546   5.075  69.683  1.00  0.00    -0.088 A  
HETATM   30  N   UNL     1      -6.543   6.060  69.042  1.00  0.00    -0.049 NA 
HETATM   31  S   UNL     1      -7.924   5.646  71.167  1.00  0.00    -0.113 SA 
HETATM   32  N   UNL     1      -5.619   6.964  71.004  1.00  0.00    -0.027 NA 
HETATM   33  C   UNL     1      -6.564   6.279  70.335  1.00  0.00    -0.048 A  
ENDBRANCH  25  26
BRANCH  25  34
HETATM   34  N   UNL     1      -7.407   4.188  66.676  1.00  0.00    -0.075 NA 
HETATM   35  H   UNL     1      -7.336   4.125  65.661  1.00  0.00     0.000 HD 
BRANCH  34  36
HETATM   36  O   UNL     1      -6.791   3.207  67.461  1.00  0.00    -0.044 OA 
HETATM   37  C   UNL     1      -7.337   1.906  67.542  1.00  0.00    -0.055 C  
ENDBRANCH  34  36
ENDBRANCH  25  34
ENDBRANCH  22  25
ENDBRANCH   5  21
TORSDOF 7
ENDMDL
MODEL      178
REMARK 921   NORMALIZED FREE ENERGY PREDICTED BY IDOCK:   -4.07 KCAL/MOL
REMARK 922        TOTAL FREE ENERGY PREDICTED BY IDOCK:   -7.25 KCAL/MOL
REMARK 923 INTER-LIGAND FREE ENERGY PREDICTED BY IDOCK:   -5.45 KCAL/MOL
REMARK 924 INTRA-LIGAND FREE ENERGY PREDICTED BY IDOCK:   -1.81 KCAL/MOL
REMARK 927      BINDING AFFINITY PREDICTED BY RF-SCORE:    0.00 PKD
ROOT
HETATM    1  C   UNL     1      -9.563   4.165  67.409  1.00  0.00    -0.180 C  
HETATM    2  S   UNL     1      -8.018   3.462  67.971  1.00  0.00    -0.075 SA 
HETATM    3  C   UNL     1      -8.647   3.007  69.578  1.00  0.00    -0.067 C  
HETATM    4  C   UNL     1      -9.571   4.004  70.264  1.00  0.00    -0.271 C  
HETATM    5  CA  UNL     1      -9.427   5.313  66.366  1.00  0.00    -0.153 C  
HETATM    6  CA  UNL     1     -10.219   5.032  69.657  1.00  0.00    -0.236 C  
HETATM    7  OXT UNL     1     -12.063   6.597  69.812  1.00  0.00    -0.165 OA 
HETATM    8  N   UNL     1     -10.049   5.207  68.306  1.00  0.00    -0.155 N  
HETATM    9  C   UNL     1     -11.117   6.041  70.354  1.00  0.00    -0.329 C  
HETATM   10  O   UNL     1     -11.353   6.819  67.154  1.00  0.00    -0.330 OA 
HETATM   11  C   UNL     1     -10.481   6.001  67.305  1.00  0.00    -0.257 C  
HETATM   12  O   UNL     1     -10.818   6.315  71.644  1.00  0.00    -0.234 OA 
ENDROOT
BRANCH   4  13
HETATM   13  C   UNL     1      -9.632   3.657  71.679  1.00  0.00    -0.226 C  
HETATM   14  C   UNL     1      -8.755   3.911  72.660  1.00  0.00    -0.106 C  
BRANCH  14  15
HETATM   15  C   UNL     1      -7.521   4.616  72.565  1.00  0.00    -0.084 A  
HETATM   16  C   UNL     1      -6.242   4.097  72.365  1.00  0.00    -0.020 A  
HETATM   17  N   UNL     1      -5.197   4.985  72.575  1.00  0.00    -0.008 NA 
HETATM   18  S   UNL     1      -7.374   6.316  72.847  1.00  0.00    -0.096 SA 
HETATM   19  C   UNL     1      -5.876   2.702  71.990  1.00  0.00    -0.009 C  
HETATM   20  C   UNL     1      -5.674   6.173  72.850  1.00  0.00    -0.037 A  
ENDBRANCH  14  15
ENDBRANCH   4  13
BRANCH   5  21
HETATM   21  N   UNL     1      -8.053   5.867  66.147  1.00  0.00    -0.106 N  
HETATM   22  C   UNL     1      -7.583   7.101  65.732  1.00  0.00    -0.094 C  
HETATM   23  O   UNL     1      -6.382   7.338  65.875  1.00  0.00    -0.040 OA 
HETATM   24  H   UNL     1      -7.310   5.196  66.345  1.00  0.00     0.000 HD 
BRANCH  22  25
HETATM   25  C   UNL     1      -8.400   8.116  64.956  1.00  0.00    -0.136 C  
BRANCH  25  26
HETATM   26  C   UNL     1      -9.083   9.235  65.654  1.00  0.00    -0.216 A  
HETATM   27  H2  UNL     1     -11.753  12.517  66.281  1.00  0.00     0.000 HD 
HETATM   28  H1  UNL     1     -11.521  12.156  64.568  1.00  0.00     0.000 HD 
HETATM   29  C   UNL     1      -9.063   9.392  67.035  1.00  0.00    -0.134 A  
HETATM   30  N   UNL     1      -9.827  10.225  65.005  1.00  0.00    -0.310 NA 
HETATM   31  S   UNL     1     -10.074  10.678  67.521  1.00  0.00    -0.192 SA 
HETATM   32  N   UNL     1     -11.306  11.967  65.548  1.00  0.00    -0.341 NA 
HETATM   33  C   UNL     1     -10.436  10.996  65.875  1.00  0.00    -0.240 A  
ENDBRANCH  25  26
BRANCH  25  34
HETATM   34  N   UNL     1      -8.480   8.195  63.656  1.00  0.00    -0.400 NA 
HETATM   35  H   UNL     1      -9.113   8.878  63.240  1.00  0.00     0.000 HD 
BRANCH  34  36
HETATM   36  O   UNL     1      -7.723   7.371  62.816  1.00  0.00    -0.114 OA 
HETATM   37  C   UNL     1      -8.243   6.139  62.360  1.00  0.00    -0.085 C  
ENDBRANCH  34  36
ENDBRANCH  25  34
ENDBRANCH  22  25
ENDBRANCH   5  21
TORSDOF 7
ENDMDL
MODEL      179
REMARK 921   NORMALIZED FREE ENERGY PREDICTED BY IDOCK:   -4.06 KCAL/MOL
REMARK 922        TOTAL FREE ENERGY PREDICTED BY IDOCK:   -7.24 KCAL/MOL
REMARK 923 INTER-LIGAND FREE ENERGY PREDICTED BY IDOCK:   -5.72 KCAL/MOL
REMARK 924 INTRA-LIGAND FREE ENERGY PREDICTED BY IDOCK:   -1.52 KCAL/MOL
REMARK 927      BINDING AFFINITY PREDICTED BY RF-SCORE:    0.00 PKD
ROOT
HETATM    1  C   UNL     1      -7.206   9.797  70.003  1.00  0.00    -0.130 C  
HETATM    2  S   UNL     1      -8.126   9.196  71.414  1.00  0.00     0.191 SA 
HETATM    3  C   UNL     1      -7.375   7.577  71.392  1.00  0.00    -0.078 C  
HETATM    4  C   UNL     1      -7.155   6.937  70.027  1.00  0.00    -0.074 C  
HETATM    5  CA  UNL     1      -7.931  10.883  69.154  1.00  0.00    -0.112 C  
HETATM    6  CA  UNL     1      -7.164   7.590  68.835  1.00  0.00    -0.082 C  
HETATM    7  OXT UNL     1      -6.475   7.509  66.513  1.00  0.00    -0.047 OA 
HETATM    8  N   UNL     1      -7.382   8.945  68.832  1.00  0.00    -0.074 N  
HETATM    9  C   UNL     1      -6.973   6.939  67.475  1.00  0.00    -0.083 C  
HETATM   10  O   UNL     1      -7.151  10.169  66.814  1.00  0.00    -0.088 OA 
HETATM   11  C   UNL     1      -7.438   9.980  67.969  1.00  0.00    -0.088 C  
HETATM   12  O   UNL     1      -7.392   5.659  67.362  1.00  0.00    -0.074 OA 
ENDROOT
BRANCH   4  13
HETATM   13  C   UNL     1      -6.936   5.511  70.233  1.00  0.00    -0.061 C  
HETATM   14  C   UNL     1      -7.738   4.595  70.794  1.00  0.00    -0.061 C  
BRANCH  14  15
HETATM   15  C   UNL     1      -9.044   4.789  71.327  1.00  0.00    -0.138 A  
HETATM   16  C   UNL     1     -10.197   5.205  70.661  1.00  0.00    -0.256 A  
HETATM   17  N   UNL     1     -11.263   5.560  71.474  1.00  0.00    -0.114 NA 
HETATM   18  S   UNL     1      -9.407   4.682  73.015  1.00  0.00    -0.122 SA 
HETATM   19  C   UNL     1     -10.397   5.343  69.190  1.00  0.00    -0.300 C  
HETATM   20  C   UNL     1     -10.954   5.342  72.729  1.00  0.00    -0.275 A  
ENDBRANCH  14  15
ENDBRANCH   4  13
BRANCH   5  21
HETATM   21  N   UNL     1      -9.381  11.113  69.449  1.00  0.00    -0.378 N  
HETATM   22  C   UNL     1     -10.392  11.779  68.776  1.00  0.00    -0.179 C  
HETATM   23  O   UNL     1     -11.551  11.596  69.152  1.00  0.00    -0.258 OA 
HETATM   24  H   UNL     1      -9.687  10.693  70.327  1.00  0.00     0.000 HD 
BRANCH  22  25
HETATM   25  C   UNL     1     -10.165  12.849  67.726  1.00  0.00    -0.224 C  
BRANCH  25  26
HETATM   26  C   UNL     1     -10.667  12.671  66.339  1.00  0.00    -0.255 A  
HETATM   27  H2  UNL     1     -10.828  11.288  62.295  1.00  0.00     0.000 HD 
HETATM   28  H1  UNL     1      -9.221  11.112  63.003  1.00  0.00     0.000 HD 
HETATM   29  C   UNL     1     -11.972  12.965  65.962  1.00  0.00    -0.446 A  
HETATM   30  N   UNL     1      -9.896  12.173  65.285  1.00  0.00    -0.231 NA 
HETATM   31  S   UNL     1     -12.265  12.496  64.347  1.00  0.00    -0.452 SA 
HETATM   32  N   UNL     1     -10.191  11.416  63.080  1.00  0.00    -0.351 NA 
HETATM   33  C   UNL     1     -10.633  11.984  64.216  1.00  0.00    -0.334 A  
ENDBRANCH  25  26
BRANCH  25  34
HETATM   34  N   UNL     1      -9.656  14.031  67.941  1.00  0.00    -0.215 NA 
HETATM   35  H   UNL     1      -9.838  14.776  67.269  1.00  0.00     0.000 HD 
BRANCH  34  36
HETATM   36  O   UNL     1      -8.869  14.306  69.064  1.00  0.00    -0.080 OA 
HETATM   37  C   UNL     1      -8.387  15.613  69.300  1.00  0.00    -0.256 C  
ENDBRANCH  34  36
ENDBRANCH  25  34
ENDBRANCH  22  25
ENDBRANCH   5  21
TORSDOF 7
ENDMDL
MODEL      180
REMARK 921   NORMALIZED FREE ENERGY PREDICTED BY IDOCK:   -4.05 KCAL/MOL
REMARK 922        TOTAL FREE ENERGY PREDICTED BY IDOCK:   -7.21 KCAL/MOL
REMARK 923 INTER-LIGAND FREE ENERGY PREDICTED BY IDOCK:   -7.11 KCAL/MOL
REMARK 924 INTRA-LIGAND FREE ENERGY PREDICTED BY IDOCK:   -0.10 KCAL/MOL
REMARK 927      BINDING AFFINITY PREDICTED BY RF-SCORE:    0.00 PKD
ROOT
HETATM    1  C   UNL     1      -9.414   8.929  68.546  1.00  0.00    -0.147 C  
HETATM    2  S   UNL     1      -9.646   9.701  66.951  1.00  0.00    -0.177 SA 
HETATM    3  C   UNL     1     -10.016  11.311  67.626  1.00  0.00    -0.178 C  
HETATM    4  C   UNL     1     -10.899  11.352  68.866  1.00  0.00    -0.259 C  
HETATM    5  CA  UNL     1      -9.751   7.409  68.603  1.00  0.00    -0.152 C  
HETATM    6  CA  UNL     1     -11.157  10.303  69.691  1.00  0.00    -0.274 C  
HETATM    7  OXT UNL     1     -11.905   9.639  71.898  1.00  0.00    -0.367 OA 
HETATM    8  N   UNL     1     -10.580   9.090  69.408  1.00  0.00    -0.228 N  
HETATM    9  C   UNL     1     -12.062  10.346  70.911  1.00  0.00    -0.374 C  
HETATM   10  O   UNL     1     -10.786   7.301  70.950  1.00  0.00    -0.229 OA 
HETATM   11  C   UNL     1     -10.499   7.843  69.913  1.00  0.00    -0.229 C  
HETATM   12  O   UNL     1     -13.089  11.223  70.862  1.00  0.00    -0.211 OA 
ENDROOT
BRANCH   4  13
HETATM   13  C   UNL     1     -11.411  12.710  69.005  1.00  0.00    -0.354 C  
HETATM   14  C   UNL     1     -11.570  13.663  68.076  1.00  0.00    -0.368 C  
BRANCH  14  15
HETATM   15  C   UNL     1     -11.286  13.578  66.683  1.00  0.00    -0.312 A  
HETATM   16  C   UNL     1     -10.238  14.171  65.977  1.00  0.00    -0.308 A  
HETATM   17  N   UNL     1     -10.352  14.135  64.596  1.00  0.00    -0.384 NA 
HETATM   18  S   UNL     1     -12.333  12.806  65.544  1.00  0.00    -0.339 SA 
HETATM   19  C   UNL     1      -9.042  14.862  66.537  1.00  0.00    -0.309 C  
HETATM   20  C   UNL     1     -11.422  13.459  64.257  1.00  0.00    -0.393 A  
ENDBRANCH  14  15
ENDBRANCH   4  13
BRANCH   5  21
HETATM   21  N   UNL     1     -10.461   6.831  67.417  1.00  0.00    -0.225 N  
HETATM   22  C   UNL     1     -10.394   5.606  66.777  1.00  0.00    -0.262 C  
HETATM   23  O   UNL     1     -11.279   5.333  65.963  1.00  0.00    -0.019 OA 
HETATM   24  H   UNL     1     -11.131   7.474  66.994  1.00  0.00     0.000 HD 
BRANCH  22  25
HETATM   25  C   UNL     1      -9.223   4.648  66.873  1.00  0.00    -0.127 C  
BRANCH  25  26
HETATM   26  C   UNL     1      -8.963   3.887  68.122  1.00  0.00    -0.121 A  
HETATM   27  H2  UNL     1      -7.740   3.111  72.147  1.00  0.00     0.000 HD 
HETATM   28  H1  UNL     1      -7.068   4.618  71.517  1.00  0.00     0.000 HD 
HETATM   29  C   UNL     1      -9.532   2.647  68.386  1.00  0.00    -0.149 A  
HETATM   30  N   UNL     1      -8.149   4.343  69.162  1.00  0.00    -0.068 NA 
HETATM   31  S   UNL     1      -9.160   2.125  69.968  1.00  0.00    -0.114 SA 
HETATM   32  N   UNL     1      -7.628   3.776  71.382  1.00  0.00    -0.054 NA 
HETATM   33  C   UNL     1      -8.218   3.540  70.197  1.00  0.00    -0.048 A  
ENDBRANCH  25  26
BRANCH  25  34
HETATM   34  N   UNL     1      -8.440   4.302  65.888  1.00  0.00    -0.113 NA 
HETATM   35  H   UNL     1      -8.097   3.343  65.843  1.00  0.00     0.000 HD 
BRANCH  34  36
HETATM   36  O   UNL     1      -8.057   5.207  64.892  1.00  0.00    -0.106 OA 
HETATM   37  C   UNL     1      -8.274   4.907  63.528  1.00  0.00    -0.111 C  
ENDBRANCH  34  36
ENDBRANCH  25  34
ENDBRANCH  22  25
ENDBRANCH   5  21
TORSDOF 7
ENDMDL
MODEL      181
REMARK 921   NORMALIZED FREE ENERGY PREDICTED BY IDOCK:   -4.04 KCAL/MOL
REMARK 922        TOTAL FREE ENERGY PREDICTED BY IDOCK:   -7.21 KCAL/MOL
REMARK 923 INTER-LIGAND FREE ENERGY PREDICTED BY IDOCK:   -5.87 KCAL/MOL
REMARK 924 INTRA-LIGAND FREE ENERGY PREDICTED BY IDOCK:   -1.34 KCAL/MOL
REMARK 927      BINDING AFFINITY PREDICTED BY RF-SCORE:    0.00 PKD
ROOT
HETATM    1  C   UNL     1      -8.986  11.348  68.233  1.00  0.00    -0.175 C  
HETATM    2  S   UNL     1     -10.262  10.804  69.361  1.00  0.00    -0.104 SA 
HETATM    3  C   UNL     1     -11.459  12.007  68.809  1.00  0.00    -0.300 C  
HETATM    4  C   UNL     1     -10.944  13.412  68.524  1.00  0.00    -0.292 C  
HETATM    5  CA  UNL     1      -7.526  11.130  68.729  1.00  0.00    -0.118 C  
HETATM    6  CA  UNL     1      -9.644  13.754  68.330  1.00  0.00    -0.219 C  
HETATM    7  OXT UNL     1      -8.136  15.416  67.414  1.00  0.00    -0.150 OA 
HETATM    8  N   UNL     1      -8.691  12.768  68.384  1.00  0.00    -0.158 N  
HETATM    9  C   UNL     1      -9.135  15.164  68.075  1.00  0.00    -0.180 C  
HETATM   10  O   UNL     1      -6.447  13.266  67.797  1.00  0.00    -0.129 OA 
HETATM   11  C   UNL     1      -7.361  12.607  68.225  1.00  0.00    -0.116 C  
HETATM   12  O   UNL     1      -9.851  16.167  68.629  1.00  0.00    -0.212 OA 
ENDROOT
BRANCH   4  13
HETATM   13  C   UNL     1     -12.091  14.311  68.499  1.00  0.00    -0.295 C  
HETATM   14  C   UNL     1     -12.698  14.951  69.509  1.00  0.00     0.088 C  
BRANCH  14  15
HETATM   15  C   UNL     1     -12.354  14.924  70.890  1.00  0.00    -0.328 A  
HETATM   16  C   UNL     1     -12.704  13.973  71.850  1.00  0.00    -0.300 A  
HETATM   17  N   UNL     1     -12.453  14.330  73.166  1.00  0.00    -0.179 NA 
HETATM   18  S   UNL     1     -11.523  16.213  71.689  1.00  0.00    -0.197 SA 
HETATM   19  C   UNL     1     -13.343  12.645  71.622  1.00  0.00    -0.315 C  
HETATM   20  C   UNL     1     -11.851  15.493  73.201  1.00  0.00    -0.431 A  
ENDBRANCH  14  15
ENDBRANCH   4  13
BRANCH   5  21
HETATM   21  N   UNL     1      -7.353  10.739  70.165  1.00  0.00    -0.269 N  
HETATM   22  C   UNL     1      -6.905   9.586  70.787  1.00  0.00    -0.103 C  
HETATM   23  O   UNL     1      -6.648   9.644  71.991  1.00  0.00    -0.270 OA 
HETATM   24  H   UNL     1      -7.621  11.475  70.820  1.00  0.00     0.000 HD 
BRANCH  22  25
HETATM   25  C   UNL     1      -6.872   8.217  70.137  1.00  0.00    -0.040 C  
BRANCH  25  26
HETATM   26  C   UNL     1      -7.913   7.203  70.448  1.00  0.00    -0.112 A  
HETATM   27  H2  UNL     1     -11.334   4.695  69.905  1.00  0.00     0.000 HD 
HETATM   28  H1  UNL     1     -11.292   6.033  68.755  1.00  0.00     0.000 HD 
HETATM   29  C   UNL     1      -7.788   6.281  71.480  1.00  0.00    -0.101 A  
HETATM   30  N   UNL     1      -9.102   7.057  69.728  1.00  0.00    -0.145 NA 
HETATM   31  S   UNL     1      -9.077   5.162  71.462  1.00  0.00    -0.146 SA 
HETATM   32  N   UNL     1     -10.886   5.538  69.549  1.00  0.00    -0.273 NA 
HETATM   33  C   UNL     1      -9.761   5.994  70.127  1.00  0.00    -0.167 A  
ENDBRANCH  25  26
BRANCH  25  34
HETATM   34  N   UNL     1      -6.057   7.844  69.189  1.00  0.00    -0.034 NA 
HETATM   35  H   UNL     1      -5.052   7.918  69.344  1.00  0.00     0.000 HD 
BRANCH  34  36
HETATM   36  O   UNL     1      -6.521   7.346  67.966  1.00  0.00    -0.046 OA 
HETATM   37  C   UNL     1      -6.222   8.017  66.759  1.00  0.00    -0.054 C  
ENDBRANCH  34  36
ENDBRANCH  25  34
ENDBRANCH  22  25
ENDBRANCH   5  21
TORSDOF 7
ENDMDL
MODEL      182
REMARK 921   NORMALIZED FREE ENERGY PREDICTED BY IDOCK:   -4.00 KCAL/MOL
REMARK 922        TOTAL FREE ENERGY PREDICTED BY IDOCK:   -7.15 KCAL/MOL
REMARK 923 INTER-LIGAND FREE ENERGY PREDICTED BY IDOCK:   -5.52 KCAL/MOL
REMARK 924 INTRA-LIGAND FREE ENERGY PREDICTED BY IDOCK:   -1.63 KCAL/MOL
REMARK 927      BINDING AFFINITY PREDICTED BY RF-SCORE:    0.00 PKD
ROOT
HETATM    1  C   UNL     1      -7.680   8.334  66.710  1.00  0.00    -0.094 C  
HETATM    2  S   UNL     1      -6.045   7.866  67.262  1.00  0.00    -0.055 SA 
HETATM    3  C   UNL     1      -6.176   6.184  66.679  1.00  0.00    -0.037 C  
HETATM    4  C   UNL     1      -7.513   5.484  66.888  1.00  0.00    -0.088 C  
HETATM    5  CA  UNL     1      -8.365   9.456  67.545  1.00  0.00    -0.122 C  
HETATM    6  CA  UNL     1      -8.694   6.098  67.164  1.00  0.00    -0.106 C  
HETATM    7  OXT UNL     1     -11.107   5.881  67.135  1.00  0.00    -0.256 OA 
HETATM    8  N   UNL     1      -8.714   7.467  67.263  1.00  0.00    -0.120 N  
HETATM    9  C   UNL     1     -10.019   5.390  67.400  1.00  0.00    -0.168 C  
HETATM   10  O   UNL     1     -10.785   8.600  67.485  1.00  0.00    -0.249 OA 
HETATM   11  C   UNL     1      -9.587   8.474  67.465  1.00  0.00    -0.154 C  
HETATM   12  O   UNL     1      -9.946   4.152  67.938  1.00  0.00    -0.089 OA 
ENDROOT
BRANCH   4  13
HETATM   13  C   UNL     1      -7.295   4.051  66.739  1.00  0.00    -0.072 C  
HETATM   14  C   UNL     1      -7.537   3.253  65.690  1.00  0.00    -0.077 C  
BRANCH  14  15
HETATM   15  C   UNL     1      -8.067   3.620  64.420  1.00  0.00    -0.086 A  
HETATM   16  C   UNL     1      -7.423   4.281  63.373  1.00  0.00    -0.054 A  
HETATM   17  N   UNL     1      -8.249   4.740  62.358  1.00  0.00    -0.077 NA 
HETATM   18  S   UNL     1      -9.733   3.432  63.994  1.00  0.00    -0.173 SA 
HETATM   19  C   UNL     1      -5.968   4.575  63.243  1.00  0.00    -0.017 C  
HETATM   20  C   UNL     1      -9.484   4.366  62.589  1.00  0.00    -0.118 A  
ENDBRANCH  14  15
ENDBRANCH   4  13
BRANCH   5  21
HETATM   21  N   UNL     1      -7.708   9.830  68.839  1.00  0.00    -0.080 N  
HETATM   22  C   UNL     1      -8.071   9.674  70.166  1.00  0.00    -0.189 C  
HETATM   23  O   UNL     1      -7.210   9.872  71.025  1.00  0.00    -0.330 OA 
HETATM   24  H   UNL     1      -6.809  10.296  68.717  1.00  0.00     0.000 HD 
BRANCH  22  25
HETATM   25  C   UNL     1      -9.491   9.448  70.647  1.00  0.00    -0.262 C  
BRANCH  25  26
HETATM   26  C   UNL     1      -9.798   8.382  71.636  1.00  0.00    -0.221 A  
HETATM   27  H2  UNL     1     -11.017   4.576  73.158  1.00  0.00     0.000 HD 
HETATM   28  H1  UNL     1     -11.558   4.842  71.499  1.00  0.00     0.000 HD 
HETATM   29  C   UNL     1      -9.342   8.413  72.949  1.00  0.00    -0.212 A  
HETATM   30  N   UNL     1     -10.549   7.240  71.348  1.00  0.00    -0.212 NA 
HETATM   31  S   UNL     1      -9.733   6.967  73.767  1.00  0.00    -0.303 SA 
HETATM   32  N   UNL     1     -11.081   5.176  72.336  1.00  0.00    -0.189 NA 
HETATM   33  C   UNL     1     -10.535   6.404  72.360  1.00  0.00    -0.198 A  
ENDBRANCH  25  26
BRANCH  25  34
HETATM   34  N   UNL     1     -10.518  10.204  70.371  1.00  0.00    -0.412 NA 
HETATM   35  H   UNL     1     -10.576  10.641  69.451  1.00  0.00     0.000 HD 
BRANCH  34  36
HETATM   36  O   UNL     1     -11.541  10.433  71.297  1.00  0.00    -0.311 OA 
HETATM   37  C   UNL     1     -12.885  10.146  70.968  1.00  0.00    -0.382 C  
ENDBRANCH  34  36
ENDBRANCH  25  34
ENDBRANCH  22  25
ENDBRANCH   5  21
TORSDOF 7
ENDMDL
MODEL      183
REMARK 921   NORMALIZED FREE ENERGY PREDICTED BY IDOCK:   -3.98 KCAL/MOL
REMARK 922        TOTAL FREE ENERGY PREDICTED BY IDOCK:   -7.12 KCAL/MOL
REMARK 923 INTER-LIGAND FREE ENERGY PREDICTED BY IDOCK:   -5.30 KCAL/MOL
REMARK 924 INTRA-LIGAND FREE ENERGY PREDICTED BY IDOCK:   -1.82 KCAL/MOL
REMARK 927      BINDING AFFINITY PREDICTED BY RF-SCORE:    0.00 PKD
ROOT
HETATM    1  C   UNL     1      -8.303   8.207  67.718  1.00  0.00    -0.128 C  
HETATM    2  S   UNL     1      -6.578   8.501  68.084  1.00  0.00    -0.062 SA 
HETATM    3  C   UNL     1      -5.984   7.188  67.032  1.00  0.00    -0.033 C  
HETATM    4  C   UNL     1      -6.775   5.886  67.042  1.00  0.00    -0.061 C  
HETATM    5  CA  UNL     1      -9.296   8.585  68.857  1.00  0.00    -0.146 C  
HETATM    6  CA  UNL     1      -8.044   5.732  67.504  1.00  0.00    -0.102 C  
HETATM    7  OXT UNL     1     -10.033   4.350  67.445  1.00  0.00    -0.170 OA 
HETATM    8  N   UNL     1      -8.696   6.832  68.004  1.00  0.00    -0.118 N  
HETATM    9  C   UNL     1      -8.815   4.423  67.537  1.00  0.00    -0.108 C  
HETATM   10  O   UNL     1     -10.992   6.676  68.579  1.00  0.00    -0.258 OA 
HETATM   11  C   UNL     1      -9.899   7.178  68.506  1.00  0.00    -0.153 C  
HETATM   12  O   UNL     1      -8.077   3.300  67.684  1.00  0.00    -0.079 OA 
ENDROOT
BRANCH   4  13
HETATM   13  C   UNL     1      -5.928   4.845  66.473  1.00  0.00    -0.023 C  
HETATM   14  C   UNL     1      -5.996   4.245  65.276  1.00  0.00    -0.023 C  
BRANCH  14  15
HETATM   15  C   UNL     1      -6.929   4.495  64.229  1.00  0.00    -0.046 A  
HETATM   16  C   UNL     1      -7.045   5.630  63.427  1.00  0.00    -0.046 A  
HETATM   17  N   UNL     1      -8.201   5.710  62.667  1.00  0.00    -0.105 NA 
HETATM   18  S   UNL     1      -8.243   3.435  63.854  1.00  0.00    -0.090 SA 
HETATM   19  C   UNL     1      -6.091   6.771  63.324  1.00  0.00    -0.042 C  
HETATM   20  C   UNL     1      -8.912   4.620  62.826  1.00  0.00    -0.120 A  
ENDBRANCH  14  15
ENDBRANCH   4  13
BRANCH   5  21
HETATM   21  N   UNL     1      -8.699   8.900  70.195  1.00  0.00    -0.148 N  
HETATM   22  C   UNL     1      -8.950   8.442  71.477  1.00  0.00    -0.194 C  
HETATM   23  O   UNL     1      -8.130   8.714  72.356  1.00  0.00    -0.328 OA 
HETATM   24  H   UNL     1      -7.956   9.598  70.152  1.00  0.00     0.000 HD 
BRANCH  22  25
HETATM   25  C   UNL     1     -10.241   7.778  71.915  1.00  0.00    -0.202 C  
BRANCH  25  26
HETATM   26  C   UNL     1     -11.504   8.556  71.999  1.00  0.00    -0.361 A  
HETATM   27  H2  UNL     1     -14.245  11.795  71.465  1.00  0.00     0.000 HD 
HETATM   28  H1  UNL     1     -12.566  12.288  71.228  1.00  0.00     0.000 HD 
HETATM   29  C   UNL     1     -12.731   7.976  72.299  1.00  0.00    -0.207 A  
HETATM   30  N   UNL     1     -11.594   9.930  71.766  1.00  0.00    -0.195 NA 
HETATM   31  S   UNL     1     -13.997   9.112  72.155  1.00  0.00    -0.350 SA 
HETATM   32  N   UNL     1     -13.250  11.569  71.461  1.00  0.00    -0.313 NA 
HETATM   33  C   UNL     1     -12.847  10.322  71.763  1.00  0.00    -0.460 A  
ENDBRANCH  25  26
BRANCH  25  34
HETATM   34  N   UNL     1     -10.408   6.501  72.123  1.00  0.00    -0.196 NA 
HETATM   35  H   UNL     1     -11.015   5.974  71.497  1.00  0.00     0.000 HD 
BRANCH  34  36
HETATM   36  O   UNL     1      -9.779   5.834  73.180  1.00  0.00    -0.153 OA 
HETATM   37  C   UNL     1     -10.523   5.004  74.049  1.00  0.00    -0.279 C  
ENDBRANCH  34  36
ENDBRANCH  25  34
ENDBRANCH  22  25
ENDBRANCH   5  21
TORSDOF 7
ENDMDL
MODEL      184
REMARK 921   NORMALIZED FREE ENERGY PREDICTED BY IDOCK:   -3.97 KCAL/MOL
REMARK 922        TOTAL FREE ENERGY PREDICTED BY IDOCK:   -7.11 KCAL/MOL
REMARK 923 INTER-LIGAND FREE ENERGY PREDICTED BY IDOCK:   -6.06 KCAL/MOL
REMARK 924 INTRA-LIGAND FREE ENERGY PREDICTED BY IDOCK:   -1.05 KCAL/MOL
REMARK 927      BINDING AFFINITY PREDICTED BY RF-SCORE:    0.00 PKD
ROOT
HETATM    1  C   UNL     1      -9.370  10.165  69.567  1.00  0.00    -0.210 C  
HETATM    2  S   UNL     1     -11.142  10.216  69.797  1.00  0.00    -0.294 SA 
HETATM    3  C   UNL     1     -11.275   8.494  70.247  1.00  0.00    -0.179 C  
HETATM    4  C   UNL     1     -10.422   7.508  69.459  1.00  0.00    -0.227 C  
HETATM    5  CA  UNL     1      -8.808  11.176  68.524  1.00  0.00    -0.161 C  
HETATM    6  CA  UNL     1      -9.347   7.827  68.691  1.00  0.00    -0.148 C  
HETATM    7  OXT UNL     1      -7.329   6.992  67.641  1.00  0.00    -0.091 OA 
HETATM    8  N   UNL     1      -8.972   9.144  68.605  1.00  0.00    -0.136 N  
HETATM    9  C   UNL     1      -8.519   6.840  67.885  1.00  0.00    -0.119 C  
HETATM   10  O   UNL     1      -6.958   9.723  67.493  1.00  0.00    -0.081 OA 
HETATM   11  C   UNL     1      -8.014   9.910  68.044  1.00  0.00    -0.100 C  
HETATM   12  O   UNL     1      -9.171   5.749  67.425  1.00  0.00    -0.111 OA 
ENDROOT
BRANCH   4  13
HETATM   13  C   UNL     1     -10.965   6.173  69.678  1.00  0.00    -0.459 C  
HETATM   14  C   UNL     1     -10.540   5.199  70.495  1.00  0.00    -0.221 C  
BRANCH  14  15
HETATM   15  C   UNL     1      -9.432   5.234  71.389  1.00  0.00    -0.151 A  
HETATM   16  C   UNL     1      -9.307   5.942  72.584  1.00  0.00    -0.143 A  
HETATM   17  N   UNL     1      -8.027   5.999  73.116  1.00  0.00    -0.108 NA 
HETATM   18  S   UNL     1      -7.913   4.481  71.049  1.00  0.00    -0.078 SA 
HETATM   19  C   UNL     1     -10.378   6.666  73.328  1.00  0.00    -0.275 C  
HETATM   20  C   UNL     1      -7.212   5.282  72.382  1.00  0.00    -0.092 A  
ENDBRANCH  14  15
ENDBRANCH   4  13
BRANCH   5  21
HETATM   21  N   UNL     1      -9.809  11.880  67.660  1.00  0.00    -0.184 N  
HETATM   22  C   UNL     1      -9.961  13.199  67.267  1.00  0.00    -0.230 C  
HETATM   23  O   UNL     1     -10.752  13.440  66.353  1.00  0.00    -0.283 OA 
HETATM   24  H   UNL     1     -10.528  11.260  67.285  1.00  0.00     0.000 HD 
BRANCH  22  25
HETATM   25  C   UNL     1      -9.357  14.387  67.991  1.00  0.00    -0.200 C  
BRANCH  25  26
HETATM   26  C   UNL     1      -9.449  15.754  67.417  1.00  0.00    -0.212 A  
HETATM   27  H2  UNL     1     -10.995  19.664  66.637  1.00  0.00     0.000 HD 
HETATM   28  H1  UNL     1     -12.214  18.581  67.313  1.00  0.00     0.000 HD 
HETATM   29  C   UNL     1      -8.368  16.404  66.833  1.00  0.00    -0.228 A  
HETATM   30  N   UNL     1     -10.611  16.530  67.424  1.00  0.00    -0.317 NA 
HETATM   31  S   UNL     1      -8.768  18.012  66.424  1.00  0.00    -0.184 SA 
HETATM   32  N   UNL     1     -11.264  18.742  66.978  1.00  0.00     0.103 NA 
HETATM   33  C   UNL     1     -10.365  17.742  66.986  1.00  0.00    -0.344 A  
ENDBRANCH  25  26
BRANCH  25  34
HETATM   34  N   UNL     1      -8.843  14.366  69.190  1.00  0.00    -0.382 NA 
HETATM   35  H   UNL     1      -9.466  14.297  69.994  1.00  0.00     0.000 HD 
BRANCH  34  36
HETATM   36  O   UNL     1      -7.462  14.434  69.405  1.00  0.00    -0.112 OA 
HETATM   37  C   UNL     1      -6.559  13.969  68.422  1.00  0.00    -0.106 C  
ENDBRANCH  34  36
ENDBRANCH  25  34
ENDBRANCH  22  25
ENDBRANCH   5  21
TORSDOF 7
ENDMDL
MODEL      185
REMARK 921   NORMALIZED FREE ENERGY PREDICTED BY IDOCK:   -3.97 KCAL/MOL
REMARK 922        TOTAL FREE ENERGY PREDICTED BY IDOCK:   -7.10 KCAL/MOL
REMARK 923 INTER-LIGAND FREE ENERGY PREDICTED BY IDOCK:   -5.63 KCAL/MOL
REMARK 924 INTRA-LIGAND FREE ENERGY PREDICTED BY IDOCK:   -1.48 KCAL/MOL
REMARK 927      BINDING AFFINITY PREDICTED BY RF-SCORE:    0.00 PKD
ROOT
HETATM    1  C   UNL     1      -7.992  14.122  68.559  1.00  0.00    -0.145 C  
HETATM    2  S   UNL     1      -6.363  14.111  67.823  1.00  0.00    -0.120 SA 
HETATM    3  C   UNL     1      -6.436  15.814  67.294  1.00  0.00    -0.104 C  
HETATM    4  C   UNL     1      -7.762  16.303  66.723  1.00  0.00    -0.295 C  
HETATM    5  CA  UNL     1      -8.728  12.749  68.560  1.00  0.00    -0.045 C  
HETATM    6  CA  UNL     1      -8.964  15.689  66.876  1.00  0.00    -0.241 C  
HETATM    7  OXT UNL     1     -11.370  15.969  66.793  1.00  0.00     0.002 OA 
HETATM    8  N   UNL     1      -9.020  14.529  67.609  1.00  0.00    -0.185 N  
HETATM    9  C   UNL     1     -10.278  16.167  66.278  1.00  0.00    -0.320 C  
HETATM   10  O   UNL     1     -11.124  13.562  68.122  1.00  0.00    -0.240 OA 
HETATM   11  C   UNL     1      -9.923  13.631  68.053  1.00  0.00    -0.247 C  
HETATM   12  O   UNL     1     -10.191  16.841  65.110  1.00  0.00    -0.599 OA 
ENDROOT
BRANCH   4  13
HETATM   13  C   UNL     1      -7.505  17.536  65.990  1.00  0.00    -0.274 C  
HETATM   14  C   UNL     1      -7.851  18.796  66.287  1.00  0.00    -0.295 C  
BRANCH  14  15
HETATM   15  C   UNL     1      -8.561  19.257  67.432  1.00  0.00    -0.292 A  
HETATM   16  C   UNL     1      -8.149  19.251  68.765  1.00  0.00    -0.356 A  
HETATM   17  N   UNL     1      -9.139  19.518  69.698  1.00  0.00     0.220 NA 
HETATM   18  S   UNL     1     -10.204  19.796  67.379  1.00  0.00    -0.456 SA 
HETATM   19  C   UNL     1      -6.786  18.957  69.294  1.00  0.00    -0.298 C  
HETATM   20  C   UNL     1     -10.262  19.801  69.084  1.00  0.00    -0.204 A  
ENDBRANCH  14  15
ENDBRANCH   4  13
BRANCH   5  21
HETATM   21  N   UNL     1      -8.119  11.657  67.735  1.00  0.00    -0.132 N  
HETATM   22  C   UNL     1      -7.882  10.313  67.967  1.00  0.00    -0.100 C  
HETATM   23  O   UNL     1      -7.579   9.607  67.003  1.00  0.00    -0.094 OA 
HETATM   24  H   UNL     1      -7.816  11.969  66.812  1.00  0.00     0.000 HD 
BRANCH  22  25
HETATM   25  C   UNL     1      -7.798   9.680  69.342  1.00  0.00    -0.104 C  
BRANCH  25  26
HETATM   26  C   UNL     1      -6.790  10.141  70.331  1.00  0.00    -0.124 A  
HETATM   27  H2  UNL     1      -4.537  12.824  72.784  1.00  0.00     0.000 HD 
HETATM   28  H1  UNL     1      -5.367  13.654  71.465  1.00  0.00     0.000 HD 
HETATM   29  C   UNL     1      -6.174   9.288  71.239  1.00  0.00    -0.079 A  
HETATM   30  N   UNL     1      -6.378  11.469  70.467  1.00  0.00    -0.249 NA 
HETATM   31  S   UNL     1      -5.197  10.160  72.334  1.00  0.00     0.157 SA 
HETATM   32  N   UNL     1      -5.129  12.791  71.955  1.00  0.00    -0.330 NA 
HETATM   33  C   UNL     1      -5.595  11.611  71.511  1.00  0.00     0.333 A  
ENDBRANCH  25  26
BRANCH  25  34
HETATM   34  N   UNL     1      -8.637   8.808  69.831  1.00  0.00    -0.128 NA 
HETATM   35  H   UNL     1      -8.909   8.880  70.811  1.00  0.00     0.000 HD 
BRANCH  34  36
HETATM   36  O   UNL     1      -9.175   7.779  69.051  1.00  0.00    -0.144 OA 
HETATM   37  C   UNL     1     -10.559   7.743  68.765  1.00  0.00    -0.135 C  
ENDBRANCH  34  36
ENDBRANCH  25  34
ENDBRANCH  22  25
ENDBRANCH   5  21
TORSDOF 7
ENDMDL
MODEL      186
REMARK 921   NORMALIZED FREE ENERGY PREDICTED BY IDOCK:   -3.97 KCAL/MOL
REMARK 922        TOTAL FREE ENERGY PREDICTED BY IDOCK:   -7.10 KCAL/MOL
REMARK 923 INTER-LIGAND FREE ENERGY PREDICTED BY IDOCK:   -5.83 KCAL/MOL
REMARK 924 INTRA-LIGAND FREE ENERGY PREDICTED BY IDOCK:   -1.27 KCAL/MOL
REMARK 927      BINDING AFFINITY PREDICTED BY RF-SCORE:    0.00 PKD
ROOT
HETATM    1  C   UNL     1      -7.881  10.069  66.931  1.00  0.00    -0.106 C  
HETATM    2  S   UNL     1      -6.155   9.644  66.742  1.00  0.00    -0.064 SA 
HETATM    3  C   UNL     1      -6.243   8.216  67.809  1.00  0.00    -0.052 C  
HETATM    4  C   UNL     1      -7.082   8.351  69.073  1.00  0.00    -0.069 C  
HETATM    5  CA  UNL     1      -8.210  11.585  66.791  1.00  0.00    -0.164 C  
HETATM    6  CA  UNL     1      -8.017   9.310  69.306  1.00  0.00    -0.098 C  
HETATM    7  OXT UNL     1      -9.958   9.923  70.620  1.00  0.00    -0.215 OA 
HETATM    8  N   UNL     1      -8.252  10.246  68.330  1.00  0.00    -0.113 N  
HETATM    9  C   UNL     1      -8.828   9.455  70.583  1.00  0.00    -0.220 C  
HETATM   10  O   UNL     1     -10.046  11.777  68.576  1.00  0.00    -0.206 OA 
HETATM   11  C   UNL     1      -9.055  11.301  68.084  1.00  0.00    -0.166 C  
HETATM   12  O   UNL     1      -8.231   9.036  71.720  1.00  0.00    -0.351 OA 
ENDROOT
BRANCH   4  13
HETATM   13  C   UNL     1      -6.699   7.276  69.980  1.00  0.00    -0.051 C  
HETATM   14  C   UNL     1      -7.431   6.260  70.459  1.00  0.00    -0.091 C  
BRANCH  14  15
HETATM   15  C   UNL     1      -8.795   5.962  70.181  1.00  0.00    -0.142 A  
HETATM   16  C   UNL     1      -9.345   5.443  69.008  1.00  0.00    -0.127 A  
HETATM   17  N   UNL     1     -10.728   5.498  68.921  1.00  0.00    -0.192 NA 
HETATM   18  S   UNL     1     -10.092   6.354  71.256  1.00  0.00    -0.189 SA 
HETATM   19  C   UNL     1      -8.618   4.875  67.837  1.00  0.00    -0.103 C  
HETATM   20  C   UNL     1     -11.223   5.974  70.037  1.00  0.00    -0.355 A  
ENDBRANCH  14  15
ENDBRANCH   4  13
BRANCH   5  21
HETATM   21  N   UNL     1      -7.046  12.528  66.774  1.00  0.00    -0.337 N  
HETATM   22  C   UNL     1      -6.656  13.567  67.602  1.00  0.00    -0.168 C  
HETATM   23  O   UNL     1      -5.515  14.013  67.467  1.00  0.00    -0.340 OA 
HETATM   24  H   UNL     1      -6.411  12.373  65.991  1.00  0.00     0.000 HD 
BRANCH  22  25
HETATM   25  C   UNL     1      -7.583  14.311  68.543  1.00  0.00    -0.127 C  
BRANCH  25  26
HETATM   26  C   UNL     1      -8.781  15.022  68.025  1.00  0.00    -0.159 A  
HETATM   27  H2  UNL     1     -11.591  16.584  65.205  1.00  0.00     0.000 HD 
HETATM   28  H1  UNL     1     -10.047  16.167  64.457  1.00  0.00     0.000 HD 
HETATM   29  C   UNL     1      -9.872  15.346  68.822  1.00  0.00    -0.211 A  
HETATM   30  N   UNL     1      -8.944  15.413  66.694  1.00  0.00    -0.264 NA 
HETATM   31  S   UNL     1     -11.139  16.008  67.888  1.00  0.00    -0.266 SA 
HETATM   32  N   UNL     1     -10.635  16.240  65.287  1.00  0.00    -0.581 NA 
HETATM   33  C   UNL     1     -10.152  15.885  66.491  1.00  0.00    -0.282 A  
ENDBRANCH  25  26
BRANCH  25  34
HETATM   34  N   UNL     1      -7.516  14.298  69.846  1.00  0.00    -0.355 NA 
HETATM   35  H   UNL     1      -7.984  15.035  70.372  1.00  0.00     0.000 HD 
BRANCH  34  36
HETATM   36  O   UNL     1      -6.820  13.304  70.542  1.00  0.00     0.494 OA 
HETATM   37  C   UNL     1      -5.722  13.639  71.367  1.00  0.00    -0.158 C  
ENDBRANCH  34  36
ENDBRANCH  25  34
ENDBRANCH  22  25
ENDBRANCH   5  21
TORSDOF 7
ENDMDL
MODEL      187
REMARK 921   NORMALIZED FREE ENERGY PREDICTED BY IDOCK:   -3.93 KCAL/MOL
REMARK 922        TOTAL FREE ENERGY PREDICTED BY IDOCK:   -7.05 KCAL/MOL
REMARK 923 INTER-LIGAND FREE ENERGY PREDICTED BY IDOCK:   -8.25 KCAL/MOL
REMARK 924 INTRA-LIGAND FREE ENERGY PREDICTED BY IDOCK:    1.20 KCAL/MOL
REMARK 927      BINDING AFFINITY PREDICTED BY RF-SCORE:    0.00 PKD
ROOT
HETATM    1  C   UNL     1      -9.809  10.365  69.784  1.00  0.00    -0.091 C  
HETATM    2  S   UNL     1     -10.766  11.458  68.742  1.00  0.00    -0.211 SA 
HETATM    3  C   UNL     1     -11.768  12.086  70.078  1.00  0.00    -0.267 C  
HETATM    4  C   UNL     1     -12.233  11.080  71.123  1.00  0.00    -0.415 C  
HETATM    5  CA  UNL     1      -9.269   9.084  69.082  1.00  0.00    -0.144 C  
HETATM    6  CA  UNL     1     -11.705   9.844  71.324  1.00  0.00    -0.392 C  
HETATM    7  OXT UNL     1     -11.470   8.006  72.885  1.00  0.00    -0.411 OA 
HETATM    8  N   UNL     1     -10.655   9.444  70.535  1.00  0.00    -0.248 N  
HETATM    9  C   UNL     1     -12.194   8.834  72.350  1.00  0.00    -0.326 C  
HETATM   10  O   UNL     1      -9.532   7.411  71.012  1.00  0.00    -0.158 OA 
HETATM   11  C   UNL     1      -9.816   8.399  70.384  1.00  0.00    -0.181 C  
HETATM   12  O   UNL     1     -13.510   8.885  72.656  1.00  0.00    -0.435 OA 
ENDROOT
BRANCH   4  13
HETATM   13  C   UNL     1     -13.339  11.680  71.859  1.00  0.00    -0.403 C  
HETATM   14  C   UNL     1     -13.577  12.967  72.146  1.00  0.00    -0.618 C  
BRANCH  14  15
HETATM   15  C   UNL     1     -12.797  14.100  71.779  1.00  0.00    -0.347 A  
HETATM   16  C   UNL     1     -12.277  15.097  72.605  1.00  0.00    -0.384 A  
HETATM   17  N   UNL     1     -11.781  16.216  71.953  1.00  0.00    -0.501 NA 
HETATM   18  S   UNL     1     -12.472  14.538  70.137  1.00  0.00    -0.286 SA 
HETATM   19  C   UNL     1     -12.228  15.107  74.095  1.00  0.00    -0.686 C  
HETATM   20  C   UNL     1     -11.848  16.039  70.657  1.00  0.00    -0.315 A  
ENDBRANCH  14  15
ENDBRANCH   4  13
BRANCH   5  21
HETATM   21  N   UNL     1      -9.812   8.783  67.719  1.00  0.00    -0.165 N  
HETATM   22  C   UNL     1      -9.364   9.057  66.438  1.00  0.00    -0.206 C  
HETATM   23  O   UNL     1      -9.908   8.472  65.500  1.00  0.00     0.163 OA 
HETATM   24  H   UNL     1     -10.694   8.269  67.738  1.00  0.00     0.000 HD 
BRANCH  22  25
HETATM   25  C   UNL     1      -8.374  10.152  66.090  1.00  0.00    -0.131 C  
BRANCH  25  26
HETATM   26  C   UNL     1      -7.275  10.508  67.024  1.00  0.00    -0.098 A  
HETATM   27  H2  UNL     1      -5.200  12.541  70.163  1.00  0.00     0.000 HD 
HETATM   28  H1  UNL     1      -6.602  13.445  69.587  1.00  0.00     0.000 HD 
HETATM   29  C   UNL     1      -6.190   9.674  67.269  1.00  0.00    -0.067 A  
HETATM   30  N   UNL     1      -7.228  11.693  67.762  1.00  0.00    -0.094 NA 
HETATM   31  S   UNL     1      -5.199  10.305  68.507  1.00  0.00    -0.034 SA 
HETATM   32  N   UNL     1      -5.991  12.631  69.526  1.00  0.00    -0.103 NA 
HETATM   33  C   UNL     1      -6.226  11.675  68.610  1.00  0.00    -0.053 A  
ENDBRANCH  25  26
BRANCH  25  34
HETATM   34  N   UNL     1      -8.297  10.773  64.945  1.00  0.00    -0.349 NA 
HETATM   35  H   UNL     1      -8.828  11.634  64.813  1.00  0.00     0.000 HD 
BRANCH  34  36
HETATM   36  O   UNL     1      -7.510  10.293  63.893  1.00  0.00    -0.140 OA 
HETATM   37  C   UNL     1      -7.852  10.578  62.552  1.00  0.00    -0.156 C  
ENDBRANCH  34  36
ENDBRANCH  25  34
ENDBRANCH  22  25
ENDBRANCH   5  21
TORSDOF 7
ENDMDL
MODEL      188
REMARK 921   NORMALIZED FREE ENERGY PREDICTED BY IDOCK:   -3.92 KCAL/MOL
REMARK 922        TOTAL FREE ENERGY PREDICTED BY IDOCK:   -7.03 KCAL/MOL
REMARK 923 INTER-LIGAND FREE ENERGY PREDICTED BY IDOCK:   -5.98 KCAL/MOL
REMARK 924 INTRA-LIGAND FREE ENERGY PREDICTED BY IDOCK:   -1.05 KCAL/MOL
REMARK 927      BINDING AFFINITY PREDICTED BY RF-SCORE:    0.00 PKD
ROOT
HETATM    1  C   UNL     1      -7.098   9.183  69.023  1.00  0.00    -0.067 C  
HETATM    2  S   UNL     1      -6.428   8.521  67.503  1.00  0.00    -0.058 SA 
HETATM    3  C   UNL     1      -7.189   9.756  66.464  1.00  0.00    -0.094 C  
HETATM    4  C   UNL     1      -8.617  10.161  66.806  1.00  0.00    -0.129 C  
HETATM    5  CA  UNL     1      -7.337   8.138  70.153  1.00  0.00    -0.060 C  
HETATM    6  CA  UNL     1      -9.244   9.930  67.989  1.00  0.00    -0.124 C  
HETATM    7  OXT UNL     1     -11.073  10.588  69.437  1.00  0.00    -0.224 OA 
HETATM    8  N   UNL     1      -8.552   9.284  68.982  1.00  0.00    -0.131 N  
HETATM    9  C   UNL     1     -10.680  10.311  68.311  1.00  0.00    -0.237 C  
HETATM   10  O   UNL     1      -9.507   9.088  71.145  1.00  0.00    -0.241 OA 
HETATM   11  C   UNL     1      -8.712   8.888  70.262  1.00  0.00    -0.169 C  
HETATM   12  O   UNL     1     -11.541  10.329  67.269  1.00  0.00    -0.142 OA 
ENDROOT
BRANCH   4  13
HETATM   13  C   UNL     1      -9.181  10.833  65.642  1.00  0.00    -0.226 C  
HETATM   14  C   UNL     1      -9.632  12.089  65.514  1.00  0.00    -0.174 C  
BRANCH  14  15
HETATM   15  C   UNL     1      -9.658  13.110  66.505  1.00  0.00    -0.268 A  
HETATM   16  C   UNL     1     -10.733  13.908  66.897  1.00  0.00    -0.284 A  
HETATM   17  N   UNL     1     -10.412  14.995  67.697  1.00  0.00    -0.244 NA 
HETATM   18  S   UNL     1      -8.245  13.667  67.333  1.00  0.00    -0.163 SA 
HETATM   19  C   UNL     1     -12.168  13.745  66.527  1.00  0.00    -0.475 C  
HETATM   20  C   UNL     1      -9.131  14.977  67.974  1.00  0.00    -0.178 A  
ENDBRANCH  14  15
ENDBRANCH   4  13
BRANCH   5  21
HETATM   21  N   UNL     1      -7.229   6.694  69.769  1.00  0.00    -0.075 N  
HETATM   22  C   UNL     1      -8.082   5.820  69.118  1.00  0.00    -0.101 C  
HETATM   23  O   UNL     1      -7.619   4.744  68.732  1.00  0.00    -0.067 OA 
HETATM   24  H   UNL     1      -6.344   6.267  70.045  1.00  0.00     0.000 HD 
BRANCH  22  25
HETATM   25  C   UNL     1      -9.581   6.012  68.997  1.00  0.00    -0.131 C  
BRANCH  25  26
HETATM   26  C   UNL     1     -10.452   5.973  70.200  1.00  0.00    -0.246 A  
HETATM   27  H2  UNL     1     -11.623   5.349  74.266  1.00  0.00     0.000 HD 
HETATM   28  H1  UNL     1     -10.132   4.496  73.856  1.00  0.00     0.000 HD 
HETATM   29  C   UNL     1     -11.659   6.657  70.284  1.00  0.00    -0.395 A  
HETATM   30  N   UNL     1     -10.142   5.273  71.369  1.00  0.00    -0.195 NA 
HETATM   31  S   UNL     1     -12.326   6.535  71.850  1.00  0.00    -0.182 SA 
HETATM   32  N   UNL     1     -10.914   5.091  73.580  1.00  0.00    -0.313 NA 
HETATM   33  C   UNL     1     -11.012   5.535  72.315  1.00  0.00    -0.239 A  
ENDBRANCH  25  26
BRANCH  25  34
HETATM   34  N   UNL     1     -10.220   6.348  67.910  1.00  0.00    -0.151 NA 
HETATM   35  H   UNL     1     -10.977   7.028  67.972  1.00  0.00     0.000 HD 
BRANCH  34  36
HETATM   36  O   UNL     1      -9.898   5.803  66.662  1.00  0.00    -0.148 OA 
HETATM   37  C   UNL     1      -8.957   6.440  65.822  1.00  0.00    -0.052 C  
ENDBRANCH  34  36
ENDBRANCH  25  34
ENDBRANCH  22  25
ENDBRANCH   5  21
TORSDOF 7
ENDMDL
MODEL      189
REMARK 921   NORMALIZED FREE ENERGY PREDICTED BY IDOCK:   -3.91 KCAL/MOL
REMARK 922        TOTAL FREE ENERGY PREDICTED BY IDOCK:   -7.02 KCAL/MOL
REMARK 923 INTER-LIGAND FREE ENERGY PREDICTED BY IDOCK:   -4.89 KCAL/MOL
REMARK 924 INTRA-LIGAND FREE ENERGY PREDICTED BY IDOCK:   -2.13 KCAL/MOL
REMARK 927      BINDING AFFINITY PREDICTED BY RF-SCORE:    0.00 PKD
ROOT
HETATM    1  C   UNL     1      -7.514   4.542  68.786  1.00  0.00    -0.060 C  
HETATM    2  S   UNL     1      -6.054   5.382  69.386  1.00  0.00    -0.026 SA 
HETATM    3  C   UNL     1      -6.845   6.005  70.859  1.00  0.00    -0.062 C  
HETATM    4  C   UNL     1      -8.273   6.516  70.711  1.00  0.00    -0.125 C  
HETATM    5  CA  UNL     1      -7.613   4.410  67.237  1.00  0.00    -0.081 C  
HETATM    6  CA  UNL     1      -9.107   6.248  69.672  1.00  0.00    -0.142 C  
HETATM    7  OXT UNL     1     -11.413   6.189  68.931  1.00  0.00    -0.305 OA 
HETATM    8  N   UNL     1      -8.651   5.445  68.656  1.00  0.00    -0.095 N  
HETATM    9  C   UNL     1     -10.520   6.786  69.518  1.00  0.00    -0.220 C  
HETATM   10  O   UNL     1     -10.144   4.737  66.955  1.00  0.00    -0.202 OA 
HETATM   11  C   UNL     1      -9.084   4.890  67.506  1.00  0.00    -0.118 C  
HETATM   12  O   UNL     1     -10.762   7.996  70.070  1.00  0.00    -0.240 OA 
ENDROOT
BRANCH   4  13
HETATM   13  C   UNL     1      -8.576   7.337  71.876  1.00  0.00    -0.123 C  
HETATM   14  C   UNL     1      -9.146   6.994  73.040  1.00  0.00    -0.156 C  
BRANCH  14  15
HETATM   15  C   UNL     1      -9.594   5.704  73.443  1.00  0.00    -0.143 A  
HETATM   16  C   UNL     1      -8.854   4.675  74.027  1.00  0.00    -0.107 A  
HETATM   17  N   UNL     1      -9.482   3.439  74.076  1.00  0.00    -0.091 NA 
HETATM   18  S   UNL     1     -11.186   5.107  73.123  1.00  0.00    -0.308 SA 
HETATM   19  C   UNL     1      -7.466   4.747  74.566  1.00  0.00    -0.085 C  
HETATM   20  C   UNL     1     -10.703   3.545  73.613  1.00  0.00    -0.219 A  
ENDBRANCH  14  15
ENDBRANCH   4  13
BRANCH   5  21
HETATM   21  N   UNL     1      -6.636   5.207  66.429  1.00  0.00    -0.047 N  
HETATM   22  C   UNL     1      -6.760   6.328  65.626  1.00  0.00    -0.048 C  
HETATM   23  O   UNL     1      -5.728   6.902  65.275  1.00  0.00    -0.030 OA 
HETATM   24  H   UNL     1      -5.681   4.849  66.480  1.00  0.00     0.000 HD 
BRANCH  22  25
HETATM   25  C   UNL     1      -8.060   6.801  65.006  1.00  0.00    -0.126 C  
BRANCH  25  26
HETATM   26  C   UNL     1      -8.654   8.107  65.388  1.00  0.00    -0.129 A  
HETATM   27  H2  UNL     1     -10.804  10.997  67.694  1.00  0.00     0.000 HD 
HETATM   28  H1  UNL     1     -11.190   9.340  68.163  1.00  0.00     0.000 HD 
HETATM   29  C   UNL     1      -8.265   9.313  64.816  1.00  0.00    -0.149 A  
HETATM   30  N   UNL     1      -9.639   8.263  66.367  1.00  0.00    -0.231 NA 
HETATM   31  S   UNL     1      -9.022  10.632  65.590  1.00  0.00    -0.190 SA 
HETATM   32  N   UNL     1     -10.687   9.993  67.563  1.00  0.00    -0.275 NA 
HETATM   33  C   UNL     1      -9.869   9.534  66.600  1.00  0.00    -0.231 A  
ENDBRANCH  25  26
BRANCH  25  34
HETATM   34  N   UNL     1      -8.694   6.214  64.027  1.00  0.00    -0.299 NA 
HETATM   35  H   UNL     1      -9.163   6.789  63.328  1.00  0.00     0.000 HD 
BRANCH  34  36
HETATM   36  O   UNL     1      -8.747   4.821  63.909  1.00  0.00    -0.138 OA 
HETATM   37  C   UNL     1      -9.986   4.162  63.740  1.00  0.00    -0.086 C  
ENDBRANCH  34  36
ENDBRANCH  25  34
ENDBRANCH  22  25
ENDBRANCH   5  21
TORSDOF 7
ENDMDL
MODEL      190
REMARK 921   NORMALIZED FREE ENERGY PREDICTED BY IDOCK:   -3.89 KCAL/MOL
REMARK 922        TOTAL FREE ENERGY PREDICTED BY IDOCK:   -6.99 KCAL/MOL
REMARK 923 INTER-LIGAND FREE ENERGY PREDICTED BY IDOCK:   -6.37 KCAL/MOL
REMARK 924 INTRA-LIGAND FREE ENERGY PREDICTED BY IDOCK:   -0.62 KCAL/MOL
REMARK 927      BINDING AFFINITY PREDICTED BY RF-SCORE:    0.00 PKD
ROOT
HETATM    1  C   UNL     1     -10.852   9.013  68.119  1.00  0.00    -0.027 C  
HETATM    2  S   UNL     1     -11.501  10.541  68.783  1.00  0.00    -0.179 SA 
HETATM    3  C   UNL     1     -11.121  11.500  67.327  1.00  0.00    -0.293 C  
HETATM    4  C   UNL     1      -9.787  11.221  66.647  1.00  0.00    -0.235 C  
HETATM    5  CA  UNL     1     -10.293   8.015  69.176  1.00  0.00    -0.220 C  
HETATM    6  CA  UNL     1      -9.019  10.116  66.831  1.00  0.00    -0.132 C  
HETATM    7  OXT UNL     1      -7.249   8.742  65.909  1.00  0.00    -0.082 OA 
HETATM    8  N   UNL     1      -9.463   9.146  67.696  1.00  0.00    -0.138 N  
HETATM    9  C   UNL     1      -7.674   9.859  66.170  1.00  0.00    -0.107 C  
HETATM   10  O   UNL     1      -8.294   7.089  67.857  1.00  0.00    -0.117 OA 
HETATM   11  C   UNL     1      -9.106   7.929  68.153  1.00  0.00    -0.133 C  
HETATM   12  O   UNL     1      -6.937  10.952  65.875  1.00  0.00    -0.114 OA 
ENDROOT
BRANCH   4  13
HETATM   13  C   UNL     1      -9.489  12.348  65.771  1.00  0.00    -0.094 C  
HETATM   14  C   UNL     1      -9.577  13.664  66.011  1.00  0.00    -0.186 C  
BRANCH  14  15
HETATM   15  C   UNL     1      -9.979  14.305  67.217  1.00  0.00    -0.252 A  
HETATM   16  C   UNL     1     -11.243  14.787  67.560  1.00  0.00    -0.332 A  
HETATM   17  N   UNL     1     -11.289  15.596  68.685  1.00  0.00    -0.337 NA 
HETATM   18  S   UNL     1      -8.874  14.755  68.468  1.00  0.00    -0.180 SA 
HETATM   19  C   UNL     1     -12.528  14.559  66.840  1.00  0.00     0.099 C  
HETATM   20  C   UNL     1     -10.100  15.662  69.232  1.00  0.00    -0.258 A  
ENDBRANCH  14  15
ENDBRANCH   4  13
BRANCH   5  21
HETATM   21  N   UNL     1     -10.124   8.535  70.571  1.00  0.00    -0.188 N  
HETATM   22  C   UNL     1     -10.419   8.014  71.820  1.00  0.00    -0.229 C  
HETATM   23  O   UNL     1      -9.945   8.581  72.806  1.00  0.00    -0.258 OA 
HETATM   24  H   UNL     1      -9.706   9.466  70.609  1.00  0.00     0.000 HD 
BRANCH  22  25
HETATM   25  C   UNL     1     -11.420   6.904  72.073  1.00  0.00    -0.274 C  
BRANCH  25  26
HETATM   26  C   UNL     1     -10.966   5.510  72.312  1.00  0.00    -0.239 A  
HETATM   27  H2  UNL     1      -9.042   1.758  71.598  1.00  0.00     0.000 HD 
HETATM   28  H1  UNL     1      -9.265   2.692  70.117  1.00  0.00     0.000 HD 
HETATM   29  C   UNL     1     -10.958   4.921  73.571  1.00  0.00    -0.328 A  
HETATM   30  N   UNL     1     -10.482   4.663  71.312  1.00  0.00    -0.072 NA 
HETATM   31  S   UNL     1     -10.228   3.379  73.522  1.00  0.00    -0.151 SA 
HETATM   32  N   UNL     1      -9.391   2.590  71.124  1.00  0.00    -0.130 NA 
HETATM   33  C   UNL     1     -10.016   3.550  71.829  1.00  0.00    -0.131 A  
ENDBRANCH  25  26
BRANCH  25  34
HETATM   34  N   UNL     1     -12.705   7.061  72.236  1.00  0.00    -0.527 NA 
HETATM   35  H   UNL     1     -13.297   6.235  72.321  1.00  0.00     0.000 HD 
BRANCH  34  36
HETATM   36  O   UNL     1     -13.295   8.329  72.297  1.00  0.00    -0.286 OA 
HETATM   37  C   UNL     1     -14.321   8.687  71.394  1.00  0.00    -0.248 C  
ENDBRANCH  34  36
ENDBRANCH  25  34
ENDBRANCH  22  25
ENDBRANCH   5  21
TORSDOF 7
ENDMDL
MODEL      191
REMARK 921   NORMALIZED FREE ENERGY PREDICTED BY IDOCK:   -3.87 KCAL/MOL
REMARK 922        TOTAL FREE ENERGY PREDICTED BY IDOCK:   -6.97 KCAL/MOL
REMARK 923 INTER-LIGAND FREE ENERGY PREDICTED BY IDOCK:   -6.02 KCAL/MOL
REMARK 924 INTRA-LIGAND FREE ENERGY PREDICTED BY IDOCK:   -0.96 KCAL/MOL
REMARK 927      BINDING AFFINITY PREDICTED BY RF-SCORE:    0.00 PKD
ROOT
HETATM    1  C   UNL     1      -7.998  10.782  68.149  1.00  0.00    -0.114 C  
HETATM    2  S   UNL     1      -8.053  12.179  67.035  1.00  0.00    -0.118 SA 
HETATM    3  C   UNL     1      -9.173  13.125  68.052  1.00  0.00    -0.211 C  
HETATM    4  C   UNL     1     -10.312  12.363  68.718  1.00  0.00    -0.142 C  
HETATM    5  CA  UNL     1      -7.739   9.403  67.471  1.00  0.00    -0.091 C  
HETATM    6  CA  UNL     1     -10.373  11.016  68.885  1.00  0.00    -0.205 C  
HETATM    7  OXT UNL     1     -11.394   9.206  70.131  1.00  0.00    -0.231 OA 
HETATM    8  N   UNL     1      -9.327  10.252  68.429  1.00  0.00    -0.139 N  
HETATM    9  C   UNL     1     -11.527  10.261  69.524  1.00  0.00    -0.210 C  
HETATM   10  O   UNL     1      -9.262   7.933  68.925  1.00  0.00    -0.144 OA 
HETATM   11  C   UNL     1      -8.926   8.965  68.401  1.00  0.00    -0.134 C  
HETATM   12  O   UNL     1     -12.751  10.816  69.388  1.00  0.00    -0.261 OA 
ENDROOT
BRANCH   4  13
HETATM   13  C   UNL     1     -11.315  13.335  69.137  1.00  0.00    -0.336 C  
HETATM   14  C   UNL     1     -11.804  14.397  68.481  1.00  0.00    -0.369 C  
BRANCH  14  15
HETATM   15  C   UNL     1     -11.468  14.841  67.170  1.00  0.00    -0.364 A  
HETATM   16  C   UNL     1     -11.682  14.191  65.955  1.00  0.00    -0.382 A  
HETATM   17  N   UNL     1     -11.023  14.733  64.862  1.00  0.00    -0.404 NA 
HETATM   18  S   UNL     1     -10.553  16.276  66.859  1.00  0.00    -0.223 SA 
HETATM   19  C   UNL     1     -12.503  12.971  65.710  1.00  0.00    -0.394 C  
HETATM   20  C   UNL     1     -10.386  15.819  65.223  1.00  0.00    -0.357 A  
ENDBRANCH  14  15
ENDBRANCH   4  13
BRANCH   5  21
HETATM   21  N   UNL     1      -7.822   9.361  65.976  1.00  0.00    -0.099 N  
HETATM   22  C   UNL     1      -7.780   8.330  65.053  1.00  0.00    -0.105 C  
HETATM   23  O   UNL     1      -8.113   8.583  63.893  1.00  0.00    -0.154 OA 
HETATM   24  H   UNL     1      -7.931  10.282  65.551  1.00  0.00     0.000 HD 
BRANCH  22  25
HETATM   25  C   UNL     1      -7.190   6.959  65.322  1.00  0.00    -0.074 C  
BRANCH  25  26
HETATM   26  C   UNL     1      -7.951   5.943  66.093  1.00  0.00    -0.106 A  
HETATM   27  H2  UNL     1      -9.299   3.661  69.450  1.00  0.00     0.000 HD 
HETATM   28  H1  UNL     1      -7.776   4.495  69.771  1.00  0.00     0.000 HD 
HETATM   29  C   UNL     1      -9.097   5.325  65.608  1.00  0.00    -0.153 A  
HETATM   30  N   UNL     1      -7.611   5.523  67.382  1.00  0.00    -0.088 NA 
HETATM   31  S   UNL     1      -9.813   4.337  66.801  1.00  0.00    -0.155 SA 
HETATM   32  N   UNL     1      -8.536   4.259  69.133  1.00  0.00    -0.081 NA 
HETATM   33  C   UNL     1      -8.536   4.733  67.875  1.00  0.00    -0.103 A  
ENDBRANCH  25  26
BRANCH  25  34
HETATM   34  N   UNL     1      -6.077   6.498  64.821  1.00  0.00    -0.036 NA 
HETATM   35  H   UNL     1      -5.348   7.157  64.549  1.00  0.00     0.000 HD 
BRANCH  34  36
HETATM   36  O   UNL     1      -5.855   5.128  64.645  1.00  0.00    -0.017 OA 
HETATM   37  C   UNL     1      -5.877   4.558  63.352  1.00  0.00    -0.017 C  
ENDBRANCH  34  36
ENDBRANCH  25  34
ENDBRANCH  22  25
ENDBRANCH   5  21
TORSDOF 7
ENDMDL
MODEL      192
REMARK 921   NORMALIZED FREE ENERGY PREDICTED BY IDOCK:   -3.83 KCAL/MOL
REMARK 922        TOTAL FREE ENERGY PREDICTED BY IDOCK:   -6.91 KCAL/MOL
REMARK 923 INTER-LIGAND FREE ENERGY PREDICTED BY IDOCK:   -5.30 KCAL/MOL
REMARK 924 INTRA-LIGAND FREE ENERGY PREDICTED BY IDOCK:   -1.61 KCAL/MOL
REMARK 927      BINDING AFFINITY PREDICTED BY RF-SCORE:    0.00 PKD
ROOT
HETATM    1  C   UNL     1      -8.332  10.636  66.763  1.00  0.00    -0.132 C  
HETATM    2  S   UNL     1      -6.653  11.034  67.231  1.00  0.00    -0.085 SA 
HETATM    3  C   UNL     1      -6.199   9.343  67.575  1.00  0.00    -0.058 C  
HETATM    4  C   UNL     1      -7.233   8.483  68.291  1.00  0.00    -0.086 C  
HETATM    5  CA  UNL     1      -9.378  11.759  67.027  1.00  0.00    -0.184 C  
HETATM    6  CA  UNL     1      -8.559   8.762  68.397  1.00  0.00    -0.134 C  
HETATM    7  OXT UNL     1     -10.760   7.844  68.826  1.00  0.00    -0.164 OA 
HETATM    8  N   UNL     1      -9.036   9.908  67.813  1.00  0.00    -0.131 N  
HETATM    9  C   UNL     1      -9.579   7.913  69.138  1.00  0.00    -0.153 C  
HETATM   10  O   UNL     1     -11.372  10.310  67.745  1.00  0.00    -0.322 OA 
HETATM   11  C   UNL     1     -10.201  10.559  67.617  1.00  0.00    -0.197 C  
HETATM   12  O   UNL     1      -9.116   7.213  70.197  1.00  0.00    -0.151 OA 
ENDROOT
BRANCH   4  13
HETATM   13  C   UNL     1      -6.546   7.319  68.836  1.00  0.00    -0.048 C  
HETATM   14  C   UNL     1      -6.530   6.052  68.398  1.00  0.00    -0.049 C  
BRANCH  14  15
HETATM   15  C   UNL     1      -7.186   5.518  67.253  1.00  0.00    -0.075 A  
HETATM   16  C   UNL     1      -6.833   5.658  65.910  1.00  0.00    -0.057 A  
HETATM   17  N   UNL     1      -7.791   5.254  64.994  1.00  0.00    -0.093 NA 
HETATM   18  S   UNL     1      -8.699   4.684  67.326  1.00  0.00    -0.104 SA 
HETATM   19  C   UNL     1      -5.567   6.221  65.358  1.00  0.00    -0.017 C  
HETATM   20  C   UNL     1      -8.819   4.742  65.625  1.00  0.00    -0.135 A  
ENDBRANCH  14  15
ENDBRANCH   4  13
BRANCH   5  21
HETATM   21  N   UNL     1      -8.925  12.919  67.861  1.00  0.00    -0.185 N  
HETATM   22  C   UNL     1      -9.598  13.940  68.509  1.00  0.00    -0.185 C  
HETATM   23  O   UNL     1      -8.968  14.621  69.321  1.00  0.00    -0.086 OA 
HETATM   24  H   UNL     1      -7.912  12.966  67.973  1.00  0.00     0.000 HD 
BRANCH  22  25
HETATM   25  C   UNL     1     -11.005  14.394  68.170  1.00  0.00    -0.254 C  
BRANCH  25  26
HETATM   26  C   UNL     1     -11.293  15.077  66.882  1.00  0.00    -0.302 A  
HETATM   27  H2  UNL     1     -10.986  17.945  63.724  1.00  0.00     0.000 HD 
HETATM   28  H1  UNL     1     -10.238  18.509  65.221  1.00  0.00     0.000 HD 
HETATM   29  C   UNL     1     -11.995  14.473  65.845  1.00  0.00    -0.309 A  
HETATM   30  N   UNL     1     -10.873  16.373  66.572  1.00  0.00    -0.153 NA 
HETATM   31  S   UNL     1     -12.009  15.464  64.456  1.00  0.00    -0.098 SA 
HETATM   32  N   UNL     1     -10.756  17.797  64.706  1.00  0.00    -0.240 NA 
HETATM   33  C   UNL     1     -11.138  16.663  65.319  1.00  0.00    -0.033 A  
ENDBRANCH  25  26
BRANCH  25  34
HETATM   34  N   UNL     1     -12.078  14.132  68.864  1.00  0.00    -0.485 NA 
HETATM   35  H   UNL     1     -12.943  13.913  68.372  1.00  0.00     0.000 HD 
BRANCH  34  36
HETATM   36  O   UNL     1     -12.076  14.144  70.263  1.00  0.00    -0.300 OA 
HETATM   37  C   UNL     1     -12.528  13.019  70.991  1.00  0.00    -0.296 C  
ENDBRANCH  34  36
ENDBRANCH  25  34
ENDBRANCH  22  25
ENDBRANCH   5  21
TORSDOF 7
ENDMDL
MODEL      193
REMARK 921   NORMALIZED FREE ENERGY PREDICTED BY IDOCK:   -3.82 KCAL/MOL
REMARK 922        TOTAL FREE ENERGY PREDICTED BY IDOCK:   -6.89 KCAL/MOL
REMARK 923 INTER-LIGAND FREE ENERGY PREDICTED BY IDOCK:   -5.17 KCAL/MOL
REMARK 924 INTRA-LIGAND FREE ENERGY PREDICTED BY IDOCK:   -1.72 KCAL/MOL
REMARK 927      BINDING AFFINITY PREDICTED BY RF-SCORE:    0.00 PKD
ROOT
HETATM    1  C   UNL     1      -5.866   9.276  69.027  1.00  0.00    -0.039 C  
HETATM    2  S   UNL     1      -6.142   9.855  70.695  1.00  0.00    -0.100 SA 
HETATM    3  C   UNL     1      -5.851   8.263  71.447  1.00  0.00    -0.035 C  
HETATM    4  C   UNL     1      -6.423   7.047  70.730  1.00  0.00    -0.047 C  
HETATM    5  CA  UNL     1      -6.647  10.046  67.920  1.00  0.00    -0.063 C  
HETATM    6  CA  UNL     1      -6.837   7.013  69.436  1.00  0.00    -0.054 C  
HETATM    7  OXT UNL     1      -7.323   5.589  67.536  1.00  0.00    -0.074 OA 
HETATM    8  N   UNL     1      -6.736   8.157  68.685  1.00  0.00    -0.057 N  
HETATM    9  C   UNL     1      -7.434   5.802  68.736  1.00  0.00    -0.085 C  
HETATM   10  O   UNL     1      -7.199   8.083  66.360  1.00  0.00    -0.076 OA 
HETATM   11  C   UNL     1      -6.958   8.589  67.427  1.00  0.00    -0.078 C  
HETATM   12  O   UNL     1      -8.123   4.941  69.517  1.00  0.00    -0.073 OA 
ENDROOT
BRANCH   4  13
HETATM   13  C   UNL     1      -6.446   5.940  71.677  1.00  0.00    -0.050 C  
HETATM   14  C   UNL     1      -7.387   5.596  72.569  1.00  0.00    -0.095 C  
BRANCH  14  15
HETATM   15  C   UNL     1      -8.637   6.235  72.807  1.00  0.00    -0.122 A  
HETATM   16  C   UNL     1      -9.918   5.693  72.704  1.00  0.00    -0.174 A  
HETATM   17  N   UNL     1     -10.960   6.608  72.738  1.00  0.00    -0.251 NA 
HETATM   18  S   UNL     1      -8.793   7.926  73.136  1.00  0.00    -0.261 SA 
HETATM   19  C   UNL     1     -10.287   4.259  72.528  1.00  0.00    -0.239 C  
HETATM   20  C   UNL     1     -10.484   7.812  72.944  1.00  0.00    -0.350 A  
ENDBRANCH  14  15
ENDBRANCH   4  13
BRANCH   5  21
HETATM   21  N   UNL     1      -7.714  10.991  68.382  1.00  0.00    -0.111 N  
HETATM   22  C   UNL     1      -9.097  10.968  68.309  1.00  0.00    -0.158 C  
HETATM   23  O   UNL     1      -9.722  11.781  68.993  1.00  0.00    -0.042 OA 
HETATM   24  H   UNL     1      -7.346  11.822  68.845  1.00  0.00     0.000 HD 
BRANCH  22  25
HETATM   25  C   UNL     1      -9.892  10.137  67.321  1.00  0.00    -0.183 C  
BRANCH  25  26
HETATM   26  C   UNL     1     -10.328   8.759  67.666  1.00  0.00    -0.254 A  
HETATM   27  H2  UNL     1     -11.037   4.565  67.222  1.00  0.00     0.000 HD 
HETATM   28  H1  UNL     1     -10.776   5.371  65.673  1.00  0.00     0.000 HD 
HETATM   29  C   UNL     1     -10.576   8.347  68.970  1.00  0.00    -0.154 A  
HETATM   30  N   UNL     1     -10.510   7.738  66.729  1.00  0.00    -0.308 NA 
HETATM   31  S   UNL     1     -10.899   6.672  69.032  1.00  0.00    -0.278 SA 
HETATM   32  N   UNL     1     -10.864   5.416  66.688  1.00  0.00    -0.231 NA 
HETATM   33  C   UNL     1     -10.751   6.594  67.325  1.00  0.00    -0.357 A  
ENDBRANCH  25  26
BRANCH  25  34
HETATM   34  N   UNL     1     -10.371  10.559  66.184  1.00  0.00    -0.233 NA 
HETATM   35  H   UNL     1      -9.820  10.426  65.336  1.00  0.00     0.000 HD 
BRANCH  34  36
HETATM   36  O   UNL     1     -11.617  11.188  66.092  1.00  0.00    -0.123 OA 
HETATM   37  C   UNL     1     -11.708  12.598  66.066  1.00  0.00    -0.417 C  
ENDBRANCH  34  36
ENDBRANCH  25  34
ENDBRANCH  22  25
ENDBRANCH   5  21
TORSDOF 7
ENDMDL
MODEL      194
REMARK 921   NORMALIZED FREE ENERGY PREDICTED BY IDOCK:   -3.75 KCAL/MOL
REMARK 922        TOTAL FREE ENERGY PREDICTED BY IDOCK:   -6.80 KCAL/MOL
REMARK 923 INTER-LIGAND FREE ENERGY PREDICTED BY IDOCK:   -6.65 KCAL/MOL
REMARK 924 INTRA-LIGAND FREE ENERGY PREDICTED BY IDOCK:   -0.15 KCAL/MOL
REMARK 927      BINDING AFFINITY PREDICTED BY RF-SCORE:    0.00 PKD
ROOT
HETATM    1  C   UNL     1      -9.613   8.877  69.693  1.00  0.00    -0.169 C  
HETATM    2  S   UNL     1      -9.691   9.800  68.164  1.00  0.00    -0.147 SA 
HETATM    3  C   UNL     1     -10.305  11.290  68.930  1.00  0.00    -0.195 C  
HETATM    4  C   UNL     1     -11.354  11.122  70.023  1.00  0.00    -0.326 C  
HETATM    5  CA  UNL     1      -9.807   7.338  69.548  1.00  0.00    -0.163 C  
HETATM    6  CA  UNL     1     -11.623   9.970  70.692  1.00  0.00    -0.340 C  
HETATM    7  OXT UNL     1     -12.608   9.007  72.685  1.00  0.00    -0.326 OA 
HETATM    8  N   UNL     1     -10.898   8.847  70.381  1.00  0.00    -0.230 N  
HETATM    9  C   UNL     1     -12.691   9.804  71.760  1.00  0.00    -0.426 C  
HETATM   10  O   UNL     1     -11.147   6.886  71.691  1.00  0.00    -0.231 OA 
HETATM   11  C   UNL     1     -10.770   7.562  70.767  1.00  0.00    -0.229 C  
HETATM   12  O   UNL     1     -13.781  10.595  71.644  1.00  0.00    -0.097 OA 
ENDROOT
BRANCH   4  13
HETATM   13  C   UNL     1     -12.008  12.410  70.215  1.00  0.00    -0.371 C  
HETATM   14  C   UNL     1     -12.030  13.487  69.417  1.00  0.00    -0.383 C  
BRANCH  14  15
HETATM   15  C   UNL     1     -11.416  13.638  68.141  1.00  0.00    -0.313 A  
HETATM   16  C   UNL     1     -10.339  14.452  67.791  1.00  0.00    -0.238 A  
HETATM   17  N   UNL     1     -10.117  14.598  66.430  1.00  0.00    -0.268 NA 
HETATM   18  S   UNL     1     -12.032  12.910  66.698  1.00  0.00    -0.301 SA 
HETATM   19  C   UNL     1      -9.431  15.200  68.706  1.00  0.00    -0.209 C  
HETATM   20  C   UNL     1     -10.958  13.848  65.761  1.00  0.00    -0.285 A  
ENDBRANCH  14  15
ENDBRANCH   4  13
BRANCH   5  21
HETATM   21  N   UNL     1     -10.284   6.841  68.218  1.00  0.00    -0.164 N  
HETATM   22  C   UNL     1      -9.635   6.314  67.114  1.00  0.00    -0.132 C  
HETATM   23  O   UNL     1     -10.322   5.769  66.249  1.00  0.00    -0.158 OA 
HETATM   24  H   UNL     1     -11.296   6.903  68.102  1.00  0.00     0.000 HD 
BRANCH  22  25
HETATM   25  C   UNL     1      -8.163   6.510  66.808  1.00  0.00    -0.110 C  
BRANCH  25  26
HETATM   26  C   UNL     1      -7.710   7.623  65.934  1.00  0.00    -0.098 A  
HETATM   27  H2  UNL     1      -7.940  10.885  63.178  1.00  0.00     0.000 HD 
HETATM   28  H1  UNL     1      -9.401   9.894  63.171  1.00  0.00     0.000 HD 
HETATM   29  C   UNL     1      -6.456   8.212  66.046  1.00  0.00    -0.046 A  
HETATM   30  N   UNL     1      -8.496   8.202  64.934  1.00  0.00    -0.122 NA 
HETATM   31  S   UNL     1      -6.317   9.560  65.008  1.00  0.00    -0.088 SA 
HETATM   32  N   UNL     1      -8.459  10.077  63.518  1.00  0.00    -0.171 NA 
HETATM   33  C   UNL     1      -7.901   9.254  64.423  1.00  0.00    -0.123 A  
ENDBRANCH  25  26
BRANCH  25  34
HETATM   34  N   UNL     1      -7.178   5.851  67.353  1.00  0.00    -0.074 NA 
HETATM   35  H   UNL     1      -6.319   6.348  67.585  1.00  0.00     0.000 HD 
BRANCH  34  36
HETATM   36  O   UNL     1      -7.265   4.481  67.628  1.00  0.00    -0.064 OA 
HETATM   37  C   UNL     1      -7.559   4.029  68.934  1.00  0.00    -0.054 C  
ENDBRANCH  34  36
ENDBRANCH  25  34
ENDBRANCH  22  25
ENDBRANCH   5  21
TORSDOF 7
ENDMDL
MODEL      195
REMARK 921   NORMALIZED FREE ENERGY PREDICTED BY IDOCK:   -3.70 KCAL/MOL
REMARK 922        TOTAL FREE ENERGY PREDICTED BY IDOCK:   -6.72 KCAL/MOL
REMARK 923 INTER-LIGAND FREE ENERGY PREDICTED BY IDOCK:   -5.93 KCAL/MOL
REMARK 924 INTRA-LIGAND FREE ENERGY PREDICTED BY IDOCK:   -0.80 KCAL/MOL
REMARK 927      BINDING AFFINITY PREDICTED BY RF-SCORE:    0.00 PKD
ROOT
HETATM    1  C   UNL     1      -7.425  14.318  67.262  1.00  0.00    -0.055 C  
HETATM    2  S   UNL     1      -6.682  13.873  68.826  1.00  0.00    -0.108 SA 
HETATM    3  C   UNL     1      -6.127  12.271  68.267  1.00  0.00    -0.054 C  
HETATM    4  C   UNL     1      -7.081  11.482  67.380  1.00  0.00    -0.119 C  
HETATM    5  CA  UNL     1      -8.637  15.291  67.357  1.00  0.00    -0.180 C  
HETATM    6  CA  UNL     1      -8.148  11.993  66.712  1.00  0.00    -0.081 C  
HETATM    7  OXT UNL     1      -9.706  11.654  64.887  1.00  0.00    -0.243 OA 
HETATM    8  N   UNL     1      -8.409  13.336  66.823  1.00  0.00     0.004 N  
HETATM    9  C   UNL     1      -9.113  11.192  65.853  1.00  0.00    -0.203 C  
HETATM   10  O   UNL     1     -10.095  14.322  65.479  1.00  0.00    -0.329 OA 
HETATM   11  C   UNL     1      -9.267  14.263  66.351  1.00  0.00    -0.199 C  
HETATM   12  O   UNL     1      -9.303   9.903  66.211  1.00  0.00    -0.160 OA 
ENDROOT
BRANCH   4  13
HETATM   13  C   UNL     1      -6.644  10.091  67.381  1.00  0.00    -0.069 C  
HETATM   14  C   UNL     1      -6.855   9.129  68.291  1.00  0.00    -0.065 C  
BRANCH  14  15
HETATM   15  C   UNL     1      -7.591   9.224  69.505  1.00  0.00    -0.081 A  
HETATM   16  C   UNL     1      -7.110   9.477  70.790  1.00  0.00    -0.097 A  
HETATM   17  N   UNL     1      -8.011   9.257  71.821  1.00  0.00    -0.234 NA 
HETATM   18  S   UNL     1      -9.281   8.875  69.623  1.00  0.00    -0.156 SA 
HETATM   19  C   UNL     1      -5.740   9.920  71.177  1.00  0.00    -0.071 C  
HETATM   20  C   UNL     1      -9.177   8.921  71.325  1.00  0.00    -0.258 A  
ENDBRANCH  14  15
ENDBRANCH   4  13
BRANCH   5  21
HETATM   21  N   UNL     1      -9.199  15.536  68.724  1.00  0.00    -0.197 N  
HETATM   22  C   UNL     1     -10.222  14.947  69.448  1.00  0.00    -0.171 C  
HETATM   23  O   UNL     1     -10.299  15.207  70.651  1.00  0.00    -0.091 OA 
HETATM   24  H   UNL     1      -8.732  16.293  69.224  1.00  0.00     0.000 HD 
BRANCH  22  25
HETATM   25  C   UNL     1     -11.355  14.144  68.839  1.00  0.00    -0.277 C  
BRANCH  25  26
HETATM   26  C   UNL     1     -11.746  12.829  69.408  1.00  0.00    -0.319 A  
HETATM   27  H2  UNL     1     -13.570  10.000  72.047  1.00  0.00     0.000 HD 
HETATM   28  H1  UNL     1     -13.459  11.612  72.759  1.00  0.00     0.000 HD 
HETATM   29  C   UNL     1     -11.665  11.640  68.692  1.00  0.00    -0.325 A  
HETATM   30  N   UNL     1     -12.252  12.653  70.698  1.00  0.00    -0.358 NA 
HETATM   31  S   UNL     1     -12.341  10.346  69.575  1.00  0.00     0.267 SA 
HETATM   32  N   UNL     1     -13.276  10.975  71.984  1.00  0.00    -0.459 NA 
HETATM   33  C   UNL     1     -12.649  11.416  70.879  1.00  0.00    -0.356 A  
ENDBRANCH  25  26
BRANCH  25  34
HETATM   34  N   UNL     1     -12.154  14.554  67.892  1.00  0.00    -0.596 NA 
HETATM   35  H   UNL     1     -12.366  15.549  67.821  1.00  0.00     0.000 HD 
BRANCH  34  36
HETATM   36  O   UNL     1     -12.727  13.670  66.972  1.00  0.00    -0.037 OA 
HETATM   37  C   UNL     1     -13.022  14.094  65.657  1.00  0.00    -0.251 C  
ENDBRANCH  34  36
ENDBRANCH  25  34
ENDBRANCH  22  25
ENDBRANCH   5  21
TORSDOF 7
ENDMDL
MODEL      196
REMARK 921   NORMALIZED FREE ENERGY PREDICTED BY IDOCK:   -3.69 KCAL/MOL
REMARK 922        TOTAL FREE ENERGY PREDICTED BY IDOCK:   -6.72 KCAL/MOL
REMARK 923 INTER-LIGAND FREE ENERGY PREDICTED BY IDOCK:   -5.20 KCAL/MOL
REMARK 924 INTRA-LIGAND FREE ENERGY PREDICTED BY IDOCK:   -1.51 KCAL/MOL
REMARK 927      BINDING AFFINITY PREDICTED BY RF-SCORE:    0.00 PKD
ROOT
HETATM    1  C   UNL     1      -7.367   8.157  65.707  1.00  0.00    -0.076 C  
HETATM    2  S   UNL     1      -8.542   9.055  64.703  1.00  0.00    -0.133 SA 
HETATM    3  C   UNL     1      -7.931  10.664  65.175  1.00  0.00    -0.036 C  
HETATM    4  C   UNL     1      -7.550  10.855  66.637  1.00  0.00    -0.139 C  
HETATM    5  CA  UNL     1      -7.858   6.772  66.224  1.00  0.00    -0.104 C  
HETATM    6  CA  UNL     1      -7.319   9.860  67.533  1.00  0.00    -0.090 C  
HETATM    7  OXT UNL     1      -6.281   9.280  69.645  1.00  0.00    -0.038 OA 
HETATM    8  N   UNL     1      -7.423   8.559  67.108  1.00  0.00    -0.084 N  
HETATM    9  C   UNL     1      -6.968  10.059  68.999  1.00  0.00    -0.056 C  
HETATM   10  O   UNL     1      -6.779   6.793  68.554  1.00  0.00    -0.059 OA 
HETATM   11  C   UNL     1      -7.259   7.304  67.574  1.00  0.00    -0.090 C  
HETATM   12  O   UNL     1      -7.466  11.170  69.585  1.00  0.00    -0.051 OA 
ENDROOT
BRANCH   4  13
HETATM   13  C   UNL     1      -7.482  12.288  66.897  1.00  0.00     0.013 C  
HETATM   14  C   UNL     1      -8.456  13.209  66.873  1.00  0.00    -0.081 C  
BRANCH  14  15
HETATM   15  C   UNL     1      -9.838  13.008  66.596  1.00  0.00    -0.252 A  
HETATM   16  C   UNL     1     -10.782  12.319  67.359  1.00  0.00    -0.230 A  
HETATM   17  N   UNL     1     -11.988  12.058  66.726  1.00  0.00    -0.610 NA 
HETATM   18  S   UNL     1     -10.589  13.482  65.112  1.00  0.00    -0.376 SA 
HETATM   19  C   UNL     1     -10.627  11.808  68.750  1.00  0.00    -0.234 C  
HETATM   20  C   UNL     1     -11.991  12.607  65.536  1.00  0.00    -0.456 A  
ENDBRANCH  14  15
ENDBRANCH   4  13
BRANCH   5  21
HETATM   21  N   UNL     1      -9.314   6.465  66.049  1.00  0.00    -0.346 N  
HETATM   22  C   UNL     1     -10.374   6.359  66.933  1.00  0.00    -0.241 C  
HETATM   23  O   UNL     1     -11.514   6.328  66.464  1.00  0.00     0.090 OA 
HETATM   24  H   UNL     1      -9.579   6.299  65.077  1.00  0.00     0.000 HD 
BRANCH  22  25
HETATM   25  C   UNL     1     -10.230   6.105  68.421  1.00  0.00    -0.175 C  
BRANCH  25  26
HETATM   26  C   UNL     1      -9.682   4.819  68.923  1.00  0.00    -0.174 A  
HETATM   27  H2  UNL     1      -9.245   1.355  71.393  1.00  0.00     0.000 HD 
HETATM   28  H1  UNL     1     -10.187   2.626  72.177  1.00  0.00     0.000 HD 
HETATM   29  C   UNL     1      -8.864   3.995  68.159  1.00  0.00    -0.108 A  
HETATM   30  N   UNL     1      -9.946   4.298  70.192  1.00  0.00    -0.200 NA 
HETATM   31  S   UNL     1      -8.545   2.527  68.970  1.00  0.00    -0.082 SA 
HETATM   32  N   UNL     1      -9.645   2.293  71.379  1.00  0.00    -0.145 NA 
HETATM   33  C   UNL     1      -9.456   3.086  70.310  1.00  0.00    -0.140 A  
ENDBRANCH  25  26
BRANCH  25  34
HETATM   34  N   UNL     1     -10.429   6.983  69.366  1.00  0.00    -0.207 NA 
HETATM   35  H   UNL     1     -11.368   7.092  69.748  1.00  0.00     0.000 HD 
BRANCH  34  36
HETATM   36  O   UNL     1      -9.394   7.779  69.869  1.00  0.00    -0.157 OA 
HETATM   37  C   UNL     1      -9.051   7.729  71.239  1.00  0.00    -0.137 C  
ENDBRANCH  34  36
ENDBRANCH  25  34
ENDBRANCH  22  25
ENDBRANCH   5  21
TORSDOF 7
ENDMDL
MODEL      197
REMARK 921   NORMALIZED FREE ENERGY PREDICTED BY IDOCK:   -3.67 KCAL/MOL
REMARK 922        TOTAL FREE ENERGY PREDICTED BY IDOCK:   -6.68 KCAL/MOL
REMARK 923 INTER-LIGAND FREE ENERGY PREDICTED BY IDOCK:   -6.01 KCAL/MOL
REMARK 924 INTRA-LIGAND FREE ENERGY PREDICTED BY IDOCK:   -0.67 KCAL/MOL
REMARK 927      BINDING AFFINITY PREDICTED BY RF-SCORE:    0.00 PKD
ROOT
HETATM    1  C   UNL     1      -7.009  11.984  68.021  1.00  0.00    -0.084 C  
HETATM    2  S   UNL     1      -8.553  11.717  67.159  1.00  0.00    -0.173 SA 
HETATM    3  C   UNL     1      -8.544  13.313  66.360  1.00  0.00     0.338 C  
HETATM    4  C   UNL     1      -8.087  14.501  67.197  1.00  0.00    -0.196 C  
HETATM    5  CA  UNL     1      -6.869  11.231  69.378  1.00  0.00    -0.121 C  
HETATM    6  CA  UNL     1      -7.386  14.429  68.358  1.00  0.00    -0.117 C  
HETATM    7  OXT UNL     1      -5.952  15.631  69.899  1.00  0.00    -0.143 OA 
HETATM    8  N   UNL     1      -7.040  13.191  68.839  1.00  0.00    -0.098 N  
HETATM    9  C   UNL     1      -6.959  15.619  69.203  1.00  0.00    -0.166 C  
HETATM   10  O   UNL     1      -5.599  13.017  70.715  1.00  0.00    -0.167 OA 
HETATM   11  C   UNL     1      -6.355  12.634  69.858  1.00  0.00    -0.031 C  
HETATM   12  O   UNL     1      -7.765  16.703  69.158  1.00  0.00    -0.241 OA 
ENDROOT
BRANCH   4  13
HETATM   13  C   UNL     1      -8.537  15.716  66.530  1.00  0.00    -0.335 C  
HETATM   14  C   UNL     1      -9.742  16.020  66.026  1.00  0.00    -0.376 C  
BRANCH  14  15
HETATM   15  C   UNL     1     -10.917  15.215  66.032  1.00  0.00    -0.332 A  
HETATM   16  C   UNL     1     -11.629  14.732  67.130  1.00  0.00    -0.359 A  
HETATM   17  N   UNL     1     -12.578  13.761  66.848  1.00  0.00    -0.139 NA 
HETATM   18  S   UNL     1     -11.612  14.538  64.600  1.00  0.00    -0.395 SA 
HETATM   19  C   UNL     1     -11.460  15.114  68.561  1.00  0.00    -0.335 C  
HETATM   20  C   UNL     1     -12.642  13.568  65.553  1.00  0.00    -0.481 A  
ENDBRANCH  14  15
ENDBRANCH   4  13
BRANCH   5  21
HETATM   21  N   UNL     1      -8.109  10.591  69.925  1.00  0.00    -0.357 N  
HETATM   22  C   UNL     1      -8.533   9.277  70.022  1.00  0.00    -0.176 C  
HETATM   23  O   UNL     1      -9.505   9.038  70.741  1.00  0.00    -0.207 OA 
HETATM   24  H   UNL     1      -8.777  11.262  70.303  1.00  0.00     0.000 HD 
BRANCH  22  25
HETATM   25  C   UNL     1      -8.001   8.137  69.176  1.00  0.00    -0.113 C  
BRANCH  25  26
HETATM   26  C   UNL     1      -8.917   7.318  68.340  1.00  0.00    -0.126 A  
HETATM   27  H2  UNL     1     -10.710   3.845  66.604  1.00  0.00     0.000 HD 
HETATM   28  H1  UNL     1      -9.121   3.507  67.297  1.00  0.00     0.000 HD 
HETATM   29  C   UNL     1     -10.097   7.815  67.801  1.00  0.00    -0.189 A  
HETATM   30  N   UNL     1      -8.702   5.973  68.031  1.00  0.00    -0.113 NA 
HETATM   31  S   UNL     1     -10.990   6.579  67.035  1.00  0.00    -0.310 SA 
HETATM   32  N   UNL     1      -9.866   4.169  67.076  1.00  0.00    -0.198 NA 
HETATM   33  C   UNL     1      -9.739   5.466  67.406  1.00  0.00    -0.140 A  
ENDBRANCH  25  26
BRANCH  25  34
HETATM   34  N   UNL     1      -6.741   7.850  68.991  1.00  0.00    -0.048 NA 
HETATM   35  H   UNL     1      -6.342   7.045  69.473  1.00  0.00     0.000 HD 
BRANCH  34  36
HETATM   36  O   UNL     1      -5.923   8.614  68.152  1.00  0.00    -0.045 OA 
HETATM   37  C   UNL     1      -5.604   8.160  66.853  1.00  0.00    -0.037 C  
ENDBRANCH  34  36
ENDBRANCH  25  34
ENDBRANCH  22  25
ENDBRANCH   5  21
TORSDOF 7
ENDMDL
MODEL      198
REMARK 921   NORMALIZED FREE ENERGY PREDICTED BY IDOCK:   -3.64 KCAL/MOL
REMARK 922        TOTAL FREE ENERGY PREDICTED BY IDOCK:   -6.64 KCAL/MOL
REMARK 923 INTER-LIGAND FREE ENERGY PREDICTED BY IDOCK:   -5.22 KCAL/MOL
REMARK 924 INTRA-LIGAND FREE ENERGY PREDICTED BY IDOCK:   -1.42 KCAL/MOL
REMARK 927      BINDING AFFINITY PREDICTED BY RF-SCORE:    0.00 PKD
ROOT
HETATM    1  C   UNL     1      -7.821   9.005  67.826  1.00  0.00    -0.101 C  
HETATM    2  S   UNL     1      -6.341   8.276  68.515  1.00  0.00    -0.055 SA 
HETATM    3  C   UNL     1      -6.372   6.852  67.440  1.00  0.00    -0.045 C  
HETATM    4  C   UNL     1      -7.732   6.223  67.167  1.00  0.00    -0.097 C  
HETATM    5  CA  UNL     1      -8.648   9.882  68.812  1.00  0.00    -0.130 C  
HETATM    6  CA  UNL     1      -8.936   6.815  67.382  1.00  0.00    -0.115 C  
HETATM    7  OXT UNL     1     -11.295   6.797  66.825  1.00  0.00    -0.239 OA 
HETATM    8  N   UNL     1      -8.958   8.093  67.883  1.00  0.00    -0.134 N  
HETATM    9  C   UNL     1     -10.290   6.170  67.134  1.00  0.00    -0.230 C  
HETATM   10  O   UNL     1     -11.015   9.263  68.033  1.00  0.00    -0.155 OA 
HETATM   11  C   UNL     1      -9.841   9.060  68.206  1.00  0.00    -0.166 C  
HETATM   12  O   UNL     1     -10.346   4.827  67.278  1.00  0.00    -0.151 OA 
ENDROOT
BRANCH   4  13
HETATM   13  C   UNL     1      -7.507   4.884  66.639  1.00  0.00    -0.087 C  
HETATM   14  C   UNL     1      -7.305   3.730  67.291  1.00  0.00    -0.067 C  
BRANCH  14  15
HETATM   15  C   UNL     1      -7.275   3.518  68.699  1.00  0.00    -0.050 A  
HETATM   16  C   UNL     1      -8.267   2.968  69.511  1.00  0.00    -0.051 A  
HETATM   17  N   UNL     1      -8.075   3.121  70.876  1.00  0.00    -0.053 NA 
HETATM   18  S   UNL     1      -5.994   4.077  69.717  1.00  0.00    -0.019 SA 
HETATM   19  C   UNL     1      -9.512   2.271  69.080  1.00  0.00    -0.154 C  
HETATM   20  C   UNL     1      -6.923   3.705  71.098  1.00  0.00    -0.032 A  
ENDBRANCH  14  15
ENDBRANCH   4  13
BRANCH   5  21
HETATM   21  N   UNL     1      -8.268   9.812  70.259  1.00  0.00    -0.235 N  
HETATM   22  C   UNL     1      -8.722   9.052  71.323  1.00  0.00    -0.171 C  
HETATM   23  O   UNL     1      -8.048   9.047  72.356  1.00  0.00    -0.342 OA 
HETATM   24  H   UNL     1      -7.519  10.458  70.513  1.00  0.00     0.000 HD 
BRANCH  22  25
HETATM   25  C   UNL     1     -10.072   8.365  71.374  1.00  0.00    -0.215 C  
BRANCH  25  26
HETATM   26  C   UNL     1     -10.236   7.061  72.067  1.00  0.00    -0.190 A  
HETATM   27  H2  UNL     1      -9.314   3.735  74.592  1.00  0.00     0.000 HD 
HETATM   28  H1  UNL     1      -7.883   4.683  74.179  1.00  0.00     0.000 HD 
HETATM   29  C   UNL     1     -11.465   6.425  72.203  1.00  0.00    -0.301 A  
HETATM   30  N   UNL     1      -9.190   6.357  72.667  1.00  0.00    -0.139 NA 
HETATM   31  S   UNL     1     -11.330   5.036  73.186  1.00  0.00    -0.265 SA 
HETATM   32  N   UNL     1      -8.886   4.515  74.094  1.00  0.00    -0.106 NA 
HETATM   33  C   UNL     1      -9.645   5.318  73.329  1.00  0.00    -0.141 A  
ENDBRANCH  25  26
BRANCH  25  34
HETATM   34  N   UNL     1     -11.201   8.873  70.960  1.00  0.00    -0.264 NA 
HETATM   35  H   UNL     1     -11.713   8.400  70.217  1.00  0.00     0.000 HD 
BRANCH  34  36
HETATM   36  O   UNL     1     -11.728  10.048  71.506  1.00  0.00    -0.365 OA 
HETATM   37  C   UNL     1     -11.943  11.184  70.693  1.00  0.00    -0.360 C  
ENDBRANCH  34  36
ENDBRANCH  25  34
ENDBRANCH  22  25
ENDBRANCH   5  21
TORSDOF 7
ENDMDL
MODEL      199
REMARK 921   NORMALIZED FREE ENERGY PREDICTED BY IDOCK:   -3.62 KCAL/MOL
REMARK 922        TOTAL FREE ENERGY PREDICTED BY IDOCK:   -6.62 KCAL/MOL
REMARK 923 INTER-LIGAND FREE ENERGY PREDICTED BY IDOCK:   -5.29 KCAL/MOL
REMARK 924 INTRA-LIGAND FREE ENERGY PREDICTED BY IDOCK:   -1.33 KCAL/MOL
REMARK 927      BINDING AFFINITY PREDICTED BY RF-SCORE:    0.00 PKD
ROOT
HETATM    1  C   UNL     1     -11.297   6.460  69.937  1.00  0.00    -0.434 C  
HETATM    2  S   UNL     1     -10.393   6.990  68.488  1.00  0.00    -0.194 SA 
HETATM    3  C   UNL     1     -10.185   5.340  67.841  1.00  0.00    -0.145 C  
HETATM    4  C   UNL     1      -9.861   4.241  68.844  1.00  0.00    -0.131 C  
HETATM    5  CA  UNL     1     -11.138   7.374  71.188  1.00  0.00    -0.252 C  
HETATM    6  CA  UNL     1     -10.036   4.320  70.190  1.00  0.00    -0.136 C  
HETATM    7  OXT UNL     1     -10.272   3.060  72.246  1.00  0.00    -0.162 OA 
HETATM    8  N   UNL     1     -10.554   5.477  70.716  1.00  0.00    -0.261 N  
HETATM    9  C   UNL     1      -9.682   3.229  71.188  1.00  0.00    -0.142 C  
HETATM   10  O   UNL     1     -11.120   5.572  73.017  1.00  0.00    -0.267 OA 
HETATM   11  C   UNL     1     -10.931   5.992  71.904  1.00  0.00    -0.264 C  
HETATM   12  O   UNL     1      -8.648   2.426  70.852  1.00  0.00    -0.055 OA 
ENDROOT
BRANCH   4  13
HETATM   13  C   UNL     1      -9.332   3.102  68.104  1.00  0.00    -0.247 C  
HETATM   14  C   UNL     1      -8.482   3.075  67.068  1.00  0.00    -0.101 C  
BRANCH  14  15
HETATM   15  C   UNL     1      -7.854   4.181  66.427  1.00  0.00    -0.094 A  
HETATM   16  C   UNL     1      -8.062   4.663  65.135  1.00  0.00    -0.104 A  
HETATM   17  N   UNL     1      -7.131   5.586  64.684  1.00  0.00    -0.052 NA 
HETATM   18  S   UNL     1      -6.548   5.070  67.129  1.00  0.00    -0.055 SA 
HETATM   19  C   UNL     1      -9.141   4.274  64.183  1.00  0.00    -0.150 C  
HETATM   20  C   UNL     1      -6.280   5.861  65.641  1.00  0.00    -0.037 A  
ENDBRANCH  14  15
ENDBRANCH   4  13
BRANCH   5  21
HETATM   21  N   UNL     1     -10.070   8.423  71.125  1.00  0.00    -0.188 N  
HETATM   22  C   UNL     1      -8.800   8.516  71.668  1.00  0.00    -0.207 C  
HETATM   23  O   UNL     1      -8.057   9.404  71.244  1.00  0.00    -0.319 OA 
HETATM   24  H   UNL     1     -10.334   9.236  70.568  1.00  0.00     0.000 HD 
BRANCH  22  25
HETATM   25  C   UNL     1      -8.316   7.720  72.864  1.00  0.00    -0.140 C  
BRANCH  25  26
HETATM   26  C   UNL     1      -7.663   6.398  72.684  1.00  0.00    -0.104 A  
HETATM   27  H2  UNL     1      -5.308   3.319  70.877  1.00  0.00     0.000 HD 
HETATM   28  H1  UNL     1      -5.756   4.583  69.730  1.00  0.00     0.000 HD 
HETATM   29  C   UNL     1      -7.490   5.491  73.722  1.00  0.00    -0.091 A  
HETATM   30  N   UNL     1      -7.140   5.942  71.471  1.00  0.00    -0.075 NA 
HETATM   31  S   UNL     1      -6.565   4.148  73.216  1.00  0.00    -0.044 SA 
HETATM   32  N   UNL     1      -5.798   4.189  70.670  1.00  0.00    -0.013 NA 
HETATM   33  C   UNL     1      -6.495   4.811  71.636  1.00  0.00    -0.023 A  
ENDBRANCH  25  26
BRANCH  25  34
HETATM   34  N   UNL     1      -8.294   8.140  74.099  1.00  0.00    -0.278 NA 
HETATM   35  H   UNL     1      -8.966   7.756  74.764  1.00  0.00     0.000 HD 
BRANCH  34  36
HETATM   36  O   UNL     1      -7.379   9.102  74.540  1.00  0.00    -0.408 OA 
HETATM   37  C   UNL     1      -5.992   8.916  74.342  1.00  0.00    -0.117 C  
ENDBRANCH  34  36
ENDBRANCH  25  34
ENDBRANCH  22  25
ENDBRANCH   5  21
TORSDOF 7
ENDMDL
MODEL      200
REMARK 921   NORMALIZED FREE ENERGY PREDICTED BY IDOCK:   -3.62 KCAL/MOL
REMARK 922        TOTAL FREE ENERGY PREDICTED BY IDOCK:   -6.61 KCAL/MOL
REMARK 923 INTER-LIGAND FREE ENERGY PREDICTED BY IDOCK:   -5.87 KCAL/MOL
REMARK 924 INTRA-LIGAND FREE ENERGY PREDICTED BY IDOCK:   -0.74 KCAL/MOL
REMARK 927      BINDING AFFINITY PREDICTED BY RF-SCORE:    0.00 PKD
ROOT
HETATM    1  C   UNL     1      -7.802   8.754  67.788  1.00  0.00    -0.102 C  
HETATM    2  S   UNL     1      -6.305   9.149  68.681  1.00  0.00    -0.049 SA 
HETATM    3  C   UNL     1      -6.434   7.759  69.793  1.00  0.00    -0.034 C  
HETATM    4  C   UNL     1      -7.823   7.424  70.319  1.00  0.00    -0.095 C  
HETATM    5  CA  UNL     1      -8.548   9.976  67.173  1.00  0.00    -0.128 C  
HETATM    6  CA  UNL     1      -8.997   7.853  69.786  1.00  0.00    -0.146 C  
HETATM    7  OXT UNL     1     -11.383   7.455  69.640  1.00  0.00    -0.109 OA 
HETATM    8  N   UNL     1      -8.957   8.654  68.672  1.00  0.00    -0.142 N  
HETATM    9  C   UNL     1     -10.380   7.537  70.335  1.00  0.00    -0.214 C  
HETATM   10  O   UNL     1     -10.971   9.215  67.553  1.00  0.00    -0.176 OA 
HETATM   11  C   UNL     1      -9.794   9.260  67.806  1.00  0.00    -0.171 C  
HETATM   12  O   UNL     1     -10.463   7.348  71.670  1.00  0.00    -0.198 OA 
ENDROOT
BRANCH   4  13
HETATM   13  C   UNL     1      -7.664   6.568  71.489  1.00  0.00    -0.099 C  
HETATM   14  C   UNL     1      -7.696   5.231  71.581  1.00  0.00    -0.108 C  
BRANCH  14  15
HETATM   15  C   UNL     1      -7.883   4.290  70.530  1.00  0.00    -0.052 A  
HETATM   16  C   UNL     1      -7.825   2.897  70.596  1.00  0.00    -0.042 A  
HETATM   17  N   UNL     1      -7.787   2.242  69.375  1.00  0.00    -0.042 NA 
HETATM   18  S   UNL     1      -8.077   4.742  68.872  1.00  0.00    -0.082 SA 
HETATM   19  C   UNL     1      -7.764   2.048  71.819  1.00  0.00    -0.041 C  
HETATM   20  C   UNL     1      -7.895   3.112  68.401  1.00  0.00    -0.058 A  
ENDBRANCH  14  15
ENDBRANCH   4  13
BRANCH   5  21
HETATM   21  N   UNL     1      -8.087  11.334  67.604  1.00  0.00    -0.116 N  
HETATM   22  C   UNL     1      -8.756  12.487  67.981  1.00  0.00    -0.186 C  
HETATM   23  O   UNL     1      -8.100  13.383  68.516  1.00  0.00    -0.150 OA 
HETATM   24  H   UNL     1      -7.072  11.430  67.624  1.00  0.00     0.000 HD 
BRANCH  22  25
HETATM   25  C   UNL     1     -10.198  12.798  67.630  1.00  0.00    -0.219 C  
BRANCH  25  26
HETATM   26  C   UNL     1     -11.174  13.172  68.685  1.00  0.00    -0.276 A  
HETATM   27  H2  UNL     1     -13.473  12.892  72.281  1.00  0.00     0.000 HD 
HETATM   28  H1  UNL     1     -12.798  11.336  71.791  1.00  0.00     0.000 HD 
HETATM   29  C   UNL     1     -11.661  14.464  68.843  1.00  0.00    -0.322 A  
HETATM   30  N   UNL     1     -11.681  12.280  69.633  1.00  0.00    -0.317 NA 
HETATM   31  S   UNL     1     -12.633  14.586  70.241  1.00  0.00    -0.274 SA 
HETATM   32  N   UNL     1     -12.934  12.332  71.621  1.00  0.00    -0.367 NA 
HETATM   33  C   UNL     1     -12.404  12.911  70.528  1.00  0.00    -0.283 A  
ENDBRANCH  25  26
BRANCH  25  34
HETATM   34  N   UNL     1     -10.681  12.901  66.422  1.00  0.00    -0.268 NA 
HETATM   35  H   UNL     1     -10.114  13.343  65.699  1.00  0.00     0.000 HD 
BRANCH  34  36
HETATM   36  O   UNL     1     -11.953  12.422  66.090  1.00  0.00    -0.549 OA 
HETATM   37  C   UNL     1     -12.590  12.843  64.900  1.00  0.00    -0.458 C  
ENDBRANCH  34  36
ENDBRANCH  25  34
ENDBRANCH  22  25
ENDBRANCH   5  21
TORSDOF 7
ENDMDL
MODEL      201
REMARK 921   NORMALIZED FREE ENERGY PREDICTED BY IDOCK:   -3.62 KCAL/MOL
REMARK 922        TOTAL FREE ENERGY PREDICTED BY IDOCK:   -6.61 KCAL/MOL
REMARK 923 INTER-LIGAND FREE ENERGY PREDICTED BY IDOCK:   -6.06 KCAL/MOL
REMARK 924 INTRA-LIGAND FREE ENERGY PREDICTED BY IDOCK:   -0.55 KCAL/MOL
REMARK 927      BINDING AFFINITY PREDICTED BY RF-SCORE:    0.00 PKD
ROOT
HETATM    1  C   UNL     1      -9.290  14.599  66.124  1.00  0.00    -0.230 C  
HETATM    2  S   UNL     1     -10.544  15.804  66.541  1.00  0.00    -0.285 SA 
HETATM    3  C   UNL     1      -9.413  16.896  67.386  1.00  0.00    -0.238 C  
HETATM    4  C   UNL     1      -8.354  16.245  68.267  1.00  0.00    -0.185 C  
HETATM    5  CA  UNL     1      -9.798  13.132  65.995  1.00  0.00    -0.260 C  
HETATM    6  CA  UNL     1      -7.976  14.941  68.219  1.00  0.00    -0.130 C  
HETATM    7  OXT UNL     1      -6.241  13.347  68.783  1.00  0.00    -0.080 OA 
HETATM    8  N   UNL     1      -8.580  14.117  67.302  1.00  0.00    -0.208 N  
HETATM    9  C   UNL     1      -6.939  14.293  69.122  1.00  0.00    -0.118 C  
HETATM   10  O   UNL     1      -7.779  11.905  67.001  1.00  0.00    -0.157 OA 
HETATM   11  C   UNL     1      -8.524  12.842  66.866  1.00  0.00    -0.086 C  
HETATM   12  O   UNL     1      -6.816  14.817  70.362  1.00  0.00    -0.109 OA 
ENDROOT
BRANCH   4  13
HETATM   13  C   UNL     1      -7.828  17.268  69.162  1.00  0.00    -0.050 C  
HETATM   14  C   UNL     1      -7.203  18.419  68.873  1.00  0.00    -0.286 C  
BRANCH  14  15
HETATM   15  C   UNL     1      -6.906  18.949  67.585  1.00  0.00    -0.212 A  
HETATM   16  C   UNL     1      -7.647  19.862  66.834  1.00  0.00    -0.269 A  
HETATM   17  N   UNL     1      -7.258  20.003  65.511  1.00  0.00    -0.317 NA 
HETATM   18  S   UNL     1      -5.579  18.408  66.618  1.00  0.00    -0.148 SA 
HETATM   19  C   UNL     1      -8.819  20.667  67.281  1.00  0.00    -0.344 C  
HETATM   20  C   UNL     1      -6.193  19.274  65.282  1.00  0.00    -0.268 A  
ENDBRANCH  14  15
ENDBRANCH   4  13
BRANCH   5  21
HETATM   21  N   UNL     1     -11.189  12.856  66.477  1.00  0.00    -0.291 N  
HETATM   22  C   UNL     1     -11.789  12.908  67.724  1.00  0.00    -0.339 C  
HETATM   23  O   UNL     1     -13.019  12.853  67.773  1.00  0.00     1.156 OA 
HETATM   24  H   UNL     1     -11.826  12.570  65.732  1.00  0.00     0.000 HD 
BRANCH  22  25
HETATM   25  C   UNL     1     -11.040  12.852  69.041  1.00  0.00    -0.233 C  
BRANCH  25  26
HETATM   26  C   UNL     1     -11.567  13.544  70.245  1.00  0.00    -0.066 A  
HETATM   27  H2  UNL     1     -12.619  16.753  72.870  1.00  0.00     0.000 HD 
HETATM   28  H1  UNL     1     -11.456  17.246  71.636  1.00  0.00     0.000 HD 
HETATM   29  C   UNL     1     -12.414  12.931  71.161  1.00  0.00    -0.249 A  
HETATM   30  N   UNL     1     -11.289  14.875  70.568  1.00  0.00    -0.254 NA 
HETATM   31  S   UNL     1     -12.961  14.045  72.332  1.00  0.00    -0.366 SA 
HETATM   32  N   UNL     1     -12.027  16.522  72.072  1.00  0.00    -0.356 NA 
HETATM   33  C   UNL     1     -12.002  15.264  71.599  1.00  0.00    -0.372 A  
ENDBRANCH  25  26
BRANCH  25  34
HETATM   34  N   UNL     1      -9.986  12.123  69.286  1.00  0.00    -0.263 NA 
HETATM   35  H   UNL     1      -9.147  12.574  69.651  1.00  0.00     0.000 HD 
BRANCH  34  36
HETATM   36  O   UNL     1      -9.971  10.742  69.063  1.00  0.00    -0.196 OA 
HETATM   37  C   UNL     1     -10.951   9.910  69.650  1.00  0.00    -0.252 C  
ENDBRANCH  34  36
ENDBRANCH  25  34
ENDBRANCH  22  25
ENDBRANCH   5  21
TORSDOF 7
ENDMDL
MODEL      202
REMARK 921   NORMALIZED FREE ENERGY PREDICTED BY IDOCK:   -3.52 KCAL/MOL
REMARK 922        TOTAL FREE ENERGY PREDICTED BY IDOCK:   -6.48 KCAL/MOL
REMARK 923 INTER-LIGAND FREE ENERGY PREDICTED BY IDOCK:   -4.57 KCAL/MOL
REMARK 924 INTRA-LIGAND FREE ENERGY PREDICTED BY IDOCK:   -1.90 KCAL/MOL
REMARK 927      BINDING AFFINITY PREDICTED BY RF-SCORE:    0.00 PKD
ROOT
HETATM    1  C   UNL     1      -6.414   3.567  68.378  1.00  0.00    -0.037 C  
HETATM    2  S   UNL     1      -5.334   4.990  68.428  1.00  0.00    -0.011 SA 
HETATM    3  C   UNL     1      -5.132   4.952  70.201  1.00  0.00     0.000 C  
HETATM    4  C   UNL     1      -6.372   4.639  71.029  1.00  0.00    -0.019 C  
HETATM    5  CA  UNL     1      -7.440   3.555  67.206  1.00  0.00    -0.074 C  
HETATM    6  CA  UNL     1      -7.515   4.073  70.561  1.00  0.00    -0.045 C  
HETATM    7  OXT UNL     1      -9.534   2.872  71.158  1.00  0.00    -0.134 OA 
HETATM    8  N   UNL     1      -7.584   3.737  69.232  1.00  0.00    -0.053 N  
HETATM    9  C   UNL     1      -8.759   3.791  71.389  1.00  0.00    -0.093 C  
HETATM   10  O   UNL     1      -9.448   2.515  68.422  1.00  0.00    -0.203 OA 
HETATM   11  C   UNL     1      -8.428   3.152  68.357  1.00  0.00    -0.080 C  
HETATM   12  O   UNL     1      -8.989   4.627  72.425  1.00  0.00    -0.123 OA 
ENDROOT
BRANCH   4  13
HETATM   13  C   UNL     1      -6.110   5.056  72.401  1.00  0.00    -0.029 C  
HETATM   14  C   UNL     1      -6.164   6.278  72.949  1.00  0.00    -0.054 C  
BRANCH  14  15
HETATM   15  C   UNL     1      -6.518   7.502  72.314  1.00  0.00    -0.050 A  
HETATM   16  C   UNL     1      -7.734   8.184  72.366  1.00  0.00    -0.122 A  
HETATM   17  N   UNL     1      -7.884   9.211  71.446  1.00  0.00    -0.340 NA 
HETATM   18  S   UNL     1      -5.490   8.320  71.188  1.00  0.00    -0.033 SA 
HETATM   19  C   UNL     1      -8.891   7.911  73.266  1.00  0.00    -0.311 C  
HETATM   20  C   UNL     1      -6.775   9.360  70.764  1.00  0.00    -0.105 A  
ENDBRANCH  14  15
ENDBRANCH   4  13
BRANCH   5  21
HETATM   21  N   UNL     1      -7.582   4.823  66.421  1.00  0.00    -0.086 N  
HETATM   22  C   UNL     1      -8.533   5.830  66.411  1.00  0.00    -0.122 C  
HETATM   23  O   UNL     1      -8.257   6.876  65.820  1.00  0.00    -0.119 OA 
HETATM   24  H   UNL     1      -6.822   4.976  65.758  1.00  0.00     0.000 HD 
BRANCH  22  25
HETATM   25  C   UNL     1      -9.952   5.677  66.923  1.00  0.00    -0.174 C  
BRANCH  25  26
HETATM   26  C   UNL     1     -10.418   6.441  68.109  1.00  0.00    -0.218 A  
HETATM   27  H2  UNL     1     -11.763   7.197  72.098  1.00  0.00     0.000 HD 
HETATM   28  H1  UNL     1     -11.938   5.501  71.639  1.00  0.00     0.000 HD 
HETATM   29  C   UNL     1     -10.264   7.816  68.233  1.00  0.00    -0.201 A  
HETATM   30  N   UNL     1     -11.033   5.860  69.222  1.00  0.00    -0.348 NA 
HETATM   31  S   UNL     1     -10.758   8.352  69.776  1.00  0.00    -0.175 SA 
HETATM   32  N   UNL     1     -11.672   6.457  71.402  1.00  0.00    -0.317 NA 
HETATM   33  C   UNL     1     -11.204   6.745  70.176  1.00  0.00    -0.335 A  
ENDBRANCH  25  26
BRANCH  25  34
HETATM   34  N   UNL     1     -10.904   5.005  66.337  1.00  0.00    -0.460 NA 
HETATM   35  H   UNL     1     -11.638   4.587  66.908  1.00  0.00     0.000 HD 
BRANCH  34  36
HETATM   36  O   UNL     1     -10.949   4.842  64.948  1.00  0.00     0.054 OA 
HETATM   37  C   UNL     1     -10.544   3.624  64.355  1.00  0.00    -0.152 C  
ENDBRANCH  34  36
ENDBRANCH  25  34
ENDBRANCH  22  25
ENDBRANCH   5  21
TORSDOF 7
ENDMDL
MODEL      203
REMARK 921   NORMALIZED FREE ENERGY PREDICTED BY IDOCK:   -3.50 KCAL/MOL
REMARK 922        TOTAL FREE ENERGY PREDICTED BY IDOCK:   -6.44 KCAL/MOL
REMARK 923 INTER-LIGAND FREE ENERGY PREDICTED BY IDOCK:   -6.06 KCAL/MOL
REMARK 924 INTRA-LIGAND FREE ENERGY PREDICTED BY IDOCK:   -0.39 KCAL/MOL
REMARK 927      BINDING AFFINITY PREDICTED BY RF-SCORE:    0.00 PKD
ROOT
HETATM    1  C   UNL     1      -8.429  13.682  66.241  1.00  0.00     0.739 C  
HETATM    2  S   UNL     1      -9.472  15.100  65.927  1.00  0.00    -0.236 SA 
HETATM    3  C   UNL     1      -8.290  16.284  66.549  1.00  0.00    -0.308 C  
HETATM    4  C   UNL     1      -7.523  15.897  67.807  1.00  0.00    -0.157 C  
HETATM    5  CA  UNL     1      -9.188  12.354  66.537  1.00  0.00    -0.215 C  
HETATM    6  CA  UNL     1      -7.404  14.639  68.307  1.00  0.00    -0.117 C  
HETATM    7  OXT UNL     1      -6.117  13.183  69.755  1.00  0.00    -0.117 OA 
HETATM    8  N   UNL     1      -8.012  13.607  67.637  1.00  0.00    -0.162 N  
HETATM    9  C   UNL     1      -6.661  14.265  69.580  1.00  0.00    -0.134 C  
HETATM   10  O   UNL     1      -7.622  11.369  68.317  1.00  0.00    -0.099 OA 
HETATM   11  C   UNL     1      -8.141  12.266  67.703  1.00  0.00    -0.165 C  
HETATM   12  O   UNL     1      -6.626  15.207  70.549  1.00  0.00    -0.027 OA 
ENDROOT
BRANCH   4  13
HETATM   13  C   UNL     1      -6.948  17.112  68.371  1.00  0.00    -0.195 C  
HETATM   14  C   UNL     1      -7.448  18.355  68.416  1.00  0.00    -0.300 C  
BRANCH  14  15
HETATM   15  C   UNL     1      -8.706  18.805  67.925  1.00  0.00    -0.296 A  
HETATM   16  C   UNL     1      -9.983  18.411  68.327  1.00  0.00    -0.369 A  
HETATM   17  N   UNL     1     -11.022  18.816  67.503  1.00  0.00    -0.334 NA 
HETATM   18  S   UNL     1      -8.873  19.866  66.569  1.00  0.00    -0.354 SA 
HETATM   19  C   UNL     1     -10.347  17.582  69.511  1.00  0.00     0.052 C  
HETATM   20  C   UNL     1     -10.553  19.571  66.539  1.00  0.00    -0.476 A  
ENDBRANCH  14  15
ENDBRANCH   4  13
BRANCH   5  21
HETATM   21  N   UNL     1     -10.663  12.460  66.778  1.00  0.00    -0.230 N  
HETATM   22  C   UNL     1     -11.492  12.014  67.793  1.00  0.00    -0.325 C  
HETATM   23  O   UNL     1     -12.640  12.461  67.836  1.00  0.00     0.193 OA 
HETATM   24  H   UNL     1     -11.158  12.964  66.042  1.00  0.00     0.000 HD 
BRANCH  22  25
HETATM   25  C   UNL     1     -11.150  10.890  68.751  1.00  0.00    -0.256 C  
BRANCH  25  26
HETATM   26  C   UNL     1     -10.583   9.611  68.251  1.00  0.00    -0.225 A  
HETATM   27  H2  UNL     1      -9.047   5.620  68.329  1.00  0.00     0.000 HD 
HETATM   28  H1  UNL     1      -9.025   6.381  69.922  1.00  0.00     0.000 HD 
HETATM   29  C   UNL     1     -10.622   9.238  66.913  1.00  0.00    -0.169 A  
HETATM   30  N   UNL     1      -9.980   8.650  69.066  1.00  0.00    -0.187 NA 
HETATM   31  S   UNL     1     -10.035   7.649  66.702  1.00  0.00    -0.176 SA 
HETATM   32  N   UNL     1      -9.221   6.431  68.922  1.00  0.00    -0.128 NA 
HETATM   33  C   UNL     1      -9.706   7.563  68.383  1.00  0.00    -0.156 A  
ENDBRANCH  25  26
BRANCH  25  34
HETATM   34  N   UNL     1     -11.183  10.963  70.053  1.00  0.00    -0.390 NA 
HETATM   35  H   UNL     1     -10.398  11.391  70.544  1.00  0.00     0.000 HD 
BRANCH  34  36
HETATM   36  O   UNL     1     -12.263  10.473  70.796  1.00  0.00    -0.306 OA 
HETATM   37  C   UNL     1     -12.970  11.320  71.679  1.00  0.00    -0.432 C  
ENDBRANCH  34  36
ENDBRANCH  25  34
ENDBRANCH  22  25
ENDBRANCH   5  21
TORSDOF 7
ENDMDL
MODEL      204
REMARK 921   NORMALIZED FREE ENERGY PREDICTED BY IDOCK:   -3.41 KCAL/MOL
REMARK 922        TOTAL FREE ENERGY PREDICTED BY IDOCK:   -6.32 KCAL/MOL
REMARK 923 INTER-LIGAND FREE ENERGY PREDICTED BY IDOCK:   -4.46 KCAL/MOL
REMARK 924 INTRA-LIGAND FREE ENERGY PREDICTED BY IDOCK:   -1.87 KCAL/MOL
REMARK 927      BINDING AFFINITY PREDICTED BY RF-SCORE:    0.00 PKD
ROOT
HETATM    1  C   UNL     1     -11.261   5.951  68.774  1.00  0.00     0.004 C  
HETATM    2  S   UNL     1     -10.898   6.870  67.284  1.00  0.00    -0.343 SA 
HETATM    3  C   UNL     1     -10.431   5.429  66.340  1.00  0.00    -0.267 C  
HETATM    4  C   UNL     1      -9.603   4.372  67.060  1.00  0.00    -0.221 C  
HETATM    5  CA  UNL     1     -11.049   6.735  70.103  1.00  0.00    -0.315 C  
HETATM    6  CA  UNL     1      -9.466   4.255  68.407  1.00  0.00    -0.155 C  
HETATM    7  OXT UNL     1      -8.870   2.771  70.228  1.00  0.00    -0.069 OA 
HETATM    8  N   UNL     1     -10.125   5.149  69.213  1.00  0.00    -0.211 N  
HETATM    9  C   UNL     1      -8.614   3.215  69.117  1.00  0.00    -0.072 C  
HETATM   10  O   UNL     1     -10.129   4.833  71.564  1.00  0.00    -0.185 OA 
HETATM   11  C   UNL     1     -10.327   5.405  70.522  1.00  0.00    -0.274 C  
HETATM   12  O   UNL     1      -7.519   2.785  68.451  1.00  0.00    -0.048 OA 
ENDROOT
BRANCH   4  13
HETATM   13  C   UNL     1      -8.991   3.519  66.049  1.00  0.00    -0.140 C  
HETATM   14  C   UNL     1      -7.971   3.776  65.217  1.00  0.00    -0.093 C  
BRANCH  14  15
HETATM   15  C   UNL     1      -7.202   4.970  65.124  1.00  0.00    -0.067 A  
HETATM   16  C   UNL     1      -7.072   5.832  64.035  1.00  0.00    -0.052 A  
HETATM   17  N   UNL     1      -6.058   6.773  64.134  1.00  0.00    -0.035 NA 
HETATM   18  S   UNL     1      -6.121   5.504  66.364  1.00  0.00    -0.031 SA 
HETATM   19  C   UNL     1      -7.871   5.832  62.776  1.00  0.00    -0.094 C  
HETATM   20  C   UNL     1      -5.482   6.681  65.307  1.00  0.00    -0.026 A  
ENDBRANCH  14  15
ENDBRANCH   4  13
BRANCH   5  21
HETATM   21  N   UNL     1     -10.336   8.049  70.005  1.00  0.00    -0.213 N  
HETATM   22  C   UNL     1      -9.155   8.529  70.545  1.00  0.00    -0.156 C  
HETATM   23  O   UNL     1      -8.701   9.582  70.091  1.00  0.00    -0.196 OA 
HETATM   24  H   UNL     1     -10.821   8.730  69.421  1.00  0.00     0.000 HD 
BRANCH  22  25
HETATM   25  C   UNL     1      -8.470   7.950  71.768  1.00  0.00    -0.119 C  
BRANCH  25  26
HETATM   26  C   UNL     1      -7.413   6.916  71.629  1.00  0.00    -0.085 A  
HETATM   27  H2  UNL     1      -5.197   3.339  72.394  1.00  0.00     0.000 HD 
HETATM   28  H1  UNL     1      -6.255   3.776  73.738  1.00  0.00     0.000 HD 
HETATM   29  C   UNL     1      -6.609   6.801  70.500  1.00  0.00    -0.052 A  
HETATM   30  N   UNL     1      -7.132   5.948  72.596  1.00  0.00    -0.083 NA 
HETATM   31  S   UNL     1      -5.614   5.418  70.594  1.00  0.00    -0.009 SA 
HETATM   32  N   UNL     1      -5.873   3.976  72.814  1.00  0.00    -0.013 NA 
HETATM   33  C   UNL     1      -6.257   5.079  72.148  1.00  0.00    -0.030 A  
ENDBRANCH  25  26
BRANCH  25  34
HETATM   34  N   UNL     1      -8.625   8.366  72.995  1.00  0.00    -0.345 NA 
HETATM   35  H   UNL     1      -8.177   9.235  73.282  1.00  0.00     0.000 HD 
BRANCH  34  36
HETATM   36  O   UNL     1      -9.389   7.655  73.927  1.00  0.00    -0.270 OA 
HETATM   37  C   UNL     1     -10.766   7.428  73.704  1.00  0.00    -0.190 C  
ENDBRANCH  34  36
ENDBRANCH  25  34
ENDBRANCH  22  25
ENDBRANCH   5  21
TORSDOF 7
ENDMDL
MODEL      205
REMARK 921   NORMALIZED FREE ENERGY PREDICTED BY IDOCK:   -3.36 KCAL/MOL
REMARK 922        TOTAL FREE ENERGY PREDICTED BY IDOCK:   -6.25 KCAL/MOL
REMARK 923 INTER-LIGAND FREE ENERGY PREDICTED BY IDOCK:   -5.91 KCAL/MOL
REMARK 924 INTRA-LIGAND FREE ENERGY PREDICTED BY IDOCK:   -0.34 KCAL/MOL
REMARK 927      BINDING AFFINITY PREDICTED BY RF-SCORE:    0.00 PKD
ROOT
HETATM    1  C   UNL     1      -8.663   6.616  66.397  1.00  0.00    -0.141 C  
HETATM    2  S   UNL     1     -10.341   6.157  66.810  1.00  0.00    -0.225 SA 
HETATM    3  C   UNL     1     -10.909   7.840  66.983  1.00  0.00    -0.106 C  
HETATM    4  C   UNL     1      -9.967   8.818  67.674  1.00  0.00    -0.247 C  
HETATM    5  CA  UNL     1      -7.573   5.584  66.812  1.00  0.00    -0.088 C  
HETATM    6  CA  UNL     1      -8.636   8.630  67.873  1.00  0.00    -0.137 C  
HETATM    7  OXT UNL     1      -6.517   9.712  68.334  1.00  0.00    -0.052 OA 
HETATM    8  N   UNL     1      -8.063   7.470  67.415  1.00  0.00    -0.115 N  
HETATM    9  C   UNL     1      -7.709   9.599  68.589  1.00  0.00    -0.080 C  
HETATM   10  O   UNL     1      -5.708   7.207  67.504  1.00  0.00    -0.023 OA 
HETATM   11  C   UNL     1      -6.854   6.877  67.337  1.00  0.00    -0.076 C  
HETATM   12  O   UNL     1      -8.270  10.355  69.559  1.00  0.00    -0.164 OA 
ENDROOT
BRANCH   4  13
HETATM   13  C   UNL     1     -10.749   9.980  68.079  1.00  0.00    -0.303 C  
HETATM   14  C   UNL     1     -11.122  11.051  67.365  1.00  0.00    -0.370 C  
BRANCH  14  15
HETATM   15  C   UNL     1     -10.856  11.320  65.993  1.00  0.00    -0.213 A  
HETATM   16  C   UNL     1     -11.462  12.263  65.163  1.00  0.00    -0.341 A  
HETATM   17  N   UNL     1     -11.192  12.131  63.809  1.00  0.00    -0.396 NA 
HETATM   18  S   UNL     1      -9.781  10.367  65.029  1.00  0.00    -0.324 SA 
HETATM   19  C   UNL     1     -12.384  13.365  65.561  1.00  0.00    -0.528 C  
HETATM   20  C   UNL     1     -10.335  11.157  63.622  1.00  0.00    -0.389 A  
ENDBRANCH  14  15
ENDBRANCH   4  13
BRANCH   5  21
HETATM   21  N   UNL     1      -8.007   4.472  67.718  1.00  0.00    -0.088 N  
HETATM   22  C   UNL     1      -8.330   4.417  69.063  1.00  0.00    -0.078 C  
HETATM   23  O   UNL     1      -8.884   3.398  69.480  1.00  0.00    -0.073 OA 
HETATM   24  H   UNL     1      -8.079   3.570  67.247  1.00  0.00     0.000 HD 
BRANCH  22  25
HETATM   25  C   UNL     1      -7.899   5.442  70.094  1.00  0.00    -0.081 C  
BRANCH  25  26
HETATM   26  C   UNL     1      -8.858   5.953  71.106  1.00  0.00    -0.136 A  
HETATM   27  H2  UNL     1     -10.823   6.403  74.879  1.00  0.00     0.000 HD 
HETATM   28  H1  UNL     1      -9.894   4.905  74.778  1.00  0.00     0.000 HD 
HETATM   29  C   UNL     1      -9.574   7.133  70.944  1.00  0.00    -0.167 A  
HETATM   30  N   UNL     1      -9.122   5.320  72.324  1.00  0.00    -0.138 NA 
HETATM   31  S   UNL     1     -10.458   7.512  72.354  1.00  0.00    -0.265 SA 
HETATM   32  N   UNL     1     -10.230   5.766  74.347  1.00  0.00    -0.277 NA 
HETATM   33  C   UNL     1      -9.894   6.065  73.080  1.00  0.00    -0.168 A  
ENDBRANCH  25  26
BRANCH  25  34
HETATM   34  N   UNL     1      -6.678   5.863  70.283  1.00  0.00    -0.047 NA 
HETATM   35  H   UNL     1      -5.920   5.432  69.756  1.00  0.00     0.000 HD 
BRANCH  34  36
HETATM   36  O   UNL     1      -6.380   6.888  71.187  1.00  0.00    -0.040 OA 
HETATM   37  C   UNL     1      -5.558   6.638  72.310  1.00  0.00    -0.037 C  
ENDBRANCH  34  36
ENDBRANCH  25  34
ENDBRANCH  22  25
ENDBRANCH   5  21
TORSDOF 7
ENDMDL
MODEL      206
REMARK 921   NORMALIZED FREE ENERGY PREDICTED BY IDOCK:   -3.34 KCAL/MOL
REMARK 922        TOTAL FREE ENERGY PREDICTED BY IDOCK:   -6.22 KCAL/MOL
REMARK 923 INTER-LIGAND FREE ENERGY PREDICTED BY IDOCK:   -5.61 KCAL/MOL
REMARK 924 INTRA-LIGAND FREE ENERGY PREDICTED BY IDOCK:   -0.62 KCAL/MOL
REMARK 927      BINDING AFFINITY PREDICTED BY RF-SCORE:    0.00 PKD
ROOT
HETATM    1  C   UNL     1     -11.044  10.783  67.016  1.00  0.00    -0.174 C  
HETATM    2  S   UNL     1     -10.518  10.440  65.342  1.00  0.00    -0.008 SA 
HETATM    3  C   UNL     1      -9.383   9.146  65.813  1.00  0.00    -0.245 C  
HETATM    4  C   UNL     1      -8.552   9.381  67.068  1.00  0.00    -0.131 C  
HETATM    5  CA  UNL     1     -11.495  12.250  67.281  1.00  0.00    -0.357 C  
HETATM    6  CA  UNL     1      -8.814  10.304  68.030  1.00  0.00    -0.122 C  
HETATM    7  OXT UNL     1      -8.412  10.955  70.330  1.00  0.00     0.814 OA 
HETATM    8  N   UNL     1      -9.921  11.103  67.888  1.00  0.00    -0.170 N  
HETATM    9  C   UNL     1      -7.962  10.552  69.265  1.00  0.00    -0.154 C  
HETATM   10  O   UNL     1     -10.566  12.545  69.657  1.00  0.00     0.274 OA 
HETATM   11  C   UNL     1     -10.585  12.073  68.549  1.00  0.00    -0.231 C  
HETATM   12  O   UNL     1      -6.640  10.306  69.137  1.00  0.00    -0.051 OA 
ENDROOT
BRANCH   4  13
HETATM   13  C   UNL     1      -7.435   8.445  67.046  1.00  0.00    -0.088 C  
HETATM   14  C   UNL     1      -7.264   7.301  67.724  1.00  0.00    -0.091 C  
BRANCH  14  15
HETATM   15  C   UNL     1      -8.162   6.693  68.647  1.00  0.00    -0.119 A  
HETATM   16  C   UNL     1      -9.275   5.897  68.374  1.00  0.00    -0.117 A  
HETATM   17  N   UNL     1     -10.116   5.656  69.450  1.00  0.00    -0.201 NA 
HETATM   18  S   UNL     1      -8.109   6.977  70.352  1.00  0.00    -0.120 SA 
HETATM   19  C   UNL     1      -9.674   5.313  67.062  1.00  0.00    -0.167 C  
HETATM   20  C   UNL     1      -9.611   6.190  70.535  1.00  0.00    -0.168 A  
ENDBRANCH  14  15
ENDBRANCH   4  13
BRANCH   5  21
HETATM   21  N   UNL     1     -11.200  13.251  66.206  1.00  0.00    -0.294 N  
HETATM   22  C   UNL     1     -10.648  14.521  66.218  1.00  0.00    -0.304 C  
HETATM   23  O   UNL     1     -10.311  15.012  65.139  1.00  0.00    -0.379 OA 
HETATM   24  H   UNL     1     -11.460  12.931  65.273  1.00  0.00     0.000 HD 
BRANCH  22  25
HETATM   25  C   UNL     1     -10.588  15.420  67.437  1.00  0.00    -0.289 C  
BRANCH  25  26
HETATM   26  C   UNL     1     -10.184  16.844  67.312  1.00  0.00    -0.297 A  
HETATM   27  H2  UNL     1      -9.616  20.945  68.385  1.00  0.00     0.000 HD 
HETATM   28  H1  UNL     1     -10.799  20.137  69.417  1.00  0.00     0.000 HD 
HETATM   29  C   UNL     1      -9.291  17.296  66.348  1.00  0.00    -0.258 A  
HETATM   30  N   UNL     1     -10.636  17.863  68.154  1.00  0.00    -0.374 NA 
HETATM   31  S   UNL     1      -8.919  18.946  66.581  1.00  0.00    -0.331 SA 
HETATM   32  N   UNL     1     -10.152  20.113  68.628  1.00  0.00    -0.332 NA 
HETATM   33  C   UNL     1     -10.006  18.988  67.908  1.00  0.00    -0.358 A  
ENDBRANCH  25  26
BRANCH  25  34
HETATM   34  N   UNL     1     -10.991  15.103  68.637  1.00  0.00    -0.244 NA 
HETATM   35  H   UNL     1     -10.312  14.741  69.306  1.00  0.00     0.000 HD 
BRANCH  34  36
HETATM   36  O   UNL     1     -12.325  15.246  69.033  1.00  0.00    -0.162 OA 
HETATM   37  C   UNL     1     -12.662  15.332  70.403  1.00  0.00    -0.356 C  
ENDBRANCH  34  36
ENDBRANCH  25  34
ENDBRANCH  22  25
ENDBRANCH   5  21
TORSDOF 7
ENDMDL
MODEL      207
REMARK 921   NORMALIZED FREE ENERGY PREDICTED BY IDOCK:   -3.31 KCAL/MOL
REMARK 922        TOTAL FREE ENERGY PREDICTED BY IDOCK:   -6.18 KCAL/MOL
REMARK 923 INTER-LIGAND FREE ENERGY PREDICTED BY IDOCK:   -5.18 KCAL/MOL
REMARK 924 INTRA-LIGAND FREE ENERGY PREDICTED BY IDOCK:   -1.00 KCAL/MOL
REMARK 927      BINDING AFFINITY PREDICTED BY RF-SCORE:    0.00 PKD
ROOT
HETATM    1  C   UNL     1      -8.045   9.523  67.525  1.00  0.00    -0.110 C  
HETATM    2  S   UNL     1      -6.338   9.120  67.870  1.00  0.00    -0.055 SA 
HETATM    3  C   UNL     1      -6.233   7.858  66.612  1.00  0.00    -0.050 C  
HETATM    4  C   UNL     1      -7.439   6.941  66.455  1.00  0.00    -0.074 C  
HETATM    5  CA  UNL     1      -8.860  10.053  68.741  1.00  0.00    -0.137 C  
HETATM    6  CA  UNL     1      -8.688   7.184  66.932  1.00  0.00    -0.126 C  
HETATM    7  OXT UNL     1     -11.039   6.632  66.736  1.00  0.00    -0.354 OA 
HETATM    8  N   UNL     1      -8.912   8.354  67.614  1.00  0.00    -0.135 N  
HETATM    9  C   UNL     1      -9.878   6.248  66.796  1.00  0.00    -0.164 C  
HETATM   10  O   UNL     1     -11.122   8.945  68.240  1.00  0.00     0.044 OA 
HETATM   11  C   UNL     1      -9.920   9.027  68.205  1.00  0.00    -0.173 C  
HETATM   12  O   UNL     1      -9.597   4.927  66.747  1.00  0.00    -0.137 OA 
ENDROOT
BRANCH   4  13
HETATM   13  C   UNL     1      -7.010   5.765  65.707  1.00  0.00    -0.068 C  
HETATM   14  C   UNL     1      -6.506   4.605  66.151  1.00  0.00    -0.041 C  
BRANCH  14  15
HETATM   15  C   UNL     1      -6.272   4.217  67.501  1.00  0.00    -0.036 A  
HETATM   16  C   UNL     1      -6.745   3.088  68.170  1.00  0.00    -0.044 A  
HETATM   17  N   UNL     1      -6.578   3.095  69.547  1.00  0.00    -0.033 NA 
HETATM   18  S   UNL     1      -5.440   5.212  68.645  1.00  0.00    -0.011 SA 
HETATM   19  C   UNL     1      -7.432   1.904  67.580  1.00  0.00    -0.055 C  
HETATM   20  C   UNL     1      -5.921   4.169  69.907  1.00  0.00    -0.018 A  
ENDBRANCH  14  15
ENDBRANCH   4  13
BRANCH   5  21
HETATM   21  N   UNL     1      -8.218   9.926  70.089  1.00  0.00    -0.275 N  
HETATM   22  C   UNL     1      -8.289   8.968  71.086  1.00  0.00    -0.159 C  
HETATM   23  O   UNL     1      -7.457   9.020  71.994  1.00  0.00    -0.337 OA 
HETATM   24  H   UNL     1      -7.603  10.707  70.320  1.00  0.00     0.000 HD 
BRANCH  22  25
HETATM   25  C   UNL     1      -9.417   7.966  71.237  1.00  0.00    -0.157 C  
BRANCH  25  26
HETATM   26  C   UNL     1     -10.802   8.419  71.525  1.00  0.00    -0.258 A  
HETATM   27  H2  UNL     1     -14.169  11.040  71.819  1.00  0.00     0.000 HD 
HETATM   28  H1  UNL     1     -12.644  11.917  71.673  1.00  0.00     0.000 HD 
HETATM   29  C   UNL     1     -11.864   7.540  71.703  1.00  0.00    -0.291 A  
HETATM   30  N   UNL     1     -11.183   9.760  71.624  1.00  0.00    -0.245 NA 
HETATM   31  S   UNL     1     -13.340   8.385  71.855  1.00  0.00    -0.356 SA 
HETATM   32  N   UNL     1     -13.152  11.035  71.743  1.00  0.00    -0.480 NA 
HETATM   33  C   UNL     1     -12.486   9.868  71.736  1.00  0.00    -0.397 A  
ENDBRANCH  25  26
BRANCH  25  34
HETATM   34  N   UNL     1      -9.331   6.684  71.010  1.00  0.00    -0.160 NA 
HETATM   35  H   UNL     1      -8.607   6.146  71.485  1.00  0.00     0.000 HD 
BRANCH  34  36
HETATM   36  O   UNL     1     -10.202   6.027  70.135  1.00  0.00    -0.185 OA 
HETATM   37  C   UNL     1     -10.194   4.616  70.039  1.00  0.00    -0.100 C  
ENDBRANCH  34  36
ENDBRANCH  25  34
ENDBRANCH  22  25
ENDBRANCH   5  21
TORSDOF 7
ENDMDL
MODEL      208
REMARK 921   NORMALIZED FREE ENERGY PREDICTED BY IDOCK:   -3.27 KCAL/MOL
REMARK 922        TOTAL FREE ENERGY PREDICTED BY IDOCK:   -6.12 KCAL/MOL
REMARK 923 INTER-LIGAND FREE ENERGY PREDICTED BY IDOCK:   -5.33 KCAL/MOL
REMARK 924 INTRA-LIGAND FREE ENERGY PREDICTED BY IDOCK:   -0.79 KCAL/MOL
REMARK 927      BINDING AFFINITY PREDICTED BY RF-SCORE:    0.00 PKD
ROOT
HETATM    1  C   UNL     1      -8.984   8.167  68.527  1.00  0.00    -0.137 C  
HETATM    2  S   UNL     1      -8.294   8.547  70.131  1.00  0.00    -0.130 SA 
HETATM    3  C   UNL     1      -8.154  10.298  69.813  1.00  0.00    -0.110 C  
HETATM    4  C   UNL     1      -7.681  10.711  68.426  1.00  0.00    -0.106 C  
HETATM    5  CA  UNL     1      -8.668   6.740  67.991  1.00  0.00    -0.118 C  
HETATM    6  CA  UNL     1      -7.672   9.917  67.323  1.00  0.00    -0.095 C  
HETATM    7  OXT UNL     1      -7.610   9.871  64.901  1.00  0.00    -0.123 OA 
HETATM    8  N   UNL     1      -8.129   8.628  67.439  1.00  0.00    -0.102 N  
HETATM    9  C   UNL     1      -7.171  10.329  65.948  1.00  0.00    -0.131 C  
HETATM   10  O   UNL     1      -8.377   7.288  65.499  1.00  0.00    -0.134 OA 
HETATM   11  C   UNL     1      -8.347   7.537  66.677  1.00  0.00    -0.127 C  
HETATM   12  O   UNL     1      -6.183  11.250  65.924  1.00  0.00    -0.043 OA 
ENDROOT
BRANCH   4  13
HETATM   13  C   UNL     1      -7.244  12.100  68.498  1.00  0.00    -0.102 C  
HETATM   14  C   UNL     1      -7.949  13.228  68.335  1.00  0.00    -0.132 C  
BRANCH  14  15
HETATM   15  C   UNL     1      -9.341  13.354  68.061  1.00  0.00    -0.217 A  
HETATM   16  C   UNL     1      -9.988  14.334  67.308  1.00  0.00    -0.252 A  
HETATM   17  N   UNL     1     -11.370  14.361  67.422  1.00  0.00    -0.321 NA 
HETATM   18  S   UNL     1     -10.546  12.343  68.778  1.00  0.00    -0.136 SA 
HETATM   19  C   UNL     1      -9.364  15.367  66.432  1.00  0.00    -0.331 C  
HETATM   20  C   UNL     1     -11.770  13.372  68.182  1.00  0.00    -0.362 A  
ENDBRANCH  14  15
ENDBRANCH   4  13
BRANCH   5  21
HETATM   21  N   UNL     1      -7.633   5.954  68.735  1.00  0.00    -0.089 N  
HETATM   22  C   UNL     1      -7.648   4.718  69.360  1.00  0.00    -0.056 C  
HETATM   23  O   UNL     1      -6.566   4.226  69.688  1.00  0.00    -0.032 OA 
HETATM   24  H   UNL     1      -6.730   6.427  68.795  1.00  0.00     0.000 HD 
BRANCH  22  25
HETATM   25  C   UNL     1      -8.903   4.006  69.826  1.00  0.00    -0.089 C  
BRANCH  25  26
HETATM   26  C   UNL     1      -9.754   4.588  70.895  1.00  0.00    -0.193 A  
HETATM   27  H2  UNL     1     -11.162   5.495  74.830  1.00  0.00     0.000 HD 
HETATM   28  H1  UNL     1     -10.075   4.104  74.809  1.00  0.00     0.000 HD 
HETATM   29  C   UNL     1     -10.632   5.642  70.675  1.00  0.00    -0.277 A  
HETATM   30  N   UNL     1      -9.746   4.156  72.224  1.00  0.00    -0.147 NA 
HETATM   31  S   UNL     1     -11.332   6.173  72.138  1.00  0.00    -0.307 SA 
HETATM   32  N   UNL     1     -10.580   4.838  74.312  1.00  0.00    -0.288 NA 
HETATM   33  C   UNL     1     -10.482   4.941  72.975  1.00  0.00    -0.199 A  
ENDBRANCH  25  26
BRANCH  25  34
HETATM   34  N   UNL     1      -9.419   2.939  69.280  1.00  0.00    -0.135 NA 
HETATM   35  H   UNL     1      -9.820   2.221  69.883  1.00  0.00     0.000 HD 
BRANCH  34  36
HETATM   36  O   UNL     1      -9.438   2.750  67.894  1.00  0.00    -0.213 OA 
HETATM   37  C   UNL     1      -8.540   1.848  67.280  1.00  0.00    -0.097 C  
ENDBRANCH  34  36
ENDBRANCH  25  34
ENDBRANCH  22  25
ENDBRANCH   5  21
TORSDOF 7
ENDMDL
MODEL      209
REMARK 921   NORMALIZED FREE ENERGY PREDICTED BY IDOCK:   -3.24 KCAL/MOL
REMARK 922        TOTAL FREE ENERGY PREDICTED BY IDOCK:   -6.08 KCAL/MOL
REMARK 923 INTER-LIGAND FREE ENERGY PREDICTED BY IDOCK:   -4.63 KCAL/MOL
REMARK 924 INTRA-LIGAND FREE ENERGY PREDICTED BY IDOCK:   -1.45 KCAL/MOL
REMARK 927      BINDING AFFINITY PREDICTED BY RF-SCORE:    0.00 PKD
ROOT
HETATM    1  C   UNL     1      -8.699   8.708  69.072  1.00  0.00    -0.134 C  
HETATM    2  S   UNL     1      -7.457   9.479  70.102  1.00  0.00    -0.152 SA 
HETATM    3  C   UNL     1      -7.451  11.013  69.190  1.00  0.00    -0.121 C  
HETATM    4  C   UNL     1      -7.535  10.914  67.672  1.00  0.00    -0.095 C  
HETATM    5  CA  UNL     1      -8.603   7.157  68.969  1.00  0.00    -0.129 C  
HETATM    6  CA  UNL     1      -7.939   9.822  66.971  1.00  0.00    -0.105 C  
HETATM    7  OXT UNL     1      -8.790   9.019  64.849  1.00  0.00    -0.192 OA 
HETATM    8  N   UNL     1      -8.316   8.700  67.666  1.00  0.00    -0.120 N  
HETATM    9  C   UNL     1      -7.992   9.722  65.455  1.00  0.00    -0.125 C  
HETATM   10  O   UNL     1      -9.271   6.865  66.506  1.00  0.00    -0.156 OA 
HETATM   11  C   UNL     1      -8.801   7.462  67.441  1.00  0.00    -0.123 C  
HETATM   12  O   UNL     1      -7.087  10.461  64.776  1.00  0.00    -0.120 OA 
ENDROOT
BRANCH   4  13
HETATM   13  C   UNL     1      -7.105  12.191  67.117  1.00  0.00    -0.120 C  
HETATM   14  C   UNL     1      -7.823  13.290  66.844  1.00  0.00     0.202 C  
BRANCH  14  15
HETATM   15  C   UNL     1      -9.217  13.494  67.051  1.00  0.00    -0.246 A  
HETATM   16  C   UNL     1      -9.844  14.217  68.065  1.00  0.00    -0.224 A  
HETATM   17  N   UNL     1     -11.214  14.032  68.173  1.00  0.00    -0.263 NA 
HETATM   18  S   UNL     1     -10.441  12.710  66.113  1.00  0.00    -0.263 SA 
HETATM   19  C   UNL     1      -9.208  15.130  69.057  1.00  0.00    -0.221 C  
HETATM   20  C   UNL     1     -11.632  13.248  67.210  1.00  0.00    -0.359 A  
ENDBRANCH  14  15
ENDBRANCH   4  13
BRANCH   5  21
HETATM   21  N   UNL     1      -7.362   6.520  69.514  1.00  0.00    -0.089 N  
HETATM   22  C   UNL     1      -7.066   5.896  70.714  1.00  0.00    -0.071 C  
HETATM   23  O   UNL     1      -6.016   5.254  70.785  1.00  0.00    -0.019 OA 
HETATM   24  H   UNL     1      -6.573   6.552  68.868  1.00  0.00     0.000 HD 
BRANCH  22  25
HETATM   25  C   UNL     1      -7.849   6.088  71.999  1.00  0.00    -0.106 C  
BRANCH  25  26
HETATM   26  C   UNL     1      -8.983   5.191  72.338  1.00  0.00    -0.131 A  
HETATM   27  H2  UNL     1     -11.203   1.569  72.833  1.00  0.00     0.000 HD 
HETATM   28  H1  UNL     1      -9.813   1.365  71.764  1.00  0.00     0.000 HD 
HETATM   29  C   UNL     1     -10.050   5.587  73.136  1.00  0.00    -0.180 A  
HETATM   30  N   UNL     1      -9.086   3.863  71.914  1.00  0.00    -0.113 NA 
HETATM   31  S   UNL     1     -11.092   4.276  73.463  1.00  0.00    -0.266 SA 
HETATM   32  N   UNL     1     -10.398   1.963  72.348  1.00  0.00    -0.159 NA 
HETATM   33  C   UNL     1     -10.110   3.270  72.481  1.00  0.00    -0.159 A  
ENDBRANCH  25  26
BRANCH  25  34
HETATM   34  N   UNL     1      -7.548   6.921  72.956  1.00  0.00    -0.088 NA 
HETATM   35  H   UNL     1      -8.144   6.961  73.782  1.00  0.00     0.000 HD 
BRANCH  34  36
HETATM   36  O   UNL     1      -6.432   7.762  72.883  1.00  0.00    -0.060 OA 
HETATM   37  C   UNL     1      -6.083   8.589  73.976  1.00  0.00    -0.126 C  
ENDBRANCH  34  36
ENDBRANCH  25  34
ENDBRANCH  22  25
ENDBRANCH   5  21
TORSDOF 7
ENDMDL
MODEL      210
REMARK 921   NORMALIZED FREE ENERGY PREDICTED BY IDOCK:   -3.20 KCAL/MOL
REMARK 922        TOTAL FREE ENERGY PREDICTED BY IDOCK:   -6.02 KCAL/MOL
REMARK 923 INTER-LIGAND FREE ENERGY PREDICTED BY IDOCK:   -5.19 KCAL/MOL
REMARK 924 INTRA-LIGAND FREE ENERGY PREDICTED BY IDOCK:   -0.82 KCAL/MOL
REMARK 927      BINDING AFFINITY PREDICTED BY RF-SCORE:    0.00 PKD
ROOT
HETATM    1  C   UNL     1      -7.755   9.063  70.958  1.00  0.00    -0.125 C  
HETATM    2  S   UNL     1      -6.477   8.583  69.803  1.00  0.00    -0.035 SA 
HETATM    3  C   UNL     1      -7.561   8.588  68.385  1.00  0.00    -0.096 C  
HETATM    4  C   UNL     1      -8.960   8.019  68.584  1.00  0.00    -0.134 C  
HETATM    5  CA  UNL     1      -7.556   8.552  72.416  1.00  0.00    -0.036 C  
HETATM    6  CA  UNL     1      -9.570   7.817  69.782  1.00  0.00    -0.167 C  
HETATM    7  OXT UNL     1     -11.692   7.502  70.910  1.00  0.00    -0.289 OA 
HETATM    8  N   UNL     1      -8.892   8.152  70.927  1.00  0.00    -0.137 N  
HETATM    9  C   UNL     1     -10.956   7.221  69.973  1.00  0.00    -0.253 C  
HETATM   10  O   UNL     1     -10.004   8.064  73.020  1.00  0.00    -0.278 OA 
HETATM   11  C   UNL     1      -9.074   8.179  72.263  1.00  0.00    -0.199 C  
HETATM   12  O   UNL     1     -11.358   6.333  69.037  1.00  0.00    -0.390 OA 
ENDROOT
BRANCH   4  13
HETATM   13  C   UNL     1      -9.517   7.733  67.268  1.00  0.00    -0.187 C  
HETATM   14  C   UNL     1     -10.140   8.550  66.407  1.00  0.00    -0.271 C  
BRANCH  14  15
HETATM   15  C   UNL     1     -10.405   9.940  66.561  1.00  0.00    -0.188 A  
HETATM   16  C   UNL     1      -9.997  10.994  65.743  1.00  0.00    -0.244 A  
HETATM   17  N   UNL     1     -10.174  12.264  66.271  1.00  0.00    -0.224 NA 
HETATM   18  S   UNL     1     -11.194  10.610  67.947  1.00  0.00    -0.260 SA 
HETATM   19  C   UNL     1      -9.367  10.906  64.395  1.00  0.00    -0.256 C  
HETATM   20  C   UNL     1     -10.778  12.181  67.431  1.00  0.00    -0.234 A  
ENDBRANCH  14  15
ENDBRANCH   4  13
BRANCH   5  21
HETATM   21  N   UNL     1      -6.487   7.525  72.630  1.00  0.00    -0.058 N  
HETATM   22  C   UNL     1      -6.318   6.225  72.185  1.00  0.00    -0.050 C  
HETATM   23  O   UNL     1      -5.211   5.704  72.336  1.00  0.00    -0.016 OA 
HETATM   24  H   UNL     1      -5.727   7.850  73.228  1.00  0.00     0.000 HD 
BRANCH  22  25
HETATM   25  C   UNL     1      -7.439   5.335  71.684  1.00  0.00    -0.093 C  
BRANCH  25  26
HETATM   26  C   UNL     1      -8.410   4.729  72.632  1.00  0.00    -0.112 A  
HETATM   27  H2  UNL     1     -12.165   3.459  74.237  1.00  0.00     0.000 HD 
HETATM   28  H1  UNL     1     -12.351   4.668  72.965  1.00  0.00     0.000 HD 
HETATM   29  C   UNL     1      -8.034   3.854  73.644  1.00  0.00    -0.087 A  
HETATM   30  N   UNL     1      -9.788   4.954  72.591  1.00  0.00    -0.156 NA 
HETATM   31  S   UNL     1      -9.401   3.217  74.443  1.00  0.00    -0.094 SA 
HETATM   32  N   UNL     1     -11.750   4.096  73.558  1.00  0.00    -0.093 NA 
HETATM   33  C   UNL     1     -10.413   4.179  73.447  1.00  0.00    -0.179 A  
ENDBRANCH  25  26
BRANCH  25  34
HETATM   34  N   UNL     1      -7.743   5.126  70.433  1.00  0.00    -0.073 NA 
HETATM   35  H   UNL     1      -7.255   5.656  69.711  1.00  0.00     0.000 HD 
BRANCH  34  36
HETATM   36  O   UNL     1      -8.716   4.196  70.052  1.00  0.00    -0.067 OA 
HETATM   37  C   UNL     1      -8.824   3.781  68.705  1.00  0.00    -0.111 C  
ENDBRANCH  34  36
ENDBRANCH  25  34
ENDBRANCH  22  25
ENDBRANCH   5  21
TORSDOF 7
ENDMDL
MODEL      211
REMARK 921   NORMALIZED FREE ENERGY PREDICTED BY IDOCK:   -3.16 KCAL/MOL
REMARK 922        TOTAL FREE ENERGY PREDICTED BY IDOCK:   -5.97 KCAL/MOL
REMARK 923 INTER-LIGAND FREE ENERGY PREDICTED BY IDOCK:   -5.07 KCAL/MOL
REMARK 924 INTRA-LIGAND FREE ENERGY PREDICTED BY IDOCK:   -0.90 KCAL/MOL
REMARK 927      BINDING AFFINITY PREDICTED BY RF-SCORE:    0.00 PKD
ROOT
HETATM    1  C   UNL     1      -8.220   7.945  66.087  1.00  0.00    -0.117 C  
HETATM    2  S   UNL     1      -9.559   6.974  66.766  1.00  0.00    -0.167 SA 
HETATM    3  C   UNL     1     -10.653   8.369  66.974  1.00  0.00    -0.246 C  
HETATM    4  C   UNL     1     -10.031   9.663  67.484  1.00  0.00    -0.231 C  
HETATM    5  CA  UNL     1      -6.792   7.386  66.360  1.00  0.00    -0.061 C  
HETATM    6  CA  UNL     1      -8.704   9.959  67.481  1.00  0.00    -0.121 C  
HETATM    7  OXT UNL     1      -7.058  11.735  67.580  1.00  0.00    -0.091 OA 
HETATM    8  N   UNL     1      -7.827   9.032  66.976  1.00  0.00    -0.098 N  
HETATM    9  C   UNL     1      -8.089  11.241  68.018  1.00  0.00    -0.128 C  
HETATM   10  O   UNL     1      -5.540   9.600  66.709  1.00  0.00    -0.045 OA 
HETATM   11  C   UNL     1      -6.509   8.885  66.730  1.00  0.00    -0.064 C  
HETATM   12  O   UNL     1      -8.745  11.836  69.040  1.00  0.00     0.055 OA 
ENDROOT
BRANCH   4  13
HETATM   13  C   UNL     1     -11.108  10.515  67.970  1.00  0.00    -0.361 C  
HETATM   14  C   UNL     1     -11.648  11.611  67.418  1.00  0.00    -0.330 C  
BRANCH  14  15
HETATM   15  C   UNL     1     -11.304  12.221  66.178  1.00  0.00    -0.353 A  
HETATM   16  C   UNL     1     -10.786  13.498  65.957  1.00  0.00    -0.278 A  
HETATM   17  N   UNL     1     -10.791  13.925  64.637  1.00  0.00    -0.409 NA 
HETATM   18  S   UNL     1     -11.630  11.499  64.641  1.00  0.00     0.055 SA 
HETATM   19  C   UNL     1     -10.266  14.456  66.973  1.00  0.00    -0.263 C  
HETATM   20  C   UNL     1     -11.229  12.963  63.863  1.00  0.00    -0.423 A  
ENDBRANCH  14  15
ENDBRANCH   4  13
BRANCH   5  21
HETATM   21  N   UNL     1      -6.683   6.271  67.354  1.00  0.00    -0.058 N  
HETATM   22  C   UNL     1      -6.881   6.197  68.722  1.00  0.00    -0.066 C  
HETATM   23  O   UNL     1      -6.946   5.079  69.235  1.00  0.00    -0.052 OA 
HETATM   24  H   UNL     1      -6.406   5.382  66.936  1.00  0.00     0.000 HD 
BRANCH  22  25
HETATM   25  C   UNL     1      -6.849   7.389  69.660  1.00  0.00    -0.052 C  
BRANCH  25  26
HETATM   26  C   UNL     1      -8.009   7.698  70.535  1.00  0.00    -0.100 A  
HETATM   27  H2  UNL     1     -11.498   9.703  71.984  1.00  0.00     0.000 HD 
HETATM   28  H1  UNL     1     -10.579  10.690  70.844  1.00  0.00     0.000 HD 
HETATM   29  C   UNL     1      -8.528   6.793  71.453  1.00  0.00    -0.120 A  
HETATM   30  N   UNL     1      -8.705   8.909  70.512  1.00  0.00    -0.167 NA 
HETATM   31  S   UNL     1      -9.951   7.400  72.175  1.00  0.00    -0.174 SA 
HETATM   32  N   UNL     1     -10.688   9.827  71.376  1.00  0.00    -0.177 NA 
HETATM   33  C   UNL     1      -9.768   8.851  71.280  1.00  0.00    -0.289 A  
ENDBRANCH  25  26
BRANCH  25  34
HETATM   34  N   UNL     1      -5.813   8.148  69.891  1.00  0.00    -0.023 NA 
HETATM   35  H   UNL     1      -4.886   7.810  69.635  1.00  0.00     0.000 HD 
BRANCH  34  36
HETATM   36  O   UNL     1      -5.937   9.412  70.478  1.00  0.00    -0.044 OA 
HETATM   37  C   UNL     1      -5.325   9.688  71.721  1.00  0.00    -0.075 C  
ENDBRANCH  34  36
ENDBRANCH  25  34
ENDBRANCH  22  25
ENDBRANCH   5  21
TORSDOF 7
ENDMDL
MODEL      212
REMARK 921   NORMALIZED FREE ENERGY PREDICTED BY IDOCK:   -3.14 KCAL/MOL
REMARK 922        TOTAL FREE ENERGY PREDICTED BY IDOCK:   -5.94 KCAL/MOL
REMARK 923 INTER-LIGAND FREE ENERGY PREDICTED BY IDOCK:   -6.06 KCAL/MOL
REMARK 924 INTRA-LIGAND FREE ENERGY PREDICTED BY IDOCK:    0.11 KCAL/MOL
REMARK 927      BINDING AFFINITY PREDICTED BY RF-SCORE:    0.00 PKD
ROOT
HETATM    1  C   UNL     1     -10.510   9.261  68.160  1.00  0.00    -0.215 C  
HETATM    2  S   UNL     1      -9.749   9.232  66.543  1.00  0.00    -0.262 SA 
HETATM    3  C   UNL     1      -9.610   7.453  66.486  1.00  0.00    -0.164 C  
HETATM    4  C   UNL     1      -9.194   6.752  67.772  1.00  0.00    -0.111 C  
HETATM    5  CA  UNL     1     -10.228  10.541  69.002  1.00  0.00    -0.216 C  
HETATM    6  CA  UNL     1      -9.238   7.292  69.019  1.00  0.00    -0.139 C  
HETATM    7  OXT UNL     1      -9.279   6.820  71.395  1.00  0.00    -0.153 OA 
HETATM    8  N   UNL     1      -9.699   8.577  69.160  1.00  0.00    -0.168 N  
HETATM    9  C   UNL     1      -8.793   6.596  70.295  1.00  0.00    -0.152 C  
HETATM   10  O   UNL     1     -10.040   9.473  71.330  1.00  0.00    -0.273 OA 
HETATM   11  C   UNL     1      -9.957   9.481  70.128  1.00  0.00    -0.241 C  
HETATM   12  O   UNL     1      -7.800   5.688  70.164  1.00  0.00    -0.087 OA 
ENDROOT
BRANCH   4  13
HETATM   13  C   UNL     1      -8.744   5.410  67.424  1.00  0.00    -0.107 C  
HETATM   14  C   UNL     1      -7.747   5.026  66.615  1.00  0.00    -0.092 C  
BRANCH  14  15
HETATM   15  C   UNL     1      -6.846   5.855  65.887  1.00  0.00    -0.060 A  
HETATM   16  C   UNL     1      -5.773   6.602  66.374  1.00  0.00    -0.018 A  
HETATM   17  N   UNL     1      -5.230   7.518  65.486  1.00  0.00    -0.028 NA 
HETATM   18  S   UNL     1      -7.033   6.214  64.205  1.00  0.00    -0.053 SA 
HETATM   19  C   UNL     1      -5.174   6.549  67.738  1.00  0.00    -0.004 C  
HETATM   20  C   UNL     1      -5.825   7.414  64.323  1.00  0.00    -0.037 A  
ENDBRANCH  14  15
ENDBRANCH   4  13
BRANCH   5  21
HETATM   21  N   UNL     1      -9.168  11.466  68.488  1.00  0.00    -0.192 N  
HETATM   22  C   UNL     1      -9.188  12.776  68.039  1.00  0.00    -0.208 C  
HETATM   23  O   UNL     1      -8.108  13.353  67.900  1.00  0.00    -0.135 OA 
HETATM   24  H   UNL     1      -8.239  11.043  68.463  1.00  0.00     0.000 HD 
BRANCH  22  25
HETATM   25  C   UNL     1     -10.427  13.494  67.541  1.00  0.00    -0.237 C  
BRANCH  25  26
HETATM   26  C   UNL     1     -10.321  14.816  66.872  1.00  0.00    -0.267 A  
HETATM   27  H2  UNL     1     -11.021  17.907  63.999  1.00  0.00     0.000 HD 
HETATM   28  H1  UNL     1     -11.505  16.315  63.407  1.00  0.00     0.000 HD 
HETATM   29  C   UNL     1      -9.812  15.945  67.501  1.00  0.00    -0.230 A  
HETATM   30  N   UNL     1     -10.739  15.065  65.562  1.00  0.00    -0.334 NA 
HETATM   31  S   UNL     1      -9.982  17.327  66.513  1.00  0.00    -0.316 SA 
HETATM   32  N   UNL     1     -11.099  16.899  64.138  1.00  0.00    -0.722 NA 
HETATM   33  C   UNL     1     -10.665  16.346  65.284  1.00  0.00    -0.295 A  
ENDBRANCH  25  26
BRANCH  25  34
HETATM   34  N   UNL     1     -11.635  13.003  67.522  1.00  0.00    -0.334 NA 
HETATM   35  H   UNL     1     -12.239  13.207  66.726  1.00  0.00     0.000 HD 
BRANCH  34  36
HETATM   36  O   UNL     1     -12.127  12.204  68.560  1.00  0.00    -0.317 OA 
HETATM   37  C   UNL     1     -12.440  12.772  69.816  1.00  0.00     0.112 C  
ENDBRANCH  34  36
ENDBRANCH  25  34
ENDBRANCH  22  25
ENDBRANCH   5  21
TORSDOF 7
ENDMDL
MODEL      213
REMARK 921   NORMALIZED FREE ENERGY PREDICTED BY IDOCK:   -3.10 KCAL/MOL
REMARK 922        TOTAL FREE ENERGY PREDICTED BY IDOCK:   -5.88 KCAL/MOL
REMARK 923 INTER-LIGAND FREE ENERGY PREDICTED BY IDOCK:   -4.71 KCAL/MOL
REMARK 924 INTRA-LIGAND FREE ENERGY PREDICTED BY IDOCK:   -1.18 KCAL/MOL
REMARK 927      BINDING AFFINITY PREDICTED BY RF-SCORE:    0.00 PKD
ROOT
HETATM    1  C   UNL     1      -6.187   7.076  68.946  1.00  0.00    -0.027 C  
HETATM    2  S   UNL     1      -6.029   6.011  67.519  1.00  0.00    -0.018 SA 
HETATM    3  C   UNL     1      -6.782   7.173  66.393  1.00  0.00    -0.053 C  
HETATM    4  C   UNL     1      -7.992   7.945  66.905  1.00  0.00    -0.108 C  
HETATM    5  CA  UNL     1      -6.331   6.338  70.311  1.00  0.00    -0.036 C  
HETATM    6  CA  UNL     1      -8.349   8.084  68.209  1.00  0.00    -0.123 C  
HETATM    7  OXT UNL     1      -9.630   9.392  69.796  1.00  0.00    -0.176 OA 
HETATM    8  N   UNL     1      -7.566   7.493  69.169  1.00  0.00    -0.098 N  
HETATM    9  C   UNL     1      -9.574   8.831  68.710  1.00  0.00    -0.158 C  
HETATM   10  O   UNL     1      -7.995   7.918  71.463  1.00  0.00    -0.090 OA 
HETATM   11  C   UNL     1      -7.484   7.385  70.511  1.00  0.00    -0.082 C  
HETATM   12  O   UNL     1     -10.642   8.850  67.881  1.00  0.00    -0.230 OA 
ENDROOT
BRANCH   4  13
HETATM   13  C   UNL     1      -8.689   8.500  65.752  1.00  0.00    -0.210 C  
HETATM   14  C   UNL     1      -8.879   9.780  65.402  1.00  0.00    -0.199 C  
BRANCH  14  15
HETATM   15  C   UNL     1      -8.422  10.946  66.080  1.00  0.00    -0.167 A  
HETATM   16  C   UNL     1      -7.122  11.261  66.477  1.00  0.00    -0.097 A  
HETATM   17  N   UNL     1      -7.006  12.335  67.346  1.00  0.00    -0.141 NA 
HETATM   18  S   UNL     1      -9.482  12.167  66.691  1.00  0.00    -0.227 SA 
HETATM   19  C   UNL     1      -5.862  10.557  66.104  1.00  0.00    -0.099 C  
HETATM   20  C   UNL     1      -8.183  12.876  67.541  1.00  0.00    -0.184 A  
ENDBRANCH  14  15
ENDBRANCH   4  13
BRANCH   5  21
HETATM   21  N   UNL     1      -6.578   4.862  70.256  1.00  0.00    -0.034 N  
HETATM   22  C   UNL     1      -7.596   4.090  69.722  1.00  0.00    -0.052 C  
HETATM   23  O   UNL     1      -7.406   2.876  69.622  1.00  0.00    -0.044 OA 
HETATM   24  H   UNL     1      -5.845   4.312  70.705  1.00  0.00     0.000 HD 
BRANCH  22  25
HETATM   25  C   UNL     1      -8.989   4.600  69.411  1.00  0.00    -0.096 C  
BRANCH  25  26
HETATM   26  C   UNL     1      -9.912   5.002  70.504  1.00  0.00    -0.242 A  
HETATM   27  H2  UNL     1     -11.363   5.639  74.476  1.00  0.00     0.000 HD 
HETATM   28  H1  UNL     1     -10.009   4.508  74.428  1.00  0.00     0.000 HD 
HETATM   29  C   UNL     1     -10.998   5.847  70.305  1.00  0.00    -0.320 A  
HETATM   30  N   UNL     1      -9.774   4.597  71.834  1.00  0.00    -0.158 NA 
HETATM   31  S   UNL     1     -11.751   6.235  71.787  1.00  0.00    -0.263 SA 
HETATM   32  N   UNL     1     -10.672   5.113  73.943  1.00  0.00    -0.291 NA 
HETATM   33  C   UNL     1     -10.637   5.218  72.603  1.00  0.00    -0.228 A  
ENDBRANCH  25  26
BRANCH  25  34
HETATM   34  N   UNL     1      -9.458   4.858  68.221  1.00  0.00    -0.131 NA 
HETATM   35  H   UNL     1      -9.679   5.822  67.975  1.00  0.00     0.000 HD 
BRANCH  34  36
HETATM   36  O   UNL     1      -9.666   3.851  67.272  1.00  0.00    -0.204 OA 
HETATM   37  C   UNL     1      -8.780   3.698  66.181  1.00  0.00    -0.120 C  
ENDBRANCH  34  36
ENDBRANCH  25  34
ENDBRANCH  22  25
ENDBRANCH   5  21
TORSDOF 7
ENDMDL
MODEL      214
REMARK 921   NORMALIZED FREE ENERGY PREDICTED BY IDOCK:   -3.09 KCAL/MOL
REMARK 922        TOTAL FREE ENERGY PREDICTED BY IDOCK:   -5.87 KCAL/MOL
REMARK 923 INTER-LIGAND FREE ENERGY PREDICTED BY IDOCK:   -4.85 KCAL/MOL
REMARK 924 INTRA-LIGAND FREE ENERGY PREDICTED BY IDOCK:   -1.02 KCAL/MOL
REMARK 927      BINDING AFFINITY PREDICTED BY RF-SCORE:    0.00 PKD
ROOT
HETATM    1  C   UNL     1      -7.836   9.581  70.398  1.00  0.00    -0.172 C  
HETATM    2  S   UNL     1      -6.484   9.348  69.252  1.00  0.00    -0.045 SA 
HETATM    3  C   UNL     1      -7.528   9.319  67.806  1.00  0.00    -0.088 C  
HETATM    4  C   UNL     1      -8.848   8.567  67.923  1.00  0.00    -0.137 C  
HETATM    5  CA  UNL     1      -7.606   8.995  71.823  1.00  0.00     0.128 C  
HETATM    6  CA  UNL     1      -9.453   8.205  69.084  1.00  0.00    -0.155 C  
HETATM    7  OXT UNL     1     -11.541   7.547  70.123  1.00  0.00    -0.166 OA 
HETATM    8  N   UNL     1      -8.848   8.539  70.270  1.00  0.00    -0.142 N  
HETATM    9  C   UNL     1     -10.756   7.429  69.192  1.00  0.00    -0.166 C  
HETATM   10  O   UNL     1      -9.984   8.163  72.318  1.00  0.00    -0.212 OA 
HETATM   11  C   UNL     1      -9.061   8.448  71.599  1.00  0.00    -0.205 C  
HETATM   12  O   UNL     1     -11.022   6.567  68.185  1.00  0.00    -0.280 OA 
ENDROOT
BRANCH   4  13
HETATM   13  C   UNL     1      -9.336   8.309  66.574  1.00  0.00    -0.263 C  
HETATM   14  C   UNL     1     -10.017   9.109  65.743  1.00  0.00    -0.145 C  
BRANCH  14  15
HETATM   15  C   UNL     1     -10.431  10.453  65.971  1.00  0.00    -0.140 A  
HETATM   16  C   UNL     1     -10.280  11.558  65.133  1.00  0.00    -0.274 A  
HETATM   17  N   UNL     1     -10.540  12.790  65.715  1.00  0.00    -0.269 NA 
HETATM   18  S   UNL     1     -11.092  11.002  67.472  1.00  0.00    -0.294 SA 
HETATM   19  C   UNL     1      -9.843  11.564  63.708  1.00  0.00    -0.348 C  
HETATM   20  C   UNL     1     -10.956  12.619  66.945  1.00  0.00    -0.262 A  
ENDBRANCH  14  15
ENDBRANCH   4  13
BRANCH   5  21
HETATM   21  N   UNL     1      -6.420   8.097  71.999  1.00  0.00    -0.055 N  
HETATM   22  C   UNL     1      -6.273   6.722  72.060  1.00  0.00    -0.038 C  
HETATM   23  O   UNL     1      -5.133   6.261  71.974  1.00  0.00    -0.021 OA 
HETATM   24  H   UNL     1      -5.540   8.604  72.094  1.00  0.00     0.000 HD 
BRANCH  22  25
HETATM   25  C   UNL     1      -7.389   5.753  72.399  1.00  0.00    -0.095 C  
BRANCH  25  26
HETATM   26  C   UNL     1      -7.732   4.638  71.478  1.00  0.00    -0.083 A  
HETATM   27  H2  UNL     1      -9.556   2.579  68.203  1.00  0.00     0.000 HD 
HETATM   28  H1  UNL     1     -10.383   4.089  68.593  1.00  0.00     0.000 HD 
HETATM   29  C   UNL     1      -6.985   3.469  71.393  1.00  0.00    -0.032 A  
HETATM   30  N   UNL     1      -8.816   4.657  70.597  1.00  0.00    -0.102 NA 
HETATM   31  S   UNL     1      -7.553   2.470  70.130  1.00  0.00    -0.043 SA 
HETATM   32  N   UNL     1      -9.646   3.411  68.786  1.00  0.00    -0.121 NA 
HETATM   33  C   UNL     1      -8.792   3.610  69.805  1.00  0.00    -0.092 A  
ENDBRANCH  25  26
BRANCH  25  34
HETATM   34  N   UNL     1      -8.040   5.707  73.528  1.00  0.00    -0.112 NA 
HETATM   35  H   UNL     1      -7.539   5.896  74.395  1.00  0.00     0.000 HD 
BRANCH  34  36
HETATM   36  O   UNL     1      -9.406   5.407  73.584  1.00  0.00    -0.133 OA 
HETATM   37  C   UNL     1     -10.253   6.085  74.489  1.00  0.00    -0.290 C  
ENDBRANCH  34  36
ENDBRANCH  25  34
ENDBRANCH  22  25
ENDBRANCH   5  21
TORSDOF 7
ENDMDL
MODEL      215
REMARK 921   NORMALIZED FREE ENERGY PREDICTED BY IDOCK:   -3.03 KCAL/MOL
REMARK 922        TOTAL FREE ENERGY PREDICTED BY IDOCK:   -5.79 KCAL/MOL
REMARK 923 INTER-LIGAND FREE ENERGY PREDICTED BY IDOCK:   -3.88 KCAL/MOL
REMARK 924 INTRA-LIGAND FREE ENERGY PREDICTED BY IDOCK:   -1.91 KCAL/MOL
REMARK 927      BINDING AFFINITY PREDICTED BY RF-SCORE:    0.00 PKD
ROOT
HETATM    1  C   UNL     1      -7.600   3.874  68.808  1.00  0.00    -0.054 C  
HETATM    2  S   UNL     1      -6.054   4.604  69.331  1.00  0.00    -0.027 SA 
HETATM    3  C   UNL     1      -6.729   5.309  70.825  1.00  0.00    -0.043 C  
HETATM    4  C   UNL     1      -8.117   5.929  70.729  1.00  0.00    -0.119 C  
HETATM    5  CA  UNL     1      -7.776   3.730  67.267  1.00  0.00    -0.079 C  
HETATM    6  CA  UNL     1      -9.013   5.715  69.730  1.00  0.00    -0.127 C  
HETATM    7  OXT UNL     1     -11.347   5.829  69.088  1.00  0.00    -0.193 OA 
HETATM    8  N   UNL     1      -8.667   4.864  68.711  1.00  0.00    -0.092 N  
HETATM    9  C   UNL     1     -10.385   6.361  69.627  1.00  0.00    -0.204 C  
HETATM   10  O   UNL     1     -10.284   4.254  67.087  1.00  0.00    -0.099 OA 
HETATM   11  C   UNL     1      -9.191   4.329  67.589  1.00  0.00    -0.149 C  
HETATM   12  O   UNL     1     -10.506   7.594  70.168  1.00  0.00    -0.216 OA 
ENDROOT
BRANCH   4  13
HETATM   13  C   UNL     1      -8.303   6.788  71.892  1.00  0.00    -0.109 C  
HETATM   14  C   UNL     1      -7.817   8.013  72.138  1.00  0.00    -0.144 C  
BRANCH  14  15
HETATM   15  C   UNL     1      -6.988   8.806  71.295  1.00  0.00    -0.088 A  
HETATM   16  C   UNL     1      -7.370   9.640  70.243  1.00  0.00    -0.149 A  
HETATM   17  N   UNL     1      -6.340  10.087  69.430  1.00  0.00    -0.044 NA 
HETATM   18  S   UNL     1      -5.260   8.752  71.337  1.00  0.00    -0.037 SA 
HETATM   19  C   UNL     1      -8.750  10.071  69.881  1.00  0.00    -0.169 C  
HETATM   20  C   UNL     1      -5.191   9.668  69.900  1.00  0.00    -0.033 A  
ENDBRANCH  14  15
ENDBRANCH   4  13
BRANCH   5  21
HETATM   21  N   UNL     1      -6.775   4.435  66.405  1.00  0.00    -0.049 N  
HETATM   22  C   UNL     1      -6.839   5.565  65.608  1.00  0.00    -0.064 C  
HETATM   23  O   UNL     1      -5.778   6.042  65.200  1.00  0.00    -0.023 OA 
HETATM   24  H   UNL     1      -5.857   3.990  66.405  1.00  0.00     0.000 HD 
BRANCH  22  25
HETATM   25  C   UNL     1      -8.122   6.158  65.058  1.00  0.00    -0.133 C  
BRANCH  25  26
HETATM   26  C   UNL     1      -8.617   7.475  65.535  1.00  0.00    -0.083 A  
HETATM   27  H2  UNL     1      -9.241  11.704  65.653  1.00  0.00     0.000 HD 
HETATM   28  H1  UNL     1      -7.875  11.254  64.628  1.00  0.00     0.000 HD 
HETATM   29  C   UNL     1      -9.666   7.608  66.436  1.00  0.00    -0.127 A  
HETATM   30  N   UNL     1      -8.100   8.704  65.116  1.00  0.00    -0.134 NA 
HETATM   31  S   UNL     1     -10.088   9.249  66.648  1.00  0.00    -0.262 SA 
HETATM   32  N   UNL     1      -8.629  10.988  65.262  1.00  0.00    -0.107 NA 
HETATM   33  C   UNL     1      -8.820   9.696  65.583  1.00  0.00    -0.159 A  
ENDBRANCH  25  26
BRANCH  25  34
HETATM   34  N   UNL     1      -8.820   5.674  64.068  1.00  0.00    -0.339 NA 
HETATM   35  H   UNL     1      -9.199   6.315  63.371  1.00  0.00     0.000 HD 
BRANCH  34  36
HETATM   36  O   UNL     1      -9.065   4.303  63.933  1.00  0.00    -0.137 OA 
HETATM   37  C   UNL     1      -8.492   3.573  62.867  1.00  0.00    -0.085 C  
ENDBRANCH  34  36
ENDBRANCH  25  34
ENDBRANCH  22  25
ENDBRANCH   5  21
TORSDOF 7
ENDMDL
MODEL      216
REMARK 921   NORMALIZED FREE ENERGY PREDICTED BY IDOCK:   -2.98 KCAL/MOL
REMARK 922        TOTAL FREE ENERGY PREDICTED BY IDOCK:   -5.71 KCAL/MOL
REMARK 923 INTER-LIGAND FREE ENERGY PREDICTED BY IDOCK:   -4.06 KCAL/MOL
REMARK 924 INTRA-LIGAND FREE ENERGY PREDICTED BY IDOCK:   -1.65 KCAL/MOL
REMARK 927      BINDING AFFINITY PREDICTED BY RF-SCORE:    0.00 PKD
ROOT
HETATM    1  C   UNL     1      -8.677   8.358  69.301  1.00  0.00    -0.138 C  
HETATM    2  S   UNL     1      -7.473   9.168  70.345  1.00  0.00    -0.122 SA 
HETATM    3  C   UNL     1      -7.547  10.720  69.467  1.00  0.00    -0.088 C  
HETATM    4  C   UNL     1      -7.630  10.649  67.948  1.00  0.00    -0.091 C  
HETATM    5  CA  UNL     1      -8.503   6.816  69.163  1.00  0.00    -0.128 C  
HETATM    6  CA  UNL     1      -7.979   9.554  67.223  1.00  0.00    -0.106 C  
HETATM    7  OXT UNL     1      -8.794   8.755  65.085  1.00  0.00    -0.186 OA 
HETATM    8  N   UNL     1      -8.297   8.399  67.894  1.00  0.00    -0.130 N  
HETATM    9  C   UNL     1      -8.031   9.483  65.705  1.00  0.00    -0.111 C  
HETATM   10  O   UNL     1      -9.161   6.543  66.696  1.00  0.00    -0.144 OA 
HETATM   11  C   UNL     1      -8.720   7.143  67.643  1.00  0.00    -0.121 C  
HETATM   12  O   UNL     1      -7.166  10.282  65.041  1.00  0.00    -0.136 OA 
ENDROOT
BRANCH   4  13
HETATM   13  C   UNL     1      -7.267  11.958  67.419  1.00  0.00    -0.142 C  
HETATM   14  C   UNL     1      -8.052  12.989  67.075  1.00  0.00    -0.043 C  
BRANCH  14  15
HETATM   15  C   UNL     1      -9.471  13.070  67.158  1.00  0.00    -0.230 A  
HETATM   16  C   UNL     1     -10.245  13.755  68.094  1.00  0.00    -0.253 A  
HETATM   17  N   UNL     1     -11.597  13.448  68.092  1.00  0.00    -0.319 NA 
HETATM   18  S   UNL     1     -10.535  12.158  66.143  1.00  0.00    -0.257 SA 
HETATM   19  C   UNL     1      -9.780  14.742  69.109  1.00  0.00    -0.149 C  
HETATM   20  C   UNL     1     -11.859  12.608  67.121  1.00  0.00    -0.330 A  
ENDBRANCH  14  15
ENDBRANCH   4  13
BRANCH   5  21
HETATM   21  N   UNL     1      -7.230   6.231  69.693  1.00  0.00    -0.076 N  
HETATM   22  C   UNL     1      -6.673   4.965  69.637  1.00  0.00    -0.051 C  
HETATM   23  O   UNL     1      -5.492   4.841  69.965  1.00  0.00    -0.007 OA 
HETATM   24  H   UNL     1      -6.656   6.904  70.201  1.00  0.00     0.000 HD 
BRANCH  22  25
HETATM   25  C   UNL     1      -7.454   3.693  69.368  1.00  0.00    -0.052 C  
BRANCH  25  26
HETATM   26  C   UNL     1      -7.841   3.317  67.984  1.00  0.00    -0.063 A  
HETATM   27  H2  UNL     1      -7.507   2.737  63.760  1.00  0.00     0.000 HD 
HETATM   28  H1  UNL     1      -6.281   3.842  64.387  1.00  0.00     0.000 HD 
HETATM   29  C   UNL     1      -8.923   2.493  67.698  1.00  0.00    -0.158 A  
HETATM   30  N   UNL     1      -7.154   3.729  66.840  1.00  0.00    -0.062 NA 
HETATM   31  S   UNL     1      -8.993   2.129  66.031  1.00  0.00    -0.064 SA 
HETATM   32  N   UNL     1      -7.095   3.247  64.541  1.00  0.00    -0.056 NA 
HETATM   33  C   UNL     1      -7.625   3.131  65.771  1.00  0.00    -0.074 A  
ENDBRANCH  25  26
BRANCH  25  34
HETATM   34  N   UNL     1      -7.738   2.774  70.250  1.00  0.00    -0.043 NA 
HETATM   35  H   UNL     1      -7.229   1.891  70.224  1.00  0.00     0.000 HD 
BRANCH  34  36
HETATM   36  O   UNL     1      -8.720   2.963  71.228  1.00  0.00    -0.063 OA 
HETATM   37  C   UNL     1      -8.963   1.968  72.202  1.00  0.00    -0.070 C  
ENDBRANCH  34  36
ENDBRANCH  25  34
ENDBRANCH  22  25
ENDBRANCH   5  21
TORSDOF 7
ENDMDL
MODEL      217
REMARK 921   NORMALIZED FREE ENERGY PREDICTED BY IDOCK:   -2.92 KCAL/MOL
REMARK 922        TOTAL FREE ENERGY PREDICTED BY IDOCK:   -5.62 KCAL/MOL
REMARK 923 INTER-LIGAND FREE ENERGY PREDICTED BY IDOCK:   -4.43 KCAL/MOL
REMARK 924 INTRA-LIGAND FREE ENERGY PREDICTED BY IDOCK:   -1.19 KCAL/MOL
REMARK 927      BINDING AFFINITY PREDICTED BY RF-SCORE:    0.00 PKD
ROOT
HETATM    1  C   UNL     1      -7.375  14.038  68.723  1.00  0.00    -0.127 C  
HETATM    2  S   UNL     1      -5.775  14.615  68.170  1.00  0.00    -0.132 SA 
HETATM    3  C   UNL     1      -6.407  16.126  67.462  1.00  0.00    -0.166 C  
HETATM    4  C   UNL     1      -7.725  16.035  66.705  1.00  0.00    -0.270 C  
HETATM    5  CA  UNL     1      -7.535  12.491  68.788  1.00  0.00    -0.049 C  
HETATM    6  CA  UNL     1      -8.619  15.015  66.791  1.00  0.00    -0.244 C  
HETATM    7  OXT UNL     1     -10.918  14.343  66.422  1.00  0.00    -0.308 OA 
HETATM    8  N   UNL     1      -8.338  13.966  67.631  1.00  0.00    -0.167 N  
HETATM    9  C   UNL     1      -9.920  14.917  66.009  1.00  0.00    -0.313 C  
HETATM   10  O   UNL     1      -9.976  12.294  68.014  1.00  0.00    -0.190 OA 
HETATM   11  C   UNL     1      -8.891  12.816  68.066  1.00  0.00    -0.195 C  
HETATM   12  O   UNL     1      -9.930  15.507  64.793  1.00  0.00    -0.245 OA 
ENDROOT
BRANCH   4  13
HETATM   13  C   UNL     1      -7.850  17.229  65.879  1.00  0.00    -0.054 C  
HETATM   14  C   UNL     1      -8.159  18.485  66.232  1.00  0.00    -0.259 C  
BRANCH  14  15
HETATM   15  C   UNL     1      -8.435  18.980  67.538  1.00  0.00    -0.282 A  
HETATM   16  C   UNL     1      -9.641  19.471  68.040  1.00  0.00    -0.359 A  
HETATM   17  N   UNL     1      -9.559  20.126  69.259  1.00  0.00     0.071 NA 
HETATM   18  S   UNL     1      -7.217  19.209  68.745  1.00  0.00    -0.342 SA 
HETATM   19  C   UNL     1     -10.986  19.400  67.402  1.00  0.00    -0.449 C  
HETATM   20  C   UNL     1      -8.331  20.064  69.713  1.00  0.00     0.819 A  
ENDBRANCH  14  15
ENDBRANCH   4  13
BRANCH   5  21
HETATM   21  N   UNL     1      -6.453  11.673  68.151  1.00  0.00    -0.053 N  
HETATM   22  C   UNL     1      -6.187  10.315  68.116  1.00  0.00    -0.052 C  
HETATM   23  O   UNL     1      -5.349   9.913  67.306  1.00  0.00    -0.041 OA 
HETATM   24  H   UNL     1      -5.773  12.233  67.637  1.00  0.00     0.000 HD 
BRANCH  22  25
HETATM   25  C   UNL     1      -6.722   9.309  69.116  1.00  0.00    -0.050 C  
BRANCH  25  26
HETATM   26  C   UNL     1      -7.643   8.226  68.686  1.00  0.00    -0.099 A  
HETATM   27  H2  UNL     1      -9.885   5.691  66.070  1.00  0.00     0.000 HD 
HETATM   28  H1  UNL     1      -9.348   7.173  65.275  1.00  0.00     0.000 HD 
HETATM   29  C   UNL     1      -8.021   7.178  69.518  1.00  0.00    -0.128 A  
HETATM   30  N   UNL     1      -8.202   8.135  67.409  1.00  0.00    -0.121 NA 
HETATM   31  S   UNL     1      -8.952   6.026  68.669  1.00  0.00    -0.117 SA 
HETATM   32  N   UNL     1      -9.407   6.591  66.110  1.00  0.00    -0.114 NA 
HETATM   33  C   UNL     1      -8.854   7.005  67.264  1.00  0.00    -0.119 A  
ENDBRANCH  25  26
BRANCH  25  34
HETATM   34  N   UNL     1      -6.349   9.203  70.362  1.00  0.00    -0.043 NA 
HETATM   35  H   UNL     1      -5.978   8.312  70.693  1.00  0.00     0.000 HD 
BRANCH  34  36
HETATM   36  O   UNL     1      -6.443  10.274  71.257  1.00  0.00    -0.326 OA 
HETATM   37  C   UNL     1      -5.277  10.918  71.730  1.00  0.00     0.092 C  
ENDBRANCH  34  36
ENDBRANCH  25  34
ENDBRANCH  22  25
ENDBRANCH   5  21
TORSDOF 7
ENDMDL
MODEL      218
REMARK 921   NORMALIZED FREE ENERGY PREDICTED BY IDOCK:   -2.87 KCAL/MOL
REMARK 922        TOTAL FREE ENERGY PREDICTED BY IDOCK:   -5.55 KCAL/MOL
REMARK 923 INTER-LIGAND FREE ENERGY PREDICTED BY IDOCK:   -5.49 KCAL/MOL
REMARK 924 INTRA-LIGAND FREE ENERGY PREDICTED BY IDOCK:   -0.06 KCAL/MOL
REMARK 927      BINDING AFFINITY PREDICTED BY RF-SCORE:    0.00 PKD
ROOT
HETATM    1  C   UNL     1      -9.282   8.358  67.008  1.00  0.00    -0.151 C  
HETATM    2  S   UNL     1      -8.632   9.890  67.661  1.00  0.00    -0.121 SA 
HETATM    3  C   UNL     1      -9.060  10.851  66.220  1.00  0.00    -0.176 C  
HETATM    4  C   UNL     1      -8.836  10.196  64.863  1.00  0.00    -0.214 C  
HETATM    5  CA  UNL     1      -8.580   7.067  67.523  1.00  0.00    -0.121 C  
HETATM    6  CA  UNL     1      -8.659   8.867  64.644  1.00  0.00    -0.143 C  
HETATM    7  OXT UNL     1      -8.754   7.087  63.002  1.00  0.00     0.320 OA 
HETATM    8  N   UNL     1      -8.688   8.016  65.721  1.00  0.00    -0.156 N  
HETATM    9  C   UNL     1      -8.406   8.225  63.290  1.00  0.00    -0.039 C  
HETATM   10  O   UNL     1      -8.646   5.671  65.369  1.00  0.00    -0.147 OA 
HETATM   11  C   UNL     1      -8.612   6.698  65.998  1.00  0.00    -0.148 C  
HETATM   12  O   UNL     1      -7.754   8.984  62.382  1.00  0.00    -0.113 OA 
ENDROOT
BRANCH   4  13
HETATM   13  C   UNL     1      -8.843  11.248  63.854  1.00  0.00     0.181 C  
HETATM   14  C   UNL     1      -9.675  12.288  63.708  1.00  0.00    -0.073 C  
BRANCH  14  15
HETATM   15  C   UNL     1     -10.778  12.644  64.535  1.00  0.00    -0.341 A  
HETATM   16  C   UNL     1     -12.133  12.380  64.331  1.00  0.00    -0.426 A  
HETATM   17  N   UNL     1     -13.008  13.066  65.159  1.00  0.00    -0.764 NA 
HETATM   18  S   UNL     1     -10.632  13.649  65.935  1.00  0.00    -0.294 SA 
HETATM   19  C   UNL     1     -12.739  11.478  63.309  1.00  0.00     0.048 C  
HETATM   20  C   UNL     1     -12.331  13.775  66.028  1.00  0.00    -0.457 A  
ENDBRANCH  14  15
ENDBRANCH   4  13
BRANCH   5  21
HETATM   21  N   UNL     1      -7.304   7.252  68.286  1.00  0.00    -0.097 N  
HETATM   22  C   UNL     1      -7.024   7.521  69.615  1.00  0.00    -0.053 C  
HETATM   23  O   UNL     1      -5.860   7.382  69.997  1.00  0.00    -0.023 OA 
HETATM   24  H   UNL     1      -6.469   7.161  67.706  1.00  0.00     0.000 HD 
BRANCH  22  25
HETATM   25  C   UNL     1      -8.005   8.140  70.591  1.00  0.00    -0.096 C  
BRANCH  25  26
HETATM   26  C   UNL     1      -9.189   7.378  71.065  1.00  0.00    -0.153 A  
HETATM   27  H2  UNL     1     -11.620   4.948  73.610  1.00  0.00     0.000 HD 
HETATM   28  H1  UNL     1      -9.905   4.842  74.016  1.00  0.00     0.000 HD 
HETATM   29  C   UNL     1     -10.462   7.549  70.533  1.00  0.00    -0.219 A  
HETATM   30  N   UNL     1      -9.153   6.437  72.097  1.00  0.00    -0.141 NA 
HETATM   31  S   UNL     1     -11.617   6.645  71.406  1.00  0.00    -0.329 SA 
HETATM   32  N   UNL     1     -10.652   5.208  73.425  1.00  0.00    -0.229 NA 
HETATM   33  C   UNL     1     -10.363   6.031  72.402  1.00  0.00    -0.194 A  
ENDBRANCH  25  26
BRANCH  25  34
HETATM   34  N   UNL     1      -7.857   9.287  71.195  1.00  0.00    -0.329 NA 
HETATM   35  H   UNL     1      -8.124   9.368  72.175  1.00  0.00     0.000 HD 
BRANCH  34  36
HETATM   36  O   UNL     1      -7.342  10.409  70.537  1.00  0.00    -0.240 OA 
HETATM   37  C   UNL     1      -5.997  10.799  70.727  1.00  0.00    -0.048 C  
ENDBRANCH  34  36
ENDBRANCH  25  34
ENDBRANCH  22  25
ENDBRANCH   5  21
TORSDOF 7
ENDMDL
MODEL      219
REMARK 921   NORMALIZED FREE ENERGY PREDICTED BY IDOCK:   -2.77 KCAL/MOL
REMARK 922        TOTAL FREE ENERGY PREDICTED BY IDOCK:   -5.41 KCAL/MOL
REMARK 923 INTER-LIGAND FREE ENERGY PREDICTED BY IDOCK:   -4.97 KCAL/MOL
REMARK 924 INTRA-LIGAND FREE ENERGY PREDICTED BY IDOCK:   -0.44 KCAL/MOL
REMARK 927      BINDING AFFINITY PREDICTED BY RF-SCORE:    0.00 PKD
ROOT
HETATM    1  C   UNL     1     -10.582   9.244  68.520  1.00  0.00    -0.183 C  
HETATM    2  S   UNL     1     -10.526  10.760  69.467  1.00  0.00    -0.118 SA 
HETATM    3  C   UNL     1     -10.846  11.815  68.064  1.00  0.00    -0.213 C  
HETATM    4  C   UNL     1     -10.149  11.455  66.758  1.00  0.00    -0.250 C  
HETATM    5  CA  UNL     1      -9.705   8.083  69.076  1.00  0.00    -0.159 C  
HETATM    6  CA  UNL     1      -9.585  10.253  66.466  1.00  0.00    -0.181 C  
HETATM    7  OXT UNL     1      -8.826   8.785  64.693  1.00  0.00    -0.136 OA 
HETATM    8  N   UNL     1      -9.638   9.258  67.409  1.00  0.00    -0.145 N  
HETATM    9  C   UNL     1      -8.865   9.911  65.171  1.00  0.00    -0.180 C  
HETATM   10  O   UNL     1      -8.902   7.072  66.856  1.00  0.00    -0.118 OA 
HETATM   11  C   UNL     1      -9.285   7.966  67.568  1.00  0.00    -0.136 C  
HETATM   12  O   UNL     1      -8.243  10.935  64.546  1.00  0.00     0.013 OA 
ENDROOT
BRANCH   4  13
HETATM   13  C   UNL     1     -10.198  12.623  65.888  1.00  0.00    -0.290 C  
HETATM   14  C   UNL     1     -10.105  13.924  66.198  1.00  0.00    -0.317 C  
BRANCH  14  15
HETATM   15  C   UNL     1      -9.914  14.502  67.486  1.00  0.00    -0.224 A  
HETATM   16  C   UNL     1      -8.715  14.734  68.160  1.00  0.00    -0.168 A  
HETATM   17  N   UNL     1      -8.838  15.066  69.501  1.00  0.00    -0.120 NA 
HETATM   18  S   UNL     1     -11.217  14.897  68.553  1.00  0.00    -0.295 SA 
HETATM   19  C   UNL     1      -7.332  14.633  67.615  1.00  0.00    -0.204 C  
HETATM   20  C   UNL     1     -10.105  15.163  69.819  1.00  0.00    -0.160 A  
ENDBRANCH  14  15
ENDBRANCH   4  13
BRANCH   5  21
HETATM   21  N   UNL     1      -8.734   8.432  70.163  1.00  0.00    -0.133 N  
HETATM   22  C   UNL     1      -7.779   7.703  70.851  1.00  0.00    -0.088 C  
HETATM   23  O   UNL     1      -6.962   8.324  71.532  1.00  0.00    -0.056 OA 
HETATM   24  H   UNL     1      -8.789   9.408  70.456  1.00  0.00     0.000 HD 
BRANCH  22  25
HETATM   25  C   UNL     1      -7.771   6.191  70.966  1.00  0.00    -0.102 C  
BRANCH  25  26
HETATM   26  C   UNL     1      -8.572   5.504  72.012  1.00  0.00    -0.131 A  
HETATM   27  H2  UNL     1      -9.488   2.882  75.264  1.00  0.00     0.000 HD 
HETATM   28  H1  UNL     1      -7.979   2.450  74.455  1.00  0.00     0.000 HD 
HETATM   29  C   UNL     1      -9.807   5.969  72.447  1.00  0.00    -0.162 A  
HETATM   30  N   UNL     1      -8.163   4.345  72.676  1.00  0.00    -0.103 NA 
HETATM   31  S   UNL     1     -10.382   5.046  73.763  1.00  0.00    -0.259 SA 
HETATM   32  N   UNL     1      -8.804   3.045  74.525  1.00  0.00    -0.078 NA 
HETATM   33  C   UNL     1      -8.994   4.045  73.646  1.00  0.00    -0.092 A  
ENDBRANCH  25  26
BRANCH  25  34
HETATM   34  N   UNL     1      -7.204   5.367  70.129  1.00  0.00    -0.065 NA 
HETATM   35  H   UNL     1      -6.187   5.285  70.128  1.00  0.00     0.000 HD 
BRANCH  34  36
HETATM   36  O   UNL     1      -7.948   4.594  69.231  1.00  0.00    -0.069 OA 
HETATM   37  C   UNL     1      -7.587   3.253  68.969  1.00  0.00    -0.048 C  
ENDBRANCH  34  36
ENDBRANCH  25  34
ENDBRANCH  22  25
ENDBRANCH   5  21
TORSDOF 7
ENDMDL
MODEL      220
REMARK 921   NORMALIZED FREE ENERGY PREDICTED BY IDOCK:   -2.71 KCAL/MOL
REMARK 922        TOTAL FREE ENERGY PREDICTED BY IDOCK:   -5.33 KCAL/MOL
REMARK 923 INTER-LIGAND FREE ENERGY PREDICTED BY IDOCK:   -4.07 KCAL/MOL
REMARK 924 INTRA-LIGAND FREE ENERGY PREDICTED BY IDOCK:   -1.26 KCAL/MOL
REMARK 927      BINDING AFFINITY PREDICTED BY RF-SCORE:    0.00 PKD
ROOT
HETATM    1  C   UNL     1      -8.688   6.224  67.640  1.00  0.00    -0.113 C  
HETATM    2  S   UNL     1     -10.366   5.839  68.123  1.00  0.00    -0.215 SA 
HETATM    3  C   UNL     1     -10.783   7.523  68.537  1.00  0.00    -0.073 C  
HETATM    4  C   UNL     1      -9.721   8.338  69.265  1.00  0.00    -0.177 C  
HETATM    5  CA  UNL     1      -7.659   5.072  67.845  1.00  0.00    -0.083 C  
HETATM    6  CA  UNL     1      -8.399   8.032  69.338  1.00  0.00    -0.131 C  
HETATM    7  OXT UNL     1      -6.174   8.893  69.762  1.00  0.00    -0.034 OA 
HETATM    8  N   UNL     1      -7.953   6.899  68.704  1.00  0.00    -0.118 N  
HETATM    9  C   UNL     1      -7.351   8.834  70.092  1.00  0.00    -0.055 C  
HETATM   10  O   UNL     1      -5.626   6.459  68.580  1.00  0.00    -0.014 OA 
HETATM   11  C   UNL     1      -6.804   6.235  68.464  1.00  0.00    -0.074 C  
HETATM   12  O   UNL     1      -7.783   9.502  71.185  1.00  0.00    -0.325 OA 
ENDROOT
BRANCH   4  13
HETATM   13  C   UNL     1     -10.378   9.493  69.865  1.00  0.00    -0.265 C  
HETATM   14  C   UNL     1     -10.559  10.726  69.371  1.00  0.00    -0.254 C  
BRANCH  14  15
HETATM   15  C   UNL     1     -10.160  11.221  68.097  1.00  0.00    -0.182 A  
HETATM   16  C   UNL     1      -9.638  12.477  67.782  1.00  0.00    -0.203 A  
HETATM   17  N   UNL     1      -9.582  12.779  66.430  1.00  0.00    -0.256 NA 
HETATM   18  S   UNL     1     -10.406  10.356  66.620  1.00  0.00    -0.212 SA 
HETATM   19  C   UNL     1      -9.173  13.530  68.729  1.00  0.00     0.078 C  
HETATM   20  C   UNL     1      -9.977  11.745  65.729  1.00  0.00    -0.238 A  
ENDBRANCH  14  15
ENDBRANCH   4  13
BRANCH   5  21
HETATM   21  N   UNL     1      -8.118   3.891  68.643  1.00  0.00    -0.074 N  
HETATM   22  C   UNL     1      -8.107   3.598  69.996  1.00  0.00    -0.049 C  
HETATM   23  O   UNL     1      -8.776   2.638  70.383  1.00  0.00    -0.063 OA 
HETATM   24  H   UNL     1      -8.524   3.149  68.071  1.00  0.00     0.000 HD 
BRANCH  22  25
HETATM   25  C   UNL     1      -7.196   4.262  71.011  1.00  0.00    -0.037 C  
BRANCH  25  26
HETATM   26  C   UNL     1      -7.712   5.320  71.916  1.00  0.00    -0.110 A  
HETATM   27  H2  UNL     1     -10.455   7.469  74.397  1.00  0.00     0.000 HD 
HETATM   28  H1  UNL     1     -11.270   6.336  73.315  1.00  0.00     0.000 HD 
HETATM   29  C   UNL     1      -6.882   6.188  72.617  1.00  0.00    -0.074 A  
HETATM   30  N   UNL     1      -9.068   5.539  72.173  1.00  0.00    -0.143 NA 
HETATM   31  S   UNL     1      -7.783   7.169  73.685  1.00  0.00    -0.102 SA 
HETATM   32  N   UNL     1     -10.413   6.773  73.653  1.00  0.00    -0.325 NA 
HETATM   33  C   UNL     1      -9.226   6.435  73.119  1.00  0.00    -0.128 A  
ENDBRANCH  25  26
BRANCH  25  34
HETATM   34  N   UNL     1      -5.971   3.905  71.281  1.00  0.00    -0.013 NA 
HETATM   35  H   UNL     1      -5.243   4.073  70.587  1.00  0.00     0.000 HD 
BRANCH  34  36
HETATM   36  O   UNL     1      -5.625   3.300  72.495  1.00  0.00    -0.006 OA 
HETATM   37  C   UNL     1      -5.469   1.898  72.579  1.00  0.00     0.000 C  
ENDBRANCH  34  36
ENDBRANCH  25  34
ENDBRANCH  22  25
ENDBRANCH   5  21
TORSDOF 7
ENDMDL
MODEL      221
REMARK 921   NORMALIZED FREE ENERGY PREDICTED BY IDOCK:   -2.38 KCAL/MOL
REMARK 922        TOTAL FREE ENERGY PREDICTED BY IDOCK:   -4.87 KCAL/MOL
REMARK 923 INTER-LIGAND FREE ENERGY PREDICTED BY IDOCK:   -5.15 KCAL/MOL
REMARK 924 INTRA-LIGAND FREE ENERGY PREDICTED BY IDOCK:    0.28 KCAL/MOL
REMARK 927      BINDING AFFINITY PREDICTED BY RF-SCORE:    0.00 PKD
ROOT
HETATM    1  C   UNL     1      -9.511   8.475  65.284  1.00  0.00     0.371 C  
HETATM    2  S   UNL     1      -9.338   8.435  67.063  1.00  0.00    -0.171 SA 
HETATM    3  C   UNL     1     -10.633   9.627  67.357  1.00  0.00    -0.268 C  
HETATM    4  C   UNL     1     -10.700  10.819  66.411  1.00  0.00    -0.228 C  
HETATM    5  CA  UNL     1      -8.210   8.170  64.484  1.00  0.00    -0.115 C  
HETATM    6  CA  UNL     1     -10.101  10.900  65.194  1.00  0.00    -0.292 C  
HETATM    7  OXT UNL     1     -10.090  12.027  63.049  1.00  0.00    -0.348 OA 
HETATM    8  N   UNL     1      -9.371   9.825  64.751  1.00  0.00    -0.267 N  
HETATM    9  C   UNL     1     -10.150  12.105  64.268  1.00  0.00    -0.290 C  
HETATM   10  O   UNL     1      -8.525   9.811  62.535  1.00  0.00    -0.141 OA 
HETATM   11  C   UNL     1      -8.671   9.429  63.668  1.00  0.00    -0.202 C  
HETATM   12  O   UNL     1     -10.260  13.312  64.866  1.00  0.00    -0.325 OA 
ENDROOT
BRANCH   4  13
HETATM   13  C   UNL     1     -11.516  11.847  67.046  1.00  0.00    -0.384 C  
HETATM   14  C   UNL     1     -11.141  12.899  67.788  1.00  0.00    -0.291 C  
BRANCH  14  15
HETATM   15  C   UNL     1      -9.818  13.293  68.136  1.00  0.00    -0.231 A  
HETATM   16  C   UNL     1      -9.332  14.580  68.371  1.00  0.00    -0.208 A  
HETATM   17  N   UNL     1      -7.952  14.696  68.435  1.00  0.00    -0.130 NA 
HETATM   18  S   UNL     1      -8.481  12.197  68.182  1.00  0.00    -0.178 SA 
HETATM   19  C   UNL     1     -10.122  15.834  68.526  1.00  0.00    -0.215 C  
HETATM   20  C   UNL     1      -7.403  13.510  68.331  1.00  0.00    -0.115 A  
ENDBRANCH  14  15
ENDBRANCH   4  13
BRANCH   5  21
HETATM   21  N   UNL     1      -6.932   8.133  65.265  1.00  0.00    -0.062 N  
HETATM   22  C   UNL     1      -6.294   7.143  65.993  1.00  0.00    -0.044 C  
HETATM   23  O   UNL     1      -5.125   7.341  66.332  1.00  0.00    -0.021 OA 
HETATM   24  H   UNL     1      -6.428   9.020  65.259  1.00  0.00     0.000 HD 
BRANCH  22  25
HETATM   25  C   UNL     1      -6.978   5.911  66.552  1.00  0.00    -0.060 C  
BRANCH  25  26
HETATM   26  C   UNL     1      -7.202   5.763  68.013  1.00  0.00    -0.072 A  
HETATM   27  H2  UNL     1      -9.309   5.522  71.727  1.00  0.00     0.000 HD 
HETATM   28  H1  UNL     1     -10.279   6.260  70.450  1.00  0.00     0.000 HD 
HETATM   29  C   UNL     1      -6.250   5.232  68.875  1.00  0.00    -0.030 A  
HETATM   30  N   UNL     1      -8.388   6.116  68.663  1.00  0.00    -0.114 NA 
HETATM   31  S   UNL     1      -6.883   5.052  70.451  1.00  0.00    -0.045 SA 
HETATM   32  N   UNL     1      -9.400   5.850  70.766  1.00  0.00    -0.159 NA 
HETATM   33  C   UNL     1      -8.361   5.741  69.920  1.00  0.00    -0.119 A  
ENDBRANCH  25  26
BRANCH  25  34
HETATM   34  N   UNL     1      -7.535   4.965  65.847  1.00  0.00    -0.081 NA 
HETATM   35  H   UNL     1      -6.985   4.141  65.604  1.00  0.00     0.000 HD 
BRANCH  34  36
HETATM   36  O   UNL     1      -8.863   5.046  65.416  1.00  0.00    -0.144 OA 
HETATM   37  C   UNL     1      -9.462   3.966  64.727  1.00  0.00    -0.169 C  
ENDBRANCH  34  36
ENDBRANCH  25  34
ENDBRANCH  22  25
ENDBRANCH   5  21
TORSDOF 7
ENDMDL
MODEL      222
REMARK 921   NORMALIZED FREE ENERGY PREDICTED BY IDOCK:   -2.36 KCAL/MOL
REMARK 922        TOTAL FREE ENERGY PREDICTED BY IDOCK:   -4.83 KCAL/MOL
REMARK 923 INTER-LIGAND FREE ENERGY PREDICTED BY IDOCK:   -5.06 KCAL/MOL
REMARK 924 INTRA-LIGAND FREE ENERGY PREDICTED BY IDOCK:    0.23 KCAL/MOL
REMARK 927      BINDING AFFINITY PREDICTED BY RF-SCORE:    0.00 PKD
ROOT
HETATM    1  C   UNL     1      -9.612  13.315  67.452  1.00  0.00    -0.223 C  
HETATM    2  S   UNL     1      -7.873  12.928  67.306  1.00  0.00    -0.086 SA 
HETATM    3  C   UNL     1      -8.139  11.181  67.059  1.00  0.00    -0.148 C  
HETATM    4  C   UNL     1      -9.217  10.520  67.908  1.00  0.00    -0.143 C  
HETATM    5  CA  UNL     1      -9.944  14.546  68.347  1.00  0.00    -0.241 C  
HETATM    6  CA  UNL     1     -10.204  11.168  68.581  1.00  0.00    -0.205 C  
HETATM    7  OXT UNL     1     -12.385  10.954  69.615  1.00  0.00    -0.328 OA 
HETATM    8  N   UNL     1     -10.261  12.537  68.501  1.00  0.00    -0.225 N  
HETATM    9  C   UNL     1     -11.259  10.503  69.450  1.00  0.00    -0.269 C  
HETATM   10  O   UNL     1     -12.107  13.694  69.439  1.00  0.00    -0.326 OA 
HETATM   11  C   UNL     1     -11.025  13.565  68.925  1.00  0.00    -0.252 C  
HETATM   12  O   UNL     1     -10.892   9.354  70.060  1.00  0.00    -0.223 OA 
ENDROOT
BRANCH   4  13
HETATM   13  C   UNL     1      -8.998   9.079  67.867  1.00  0.00    -0.135 C  
HETATM   14  C   UNL     1      -8.235   8.353  67.037  1.00  0.00    -0.107 C  
BRANCH  14  15
HETATM   15  C   UNL     1      -7.416   8.823  65.972  1.00  0.00    -0.089 A  
HETATM   16  C   UNL     1      -7.770   9.046  64.641  1.00  0.00    -0.115 A  
HETATM   17  N   UNL     1      -6.714   9.254  63.767  1.00  0.00    -0.090 NA 
HETATM   18  S   UNL     1      -5.710   9.068  66.122  1.00  0.00    -0.054 SA 
HETATM   19  C   UNL     1      -9.141   9.052  64.055  1.00  0.00     0.204 C  
HETATM   20  C   UNL     1      -5.585   9.268  64.432  1.00  0.00    -0.068 A  
ENDBRANCH  14  15
ENDBRANCH   4  13
BRANCH   5  21
HETATM   21  N   UNL     1      -8.825  15.099  69.175  1.00  0.00    -0.237 N  
HETATM   22  C   UNL     1      -7.983  16.188  69.026  1.00  0.00    -0.236 C  
HETATM   23  O   UNL     1      -7.308  16.531  69.999  1.00  0.00     0.387 OA 
HETATM   24  H   UNL     1      -8.647  14.562  70.024  1.00  0.00     0.000 HD 
BRANCH  22  25
HETATM   25  C   UNL     1      -7.701  16.882  67.708  1.00  0.00    -0.173 C  
BRANCH  25  26
HETATM   26  C   UNL     1      -8.807  17.452  66.896  1.00  0.00    -0.242 A  
HETATM   27  H2  UNL     1     -12.074  17.602  64.141  1.00  0.00     0.000 HD 
HETATM   28  H1  UNL     1     -11.106  16.138  63.957  1.00  0.00     0.000 HD 
HETATM   29  C   UNL     1      -9.377  18.692  67.159  1.00  0.00    -0.290 A  
HETATM   30  N   UNL     1      -9.399  16.800  65.811  1.00  0.00    -0.523 NA 
HETATM   31  S   UNL     1     -10.723  18.974  66.148  1.00  0.00    -0.226 SA 
HETATM   32  N   UNL     1     -11.274  17.034  64.415  1.00  0.00    -1.077 NA 
HETATM   33  C   UNL     1     -10.442  17.468  65.378  1.00  0.00     0.052 A  
ENDBRANCH  25  26
BRANCH  25  34
HETATM   34  N   UNL     1      -6.518  17.160  67.232  1.00  0.00    -0.144 NA 
HETATM   35  H   UNL     1      -6.108  18.072  67.432  1.00  0.00     0.000 HD 
BRANCH  34  36
HETATM   36  O   UNL     1      -5.796  16.245  66.458  1.00  0.00    -0.212 OA 
HETATM   37  C   UNL     1      -5.166  15.133  67.062  1.00  0.00     0.980 C  
ENDBRANCH  34  36
ENDBRANCH  25  34
ENDBRANCH  22  25
ENDBRANCH   5  21
TORSDOF 7
ENDMDL
MODEL      223
REMARK 921   NORMALIZED FREE ENERGY PREDICTED BY IDOCK:   -2.15 KCAL/MOL
REMARK 922        TOTAL FREE ENERGY PREDICTED BY IDOCK:   -4.54 KCAL/MOL
REMARK 923 INTER-LIGAND FREE ENERGY PREDICTED BY IDOCK:   -5.45 KCAL/MOL
REMARK 924 INTRA-LIGAND FREE ENERGY PREDICTED BY IDOCK:    0.91 KCAL/MOL
REMARK 927      BINDING AFFINITY PREDICTED BY RF-SCORE:    0.00 PKD
ROOT
HETATM    1  C   UNL     1      -8.610  14.177  68.737  1.00  0.00    -0.067 C  
HETATM    2  S   UNL     1      -9.077  13.424  67.184  1.00  0.00    -0.242 SA 
HETATM    3  C   UNL     1      -8.961  11.752  67.797  1.00  0.00    -0.173 C  
HETATM    4  C   UNL     1      -7.792  11.436  68.721  1.00  0.00    -0.128 C  
HETATM    5  CA  UNL     1      -7.884  15.549  68.615  1.00  0.00    -0.143 C  
HETATM    6  CA  UNL     1      -7.032  12.351  69.379  1.00  0.00     0.084 C  
HETATM    7  OXT UNL     1      -5.511  12.719  71.230  1.00  0.00    -0.287 OA 
HETATM    8  N   UNL     1      -7.326  13.683  69.220  1.00  0.00     0.050 N  
HETATM    9  C   UNL     1      -5.848  12.029  70.277  1.00  0.00    -0.164 C  
HETATM   10  O   UNL     1      -6.204  15.301  70.542  1.00  0.00    -0.088 OA 
HETATM   11  C   UNL     1      -6.920  14.889  69.665  1.00  0.00    -0.184 C  
HETATM   12  O   UNL     1      -5.153  10.912  69.968  1.00  0.00    -0.041 OA 
ENDROOT
BRANCH   4  13
HETATM   13  C   UNL     1      -7.639   9.988  68.769  1.00  0.00    -0.083 C  
HETATM   14  C   UNL     1      -8.416   9.063  69.351  1.00  0.00    -0.117 C  
BRANCH  14  15
HETATM   15  C   UNL     1      -9.626   9.272  70.072  1.00  0.00    -0.209 A  
HETATM   16  C   UNL     1      -9.944   8.856  71.365  1.00  0.00    -0.308 A  
HETATM   17  N   UNL     1     -11.280   8.968  71.719  1.00  0.00    -0.359 NA 
HETATM   18  S   UNL     1     -11.038   9.986  69.375  1.00  0.00    -0.198 SA 
HETATM   19  C   UNL     1      -9.023   8.278  72.386  1.00  0.00    -0.297 C  
HETATM   20  C   UNL     1     -11.949   9.532  70.744  1.00  0.00    -0.252 A  
ENDBRANCH  14  15
ENDBRANCH   4  13
BRANCH   5  21
HETATM   21  N   UNL     1      -7.434  15.956  67.245  1.00  0.00    -0.189 N  
HETATM   22  C   UNL     1      -8.039  16.663  66.220  1.00  0.00    -0.326 C  
HETATM   23  O   UNL     1      -7.329  17.048  65.290  1.00  0.00     0.788 OA 
HETATM   24  H   UNL     1      -6.488  15.648  67.022  1.00  0.00     0.000 HD 
BRANCH  22  25
HETATM   25  C   UNL     1      -9.537  16.848  66.071  1.00  0.00    -0.209 C  
BRANCH  25  26
HETATM   26  C   UNL     1     -10.353  15.864  65.316  1.00  0.00    -0.324 A  
HETATM   27  H2  UNL     1     -11.625  12.092  63.750  1.00  0.00     0.000 HD 
HETATM   28  H1  UNL     1      -9.954  12.056  64.319  1.00  0.00     0.000 HD 
HETATM   29  C   UNL     1     -11.641  16.132  64.867  1.00  0.00     0.048 A  
HETATM   30  N   UNL     1      -9.926  14.571  65.000  1.00  0.00    -0.275 NA 
HETATM   31  S   UNL     1     -12.355  14.741  64.183  1.00  0.00     0.015 SA 
HETATM   32  N   UNL     1     -10.819  12.570  64.152  1.00  0.00    -0.351 NA 
HETATM   33  C   UNL     1     -10.901  13.876  64.462  1.00  0.00    -0.368 A  
ENDBRANCH  25  26
BRANCH  25  34
HETATM   34  N   UNL     1     -10.253  17.762  66.667  1.00  0.00    -0.348 NA 
HETATM   35  H   UNL     1     -11.269  17.674  66.661  1.00  0.00     0.000 HD 
BRANCH  34  36
HETATM   36  O   UNL     1      -9.670  18.857  67.312  1.00  0.00    -0.300 OA 
HETATM   37  C   UNL     1      -9.705  18.963  68.721  1.00  0.00    -0.400 C  
ENDBRANCH  34  36
ENDBRANCH  25  34
ENDBRANCH  22  25
ENDBRANCH   5  21
TORSDOF 7
ENDMDL
MODEL      224
REMARK 921   NORMALIZED FREE ENERGY PREDICTED BY IDOCK:   -2.07 KCAL/MOL
REMARK 922        TOTAL FREE ENERGY PREDICTED BY IDOCK:   -4.43 KCAL/MOL
REMARK 923 INTER-LIGAND FREE ENERGY PREDICTED BY IDOCK:   -3.81 KCAL/MOL
REMARK 924 INTRA-LIGAND FREE ENERGY PREDICTED BY IDOCK:   -0.62 KCAL/MOL
REMARK 927      BINDING AFFINITY PREDICTED BY RF-SCORE:    0.00 PKD
ROOT
HETATM    1  C   UNL     1      -8.781   7.195  66.554  1.00  0.00    -0.134 C  
HETATM    2  S   UNL     1     -10.524   6.993  66.898  1.00  0.00    -0.263 SA 
HETATM    3  C   UNL     1     -10.622   8.417  67.969  1.00  0.00    -0.130 C  
HETATM    4  C   UNL     1      -9.458   8.641  68.927  1.00  0.00    -0.146 C  
HETATM    5  CA  UNL     1      -8.010   5.878  66.242  1.00  0.00    -0.102 C  
HETATM    6  CA  UNL     1      -8.228   8.073  68.825  1.00  0.00    -0.126 C  
HETATM    7  OXT UNL     1      -5.901   8.228  69.483  1.00  0.00    -0.029 OA 
HETATM    8  N   UNL     1      -7.982   7.225  67.773  1.00  0.00    -0.113 N  
HETATM    9  C   UNL     1      -7.081   8.279  69.802  1.00  0.00    -0.056 C  
HETATM   10  O   UNL     1      -5.784   6.416  67.404  1.00  0.00    -0.011 OA 
HETATM   11  C   UNL     1      -6.976   6.498  67.247  1.00  0.00    -0.075 C  
HETATM   12  O   UNL     1      -7.427   8.525  71.085  1.00  0.00    -0.074 OA 
ENDROOT
BRANCH   4  13
HETATM   13  C   UNL     1      -9.904   9.564  69.962  1.00  0.00    -0.269 C  
HETATM   14  C   UNL     1     -10.219  10.864  69.871  1.00  0.00     0.222 C  
BRANCH  14  15
HETATM   15  C   UNL     1     -10.212  11.683  68.706  1.00  0.00    -0.177 A  
HETATM   16  C   UNL     1      -9.159  11.922  67.823  1.00  0.00    -0.180 A  
HETATM   17  N   UNL     1      -9.353  12.961  66.926  1.00  0.00    -0.234 NA 
HETATM   18  S   UNL     1     -11.538  12.694  68.247  1.00  0.00    -0.350 SA 
HETATM   19  C   UNL     1      -7.848  11.214  67.761  1.00  0.00    -0.114 C  
HETATM   20  C   UNL     1     -10.561  13.449  67.070  1.00  0.00    -0.264 A  
ENDBRANCH  14  15
ENDBRANCH   4  13
BRANCH   5  21
HETATM   21  N   UNL     1      -8.733   4.594  66.513  1.00  0.00    -0.112 N  
HETATM   22  C   UNL     1      -9.014   3.889  67.671  1.00  0.00    -0.133 C  
HETATM   23  O   UNL     1      -9.838   2.976  67.604  1.00  0.00     0.010 OA 
HETATM   24  H   UNL     1      -9.092   4.146  65.669  1.00  0.00     0.000 HD 
BRANCH  22  25
HETATM   25  C   UNL     1      -8.256   4.044  68.976  1.00  0.00    -0.069 C  
BRANCH  25  26
HETATM   26  C   UNL     1      -8.980   4.115  70.271  1.00  0.00    -0.093 A  
HETATM   27  H2  UNL     1     -10.007   3.234  74.328  1.00  0.00     0.000 HD 
HETATM   28  H1  UNL     1      -9.016   1.969  73.594  1.00  0.00     0.000 HD 
HETATM   29  C   UNL     1      -9.803   5.179  70.621  1.00  0.00    -0.205 A  
HETATM   30  N   UNL     1      -8.893   3.144  71.271  1.00  0.00    -0.078 NA 
HETATM   31  S   UNL     1     -10.348   5.029  72.232  1.00  0.00    -0.211 SA 
HETATM   32  N   UNL     1      -9.512   2.858  73.520  1.00  0.00    -0.091 NA 
HETATM   33  C   UNL     1      -9.515   3.535  72.358  1.00  0.00    -0.125 A  
ENDBRANCH  25  26
BRANCH  25  34
HETATM   34  N   UNL     1      -6.960   3.996  69.113  1.00  0.00    -0.046 NA 
HETATM   35  H   UNL     1      -6.386   3.752  68.306  1.00  0.00     0.000 HD 
BRANCH  34  36
HETATM   36  O   UNL     1      -6.333   4.268  70.334  1.00  0.00    -0.025 OA 
HETATM   37  C   UNL     1      -5.318   3.416  70.825  1.00  0.00    -0.008 C  
ENDBRANCH  34  36
ENDBRANCH  25  34
ENDBRANCH  22  25
ENDBRANCH   5  21
TORSDOF 7
ENDMDL
MODEL      225
REMARK 921   NORMALIZED FREE ENERGY PREDICTED BY IDOCK:   -1.85 KCAL/MOL
REMARK 922        TOTAL FREE ENERGY PREDICTED BY IDOCK:   -4.12 KCAL/MOL
REMARK 923 INTER-LIGAND FREE ENERGY PREDICTED BY IDOCK:   -4.73 KCAL/MOL
REMARK 924 INTRA-LIGAND FREE ENERGY PREDICTED BY IDOCK:    0.61 KCAL/MOL
REMARK 927      BINDING AFFINITY PREDICTED BY RF-SCORE:    0.00 PKD
ROOT
HETATM    1  C   UNL     1      -9.465   8.735  64.954  1.00  0.00     0.523 C  
HETATM    2  S   UNL     1      -9.413   8.567  66.733  1.00  0.00    -0.213 SA 
HETATM    3  C   UNL     1     -10.769   9.691  67.020  1.00  0.00    -0.155 C  
HETATM    4  C   UNL     1     -10.817  10.948  66.161  1.00  0.00    -0.166 C  
HETATM    5  CA  UNL     1      -8.101   8.533  64.230  1.00  0.00    -0.155 C  
HETATM    6  CA  UNL     1     -10.140  11.139  64.998  1.00  0.00    -0.283 C  
HETATM    7  OXT UNL     1     -10.024  12.423  62.946  1.00  0.00    -0.084 OA 
HETATM    8  N   UNL     1      -9.340  10.125  64.531  1.00  0.00    -0.266 N  
HETATM    9  C   UNL     1     -10.170  12.407  64.161  1.00  0.00    -0.351 C  
HETATM   10  O   UNL     1      -8.344  10.305  62.387  1.00  0.00    -0.141 OA 
HETATM   11  C   UNL     1      -8.553   9.834  63.476  1.00  0.00    -0.201 C  
HETATM   12  O   UNL     1     -10.367  13.562  64.835  1.00  0.00    -0.366 OA 
ENDROOT
BRANCH   4  13
HETATM   13  C   UNL     1     -11.713  11.898  66.808  1.00  0.00    -0.281 C  
HETATM   14  C   UNL     1     -11.424  12.973  67.555  1.00  0.00    -0.375 C  
BRANCH  14  15
HETATM   15  C   UNL     1     -10.137  13.476  67.897  1.00  0.00    -0.248 A  
HETATM   16  C   UNL     1      -9.753  14.802  68.100  1.00  0.00    -0.217 A  
HETATM   17  N   UNL     1      -8.386  15.025  68.166  1.00  0.00    -0.138 NA 
HETATM   18  S   UNL     1      -8.720  12.487  67.977  1.00  0.00    -0.192 SA 
HETATM   19  C   UNL     1     -10.637  15.996  68.218  1.00  0.00    -0.283 C  
HETATM   20  C   UNL     1      -7.747  13.883  68.095  1.00  0.00    -0.142 A  
ENDBRANCH  14  15
ENDBRANCH   4  13
BRANCH   5  21
HETATM   21  N   UNL     1      -6.879   8.480  65.095  1.00  0.00    -0.067 N  
HETATM   22  C   UNL     1      -6.320   7.492  65.887  1.00  0.00    -0.042 C  
HETATM   23  O   UNL     1      -5.171   7.665  66.299  1.00  0.00    -0.024 OA 
HETATM   24  H   UNL     1      -6.350   9.353  65.102  1.00  0.00     0.000 HD 
BRANCH  22  25
HETATM   25  C   UNL     1      -7.076   6.294  66.427  1.00  0.00    -0.068 C  
BRANCH  25  26
HETATM   26  C   UNL     1      -7.580   5.237  65.512  1.00  0.00    -0.082 A  
HETATM   27  H2  UNL     1      -7.845   1.448  63.547  1.00  0.00     0.000 HD 
HETATM   28  H1  UNL     1      -6.273   1.702  64.308  1.00  0.00     0.000 HD 
HETATM   29  C   UNL     1      -8.842   5.276  64.932  1.00  0.00    -0.088 A  
HETATM   30  N   UNL     1      -6.855   4.095  65.161  1.00  0.00    -0.052 NA 
HETATM   31  S   UNL     1      -9.167   3.838  64.072  1.00  0.00    -0.143 SA 
HETATM   32  N   UNL     1      -7.206   2.041  64.075  1.00  0.00    -0.054 NA 
HETATM   33  C   UNL     1      -7.597   3.268  64.463  1.00  0.00    -0.076 A  
ENDBRANCH  25  26
BRANCH  25  34
HETATM   34  N   UNL     1      -7.240   6.003  67.688  1.00  0.00    -0.074 NA 
HETATM   35  H   UNL     1      -7.192   5.028  67.981  1.00  0.00     0.000 HD 
BRANCH  34  36
HETATM   36  O   UNL     1      -7.480   6.990  68.651  1.00  0.00    -0.097 OA 
HETATM   37  C   UNL     1      -8.282   6.710  69.781  1.00  0.00    -0.127 C  
ENDBRANCH  34  36
ENDBRANCH  25  34
ENDBRANCH  22  25
ENDBRANCH   5  21
TORSDOF 7
ENDMDL
MODEL      226
REMARK 921   NORMALIZED FREE ENERGY PREDICTED BY IDOCK:   -1.54 KCAL/MOL
REMARK 922        TOTAL FREE ENERGY PREDICTED BY IDOCK:   -3.69 KCAL/MOL
REMARK 923 INTER-LIGAND FREE ENERGY PREDICTED BY IDOCK:   -4.33 KCAL/MOL
REMARK 924 INTRA-LIGAND FREE ENERGY PREDICTED BY IDOCK:    0.64 KCAL/MOL
REMARK 927      BINDING AFFINITY PREDICTED BY RF-SCORE:    0.00 PKD
ROOT
HETATM    1  C   UNL     1      -7.241  14.376  68.263  1.00  0.00    -0.122 C  
HETATM    2  S   UNL     1      -7.098  14.116  70.026  1.00  0.00     0.365 SA 
HETATM    3  C   UNL     1      -5.958  12.751  69.875  1.00  0.00    -0.138 C  
HETATM    4  C   UNL     1      -6.227  11.749  68.760  1.00  0.00    -0.057 C  
HETATM    5  CA  UNL     1      -8.603  14.966  67.789  1.00  0.00    -0.167 C  
HETATM    6  CA  UNL     1      -7.031  11.957  67.684  1.00  0.00    -0.112 C  
HETATM    7  OXT UNL     1      -7.573  11.242  65.433  1.00  0.00     0.262 OA 
HETATM    8  N   UNL     1      -7.664  13.169  67.564  1.00  0.00    -0.160 N  
HETATM    9  C   UNL     1      -7.317  10.940  66.590  1.00  0.00    -0.139 C  
HETATM   10  O   UNL     1      -8.867  13.676  65.584  1.00  0.00     0.691 OA 
HETATM   11  C   UNL     1      -8.475  13.829  66.713  1.00  0.00     0.032 C  
HETATM   12  O   UNL     1      -7.281   9.640  66.960  1.00  0.00    -0.086 OA 
ENDROOT
BRANCH   4  13
HETATM   13  C   UNL     1      -5.471  10.538  69.056  1.00  0.00    -0.041 C  
HETATM   14  C   UNL     1      -5.772   9.521  69.876  1.00  0.00    -0.036 C  
BRANCH  14  15
HETATM   15  C   UNL     1      -6.944   9.359  70.669  1.00  0.00    -0.115 A  
HETATM   16  C   UNL     1      -7.046   8.860  71.968  1.00  0.00     0.076 A  
HETATM   17  N   UNL     1      -8.332   8.571  72.398  1.00  0.00    -0.333 NA 
HETATM   18  S   UNL     1      -8.543   9.628  70.068  1.00  0.00    -0.213 SA 
HETATM   19  C   UNL     1      -5.936   8.574  72.921  1.00  0.00    -0.079 C  
HETATM   20  C   UNL     1      -9.196   8.918  71.475  1.00  0.00    -0.252 A  
ENDBRANCH  14  15
ENDBRANCH   4  13
BRANCH   5  21
HETATM   21  N   UNL     1      -9.709  15.006  68.798  1.00  0.00    -0.220 N  
HETATM   22  C   UNL     1     -10.700  14.107  69.154  1.00  0.00    -0.194 C  
HETATM   23  O   UNL     1     -11.327  14.324  70.193  1.00  0.00    -0.225 OA 
HETATM   24  H   UNL     1      -9.737  15.874  69.334  1.00  0.00     0.000 HD 
BRANCH  22  25
HETATM   25  C   UNL     1     -11.190  12.974  68.274  1.00  0.00    -0.275 C  
BRANCH  25  26
HETATM   26  C   UNL     1     -11.757  13.248  66.928  1.00  0.00    -0.388 A  
HETATM   27  H2  UNL     1     -12.888  15.452  63.442  1.00  0.00     0.000 HD 
HETATM   28  H1  UNL     1     -12.568  16.500  64.827  1.00  0.00     0.000 HD 
HETATM   29  C   UNL     1     -12.028  12.247  66.003  1.00  0.00    -0.269 A  
HETATM   30  N   UNL     1     -12.052  14.526  66.448  1.00  0.00    -0.352 NA 
HETATM   31  S   UNL     1     -12.515  12.910  64.507  1.00  0.00    -0.373 SA 
HETATM   32  N   UNL     1     -12.637  15.566  64.424  1.00  0.00    -0.255 NA 
HETATM   33  C   UNL     1     -12.399  14.482  65.183  1.00  0.00    -0.323 A  
ENDBRANCH  25  26
BRANCH  25  34
HETATM   34  N   UNL     1     -11.052  11.702  68.525  1.00  0.00    -0.216 NA 
HETATM   35  H   UNL     1     -10.492  11.414  69.327  1.00  0.00     0.000 HD 
BRANCH  34  36
HETATM   36  O   UNL     1     -11.648  10.719  67.726  1.00  0.00    -0.521 OA 
HETATM   37  C   UNL     1     -10.854   9.772  67.041  1.00  0.00    -0.094 C  
ENDBRANCH  34  36
ENDBRANCH  25  34
ENDBRANCH  22  25
ENDBRANCH   5  21
TORSDOF 7
ENDMDL
MODEL      227
REMARK 921   NORMALIZED FREE ENERGY PREDICTED BY IDOCK:   -1.52 KCAL/MOL
REMARK 922        TOTAL FREE ENERGY PREDICTED BY IDOCK:   -3.66 KCAL/MOL
REMARK 923 INTER-LIGAND FREE ENERGY PREDICTED BY IDOCK:   -2.75 KCAL/MOL
REMARK 924 INTRA-LIGAND FREE ENERGY PREDICTED BY IDOCK:   -0.90 KCAL/MOL
REMARK 927      BINDING AFFINITY PREDICTED BY RF-SCORE:    0.00 PKD
ROOT
HETATM    1  C   UNL     1      -7.504   3.227  68.755  1.00  0.00    -0.049 C  
HETATM    2  S   UNL     1      -5.915   3.495  69.529  1.00  0.00    -0.024 SA 
HETATM    3  C   UNL     1      -6.549   3.392  71.194  1.00  0.00    -0.030 C  
HETATM    4  C   UNL     1      -7.890   4.062  71.463  1.00  0.00    -0.065 C  
HETATM    5  CA  UNL     1      -7.680   3.890  67.357  1.00  0.00    -0.079 C  
HETATM    6  CA  UNL     1      -8.793   4.436  70.519  1.00  0.00    -0.091 C  
HETATM    7  OXT UNL     1     -11.109   5.005  70.090  1.00  0.00     0.294 OA 
HETATM    8  N   UNL     1      -8.499   4.195  69.200  1.00  0.00    -0.076 N  
HETATM    9  C   UNL     1     -10.117   5.131  70.794  1.00  0.00    -0.233 C  
HETATM   10  O   UNL     1     -10.144   4.589  67.537  1.00  0.00    -0.134 OA 
HETATM   11  C   UNL     1      -9.053   4.332  67.977  1.00  0.00    -0.131 C  
HETATM   12  O   UNL     1     -10.156   5.928  71.885  1.00  0.00    -0.179 OA 
ENDROOT
BRANCH   4  13
HETATM   13  C   UNL     1      -8.025   4.228  72.905  1.00  0.00    -0.086 C  
HETATM   14  C   UNL     1      -7.850   5.321  73.660  1.00  0.00    -0.103 C  
BRANCH  14  15
HETATM   15  C   UNL     1      -7.495   6.631  73.229  1.00  0.00    -0.084 A  
HETATM   16  C   UNL     1      -6.289   7.062  72.676  1.00  0.00    -0.053 A  
HETATM   17  N   UNL     1      -6.127   8.436  72.590  1.00  0.00    -0.068 NA 
HETATM   18  S   UNL     1      -8.502   8.016  73.468  1.00  0.00    -0.253 SA 
HETATM   19  C   UNL     1      -5.153   6.219  72.205  1.00  0.00    -0.026 C  
HETATM   20  C   UNL     1      -7.220   9.036  72.994  1.00  0.00     0.506 A  
ENDBRANCH  14  15
ENDBRANCH   4  13
BRANCH   5  21
HETATM   21  N   UNL     1      -6.627   4.869  66.937  1.00  0.00    -0.049 N  
HETATM   22  C   UNL     1      -6.678   6.139  66.389  1.00  0.00    -0.060 C  
HETATM   23  O   UNL     1      -5.637   6.800  66.370  1.00  0.00    -0.017 OA 
HETATM   24  H   UNL     1      -5.676   4.530  67.086  1.00  0.00     0.000 HD 
BRANCH  22  25
HETATM   25  C   UNL     1      -7.875   6.711  65.654  1.00  0.00    -0.105 C  
BRANCH  25  26
HETATM   26  C   UNL     1      -8.458   8.018  66.053  1.00  0.00    -0.136 A  
HETATM   27  H2  UNL     1      -9.899  12.028  65.685  1.00  0.00     0.000 HD 
HETATM   28  H1  UNL     1      -8.876  11.553  64.327  1.00  0.00     0.000 HD 
HETATM   29  C   UNL     1      -9.162   8.204  67.236  1.00  0.00    -0.138 A  
HETATM   30  N   UNL     1      -8.380   9.178  65.278  1.00  0.00    -0.137 NA 
HETATM   31  S   UNL     1      -9.833   9.772  67.311  1.00  0.00    -0.191 SA 
HETATM   32  N   UNL     1      -9.310  11.335  65.224  1.00  0.00    -0.219 NA 
HETATM   33  C   UNL     1      -9.105  10.139  65.802  1.00  0.00    -0.171 A  
ENDBRANCH  25  26
BRANCH  25  34
HETATM   34  N   UNL     1      -8.409   6.218  64.571  1.00  0.00    -0.314 NA 
HETATM   35  H   UNL     1      -8.808   6.855  63.883  1.00  0.00     0.000 HD 
BRANCH  34  36
HETATM   36  O   UNL     1      -8.451   4.841  64.326  1.00  0.00    -0.123 OA 
HETATM   37  C   UNL     1      -8.937   4.346  63.095  1.00  0.00    -0.128 C  
ENDBRANCH  34  36
ENDBRANCH  25  34
ENDBRANCH  22  25
ENDBRANCH   5  21
TORSDOF 7
ENDMDL
MODEL      228
REMARK 921   NORMALIZED FREE ENERGY PREDICTED BY IDOCK:   -1.49 KCAL/MOL
REMARK 922        TOTAL FREE ENERGY PREDICTED BY IDOCK:   -3.61 KCAL/MOL
REMARK 923 INTER-LIGAND FREE ENERGY PREDICTED BY IDOCK:   -2.35 KCAL/MOL
REMARK 924 INTRA-LIGAND FREE ENERGY PREDICTED BY IDOCK:   -1.26 KCAL/MOL
REMARK 927      BINDING AFFINITY PREDICTED BY RF-SCORE:    0.00 PKD
ROOT
HETATM    1  C   UNL     1      -5.281  16.483  68.629  1.00  0.00    -0.120 C  
HETATM    2  S   UNL     1      -5.811  16.111  70.295  1.00  0.00    -0.057 SA 
HETATM    3  C   UNL     1      -6.634  14.593  69.846  1.00  0.00    -0.167 C  
HETATM    4  C   UNL     1      -7.430  14.598  68.548  1.00  0.00    -0.120 C  
HETATM    5  CA  UNL     1      -5.126  17.999  68.306  1.00  0.00    -0.156 C  
HETATM    6  CA  UNL     1      -7.313  15.513  67.550  1.00  0.00    -0.189 C  
HETATM    7  OXT UNL     1      -7.722  15.970  65.205  1.00  0.00     2.386 OA 
HETATM    8  N   UNL     1      -6.401  16.528  67.696  1.00  0.00    -0.136 N  
HETATM    9  C   UNL     1      -8.134  15.529  66.270  1.00  0.00     0.293 C  
HETATM   10  O   UNL     1      -5.973  17.996  65.882  1.00  0.00    -0.184 OA 
HETATM   11  C   UNL     1      -5.914  17.585  67.013  1.00  0.00    -0.146 C  
HETATM   12  O   UNL     1      -9.384  15.022  66.356  1.00  0.00    -0.267 OA 
ENDROOT
BRANCH   4  13
HETATM   13  C   UNL     1      -8.333  13.454  68.573  1.00  0.00    -0.085 C  
HETATM   14  C   UNL     1      -9.633  13.397  68.895  1.00  0.00     0.155 C  
BRANCH  14  15
HETATM   15  C   UNL     1     -10.481  14.471  69.288  1.00  0.00    -0.173 A  
HETATM   16  C   UNL     1     -11.627  14.946  68.649  1.00  0.00    -0.318 A  
HETATM   17  N   UNL     1     -12.106  16.164  69.107  1.00  0.00    -0.116 NA 
HETATM   18  S   UNL     1     -10.130  15.523  70.615  1.00  0.00     0.718 SA 
HETATM   19  C   UNL     1     -12.365  14.313  67.519  1.00  0.00    -0.084 C  
HETATM   20  C   UNL     1     -11.387  16.568  70.126  1.00  0.00    -0.055 A  
ENDBRANCH  14  15
ENDBRANCH   4  13
BRANCH   5  21
HETATM   21  N   UNL     1      -5.672  18.963  69.315  1.00  0.00    -0.211 N  
HETATM   22  C   UNL     1      -6.719  19.868  69.291  1.00  0.00    -0.326 C  
HETATM   23  O   UNL     1      -7.079  20.359  70.363  1.00  0.00    -0.040 OA 
HETATM   24  H   UNL     1      -5.168  18.949  70.202  1.00  0.00     0.000 HD 
BRANCH  22  25
HETATM   25  C   UNL     1      -7.339  20.432  68.027  1.00  0.00    -0.216 C  
BRANCH  25  26
HETATM   26  C   UNL     1      -8.705  20.028  67.606  1.00  0.00    -0.326 A  
HETATM   27  H2  UNL     1     -11.805  18.340  65.190  1.00  0.00     0.000 HD 
HETATM   28  H1  UNL     1     -10.320  18.625  64.278  1.00  0.00     0.000 HD 
HETATM   29  C   UNL     1      -9.779  19.959  68.484  1.00  0.00    -0.318 A  
HETATM   30  N   UNL     1      -9.044  19.658  66.302  1.00  0.00    -0.375 NA 
HETATM   31  S   UNL     1     -11.158  19.308  67.717  1.00  0.00     0.254 SA 
HETATM   32  N   UNL     1     -10.845  18.683  65.151  1.00  0.00    -0.424 NA 
HETATM   33  C   UNL     1     -10.276  19.210  66.249  1.00  0.00    -0.452 A  
ENDBRANCH  25  26
BRANCH  25  34
HETATM   34  N   UNL     1      -6.831  21.379  67.288  1.00  0.00    -0.727 NA 
HETATM   35  H   UNL     1      -7.333  22.263  67.203  1.00  0.00     0.000 HD 
BRANCH  34  36
HETATM   36  O   UNL     1      -5.619  21.220  66.608  1.00  0.00    -0.224 OA 
HETATM   37  C   UNL     1      -5.570  21.305  65.198  1.00  0.00    -0.144 C  
ENDBRANCH  34  36
ENDBRANCH  25  34
ENDBRANCH  22  25
ENDBRANCH   5  21
TORSDOF 7
ENDMDL
MODEL      229
REMARK 921   NORMALIZED FREE ENERGY PREDICTED BY IDOCK:   -1.26 KCAL/MOL
REMARK 922        TOTAL FREE ENERGY PREDICTED BY IDOCK:   -3.29 KCAL/MOL
REMARK 923 INTER-LIGAND FREE ENERGY PREDICTED BY IDOCK:   -2.54 KCAL/MOL
REMARK 924 INTRA-LIGAND FREE ENERGY PREDICTED BY IDOCK:   -0.74 KCAL/MOL
REMARK 927      BINDING AFFINITY PREDICTED BY RF-SCORE:    0.00 PKD
ROOT
HETATM    1  C   UNL     1      -6.855   3.646  69.292  1.00  0.00    -0.045 C  
HETATM    2  S   UNL     1      -5.725   4.894  69.894  1.00  0.00    -0.017 SA 
HETATM    3  C   UNL     1      -5.782   4.330  71.587  1.00  0.00    -0.012 C  
HETATM    4  C   UNL     1      -7.141   3.903  72.126  1.00  0.00    -0.050 C  
HETATM    5  CA  UNL     1      -7.701   4.062  68.052  1.00  0.00    -0.067 C  
HETATM    6  CA  UNL     1      -8.231   3.598  71.374  1.00  0.00    -0.068 C  
HETATM    7  OXT UNL     1     -10.370   2.459  71.335  1.00  0.00     0.151 OA 
HETATM    8  N   UNL     1      -8.125   3.666  70.008  1.00  0.00    -0.049 N  
HETATM    9  C   UNL     1      -9.593   3.201  71.922  1.00  0.00    -0.152 C  
HETATM   10  O   UNL     1      -9.910   2.897  68.649  1.00  0.00     0.033 OA 
HETATM   11  C   UNL     1      -8.862   3.434  68.902  1.00  0.00    -0.112 C  
HETATM   12  O   UNL     1      -9.928   3.721  73.123  1.00  0.00    -0.123 OA 
ENDROOT
BRANCH   4  13
HETATM   13  C   UNL     1      -7.058   3.883  73.581  1.00  0.00    -0.059 C  
HETATM   14  C   UNL     1      -7.284   4.866  74.464  1.00  0.00    -0.077 C  
BRANCH  14  15
HETATM   15  C   UNL     1      -7.689   6.204  74.194  1.00  0.00    -0.096 A  
HETATM   16  C   UNL     1      -6.910   7.266  73.733  1.00  0.00    -0.079 A  
HETATM   17  N   UNL     1      -7.502   8.518  73.807  1.00  0.00    -0.357 NA 
HETATM   18  S   UNL     1      -9.268   6.811  74.554  1.00  0.00    -0.195 SA 
HETATM   19  C   UNL     1      -5.516   7.210  73.208  1.00  0.00    -0.045 C  
HETATM   20  C   UNL     1      -8.734   8.400  74.240  1.00  0.00     0.361 A  
ENDBRANCH  14  15
ENDBRANCH   4  13
BRANCH   5  21
HETATM   21  N   UNL     1      -7.669   5.509  67.668  1.00  0.00    -0.092 N  
HETATM   22  C   UNL     1      -8.579   6.545  67.797  1.00  0.00    -0.117 C  
HETATM   23  O   UNL     1      -8.176   7.693  67.600  1.00  0.00    -0.119 OA 
HETATM   24  H   UNL     1      -6.797   5.790  67.219  1.00  0.00     0.000 HD 
BRANCH  22  25
HETATM   25  C   UNL     1     -10.071   6.359  67.993  1.00  0.00    -0.148 C  
BRANCH  25  26
HETATM   26  C   UNL     1     -10.746   6.863  69.217  1.00  0.00    -0.238 A  
HETATM   27  H2  UNL     1     -11.350   9.097  72.813  1.00  0.00     0.000 HD 
HETATM   28  H1  UNL     1      -9.649   9.020  72.347  1.00  0.00     0.000 HD 
HETATM   29  C   UNL     1     -12.112   6.735  69.435  1.00  0.00     0.723 A  
HETATM   30  N   UNL     1     -10.089   7.530  70.254  1.00  0.00    -0.193 NA 
HETATM   31  S   UNL     1     -12.586   7.560  70.852  1.00  0.00    -0.023 SA 
HETATM   32  N   UNL     1     -10.623   8.764  72.181  1.00  0.00    -0.343 NA 
HETATM   33  C   UNL     1     -10.950   7.990  71.132  1.00  0.00    -0.243 A  
ENDBRANCH  25  26
BRANCH  25  34
HETATM   34  N   UNL     1     -10.902   5.887  67.105  1.00  0.00    -0.433 NA 
HETATM   35  H   UNL     1     -11.717   6.442  66.846  1.00  0.00     0.000 HD 
BRANCH  34  36
HETATM   36  O   UNL     1     -10.708   4.642  66.496  1.00  0.00    -0.152 OA 
HETATM   37  C   UNL     1     -10.511   4.548  65.100  1.00  0.00    -0.109 C  
ENDBRANCH  34  36
ENDBRANCH  25  34
ENDBRANCH  22  25
ENDBRANCH   5  21
TORSDOF 7
ENDMDL
MODEL      230
REMARK 921   NORMALIZED FREE ENERGY PREDICTED BY IDOCK:   -1.24 KCAL/MOL
REMARK 922        TOTAL FREE ENERGY PREDICTED BY IDOCK:   -3.25 KCAL/MOL
REMARK 923 INTER-LIGAND FREE ENERGY PREDICTED BY IDOCK:   -2.14 KCAL/MOL
REMARK 924 INTRA-LIGAND FREE ENERGY PREDICTED BY IDOCK:   -1.11 KCAL/MOL
REMARK 927      BINDING AFFINITY PREDICTED BY RF-SCORE:    0.00 PKD
ROOT
HETATM    1  C   UNL     1     -10.004  14.676  67.240  1.00  0.00    -0.235 C  
HETATM    2  S   UNL     1      -9.021  14.795  65.752  1.00  0.00     0.780 SA 
HETATM    3  C   UNL     1     -10.092  13.741  64.790  1.00  0.00    -0.228 C  
HETATM    4  C   UNL     1     -10.658  12.511  65.489  1.00  0.00    -0.304 C  
HETATM    5  CA  UNL     1      -9.210  14.820  68.572  1.00  0.00    -0.194 C  
HETATM    6  CA  UNL     1     -10.700  12.313  66.833  1.00  0.00    -0.232 C  
HETATM    7  OXT UNL     1     -11.751  11.077  68.633  1.00  0.00    -0.316 OA 
HETATM    8  N   UNL     1     -10.202  13.292  67.656  1.00  0.00    -0.225 N  
HETATM    9  C   UNL     1     -11.240  11.070  67.521  1.00  0.00    -0.302 C  
HETATM   10  O   UNL     1     -10.486  13.113  70.003  1.00  0.00     0.920 OA 
HETATM   11  C   UNL     1     -10.066  13.566  68.969  1.00  0.00     0.093 C  
HETATM   12  O   UNL     1     -11.125   9.911  66.835  1.00  0.00    -0.071 OA 
ENDROOT
BRANCH   4  13
HETATM   13  C   UNL     1     -11.139  11.596  64.462  1.00  0.00    -0.365 C  
HETATM   14  C   UNL     1     -10.451  10.766  63.665  1.00  0.00    -0.181 C  
BRANCH  14  15
HETATM   15  C   UNL     1      -9.043  10.556  63.633  1.00  0.00    -0.239 A  
HETATM   16  C   UNL     1      -8.263   9.794  64.503  1.00  0.00    -0.156 A  
HETATM   17  N   UNL     1      -6.893   9.976  64.394  1.00  0.00    -0.126 NA 
HETATM   18  S   UNL     1      -7.984  11.378  62.541  1.00  0.00     0.459 SA 
HETATM   19  C   UNL     1      -8.735   8.842  65.549  1.00  0.00    -0.217 C  
HETATM   20  C   UNL     1      -6.633  10.799  63.408  1.00  0.00     0.257 A  
ENDBRANCH  14  15
ENDBRANCH   4  13
BRANCH   5  21
HETATM   21  N   UNL     1      -7.715  14.784  68.474  1.00  0.00    -0.113 N  
HETATM   22  C   UNL     1      -6.728  15.730  68.687  1.00  0.00    -0.117 C  
HETATM   23  O   UNL     1      -5.561  15.339  68.757  1.00  0.00    -0.087 OA 
HETATM   24  H   UNL     1      -7.350  13.874  68.191  1.00  0.00     0.000 HD 
BRANCH  22  25
HETATM   25  C   UNL     1      -6.955  17.229  68.666  1.00  0.00    -0.220 C  
BRANCH  25  26
HETATM   26  C   UNL     1      -6.766  18.010  67.416  1.00  0.00    -0.181 A  
HETATM   27  H2  UNL     1      -5.346  19.014  63.509  1.00  0.00     0.000 HD 
HETATM   28  H1  UNL     1      -4.375  17.753  64.275  1.00  0.00     0.000 HD 
HETATM   29  C   UNL     1      -7.609  19.048  67.037  1.00  0.00    -0.228 A  
HETATM   30  N   UNL     1      -5.748  17.770  66.490  1.00  0.00    -0.162 NA 
HETATM   31  S   UNL     1      -7.212  19.623  65.480  1.00  0.00    -0.129 SA 
HETATM   32  N   UNL     1      -5.149  18.417  64.312  1.00  0.00    -0.067 NA 
HETATM   33  C   UNL     1      -5.911  18.507  65.416  1.00  0.00    -0.231 A  
ENDBRANCH  25  26
BRANCH  25  34
HETATM   34  N   UNL     1      -7.444  17.938  69.646  1.00  0.00     0.326 NA 
HETATM   35  H   UNL     1      -8.428  17.832  69.890  1.00  0.00     0.000 HD 
BRANCH  34  36
HETATM   36  O   UNL     1      -6.658  18.838  70.374  1.00  0.00     0.193 OA 
HETATM   37  C   UNL     1      -5.258  18.661  70.462  1.00  0.00    -0.240 C  
ENDBRANCH  34  36
ENDBRANCH  25  34
ENDBRANCH  22  25
ENDBRANCH   5  21
TORSDOF 7
ENDMDL
MODEL      231
REMARK 921   NORMALIZED FREE ENERGY PREDICTED BY IDOCK:   -0.91 KCAL/MOL
REMARK 922        TOTAL FREE ENERGY PREDICTED BY IDOCK:   -2.80 KCAL/MOL
REMARK 923 INTER-LIGAND FREE ENERGY PREDICTED BY IDOCK:   -3.81 KCAL/MOL
REMARK 924 INTRA-LIGAND FREE ENERGY PREDICTED BY IDOCK:    1.02 KCAL/MOL
REMARK 927      BINDING AFFINITY PREDICTED BY RF-SCORE:    0.00 PKD
ROOT
HETATM    1  C   UNL     1      -9.819  15.031  67.808  1.00  0.00    -0.220 C  
HETATM    2  S   UNL     1      -8.725  15.045  66.393  1.00  0.00    -0.018 SA 
HETATM    3  C   UNL     1      -9.942  14.385  65.268  1.00  0.00    -0.280 C  
HETATM    4  C   UNL     1     -10.838  13.272  65.797  1.00  0.00    -0.286 C  
HETATM    5  CA  UNL     1      -9.117  14.848  69.186  1.00  0.00    -0.140 C  
HETATM    6  CA  UNL     1     -11.029  12.963  67.106  1.00  0.00    -0.262 C  
HETATM    7  OXT UNL     1     -12.480  11.860  68.703  1.00  0.00    -0.153 OA 
HETATM    8  N   UNL     1     -10.375  13.707  68.057  1.00  0.00    -0.244 N  
HETATM    9  C   UNL     1     -11.903  11.832  67.624  1.00  0.00    -0.171 C  
HETATM   10  O   UNL     1     -10.871  13.380  70.353  1.00  0.00     0.798 OA 
HETATM   11  C   UNL     1     -10.277  13.812  69.398  1.00  0.00     0.322 C  
HETATM   12  O   UNL     1     -12.018  10.751  66.821  1.00  0.00     0.376 OA 
ENDROOT
BRANCH   4  13
HETATM   13  C   UNL     1     -11.446  12.606  64.651  1.00  0.00    -0.376 C  
HETATM   14  C   UNL     1     -11.078  11.481  64.022  1.00  0.00    -0.441 C  
BRANCH  14  15
HETATM   15  C   UNL     1      -9.983  10.626  64.335  1.00  0.00    -0.350 A  
HETATM   16  C   UNL     1      -8.845  10.365  63.571  1.00  0.00    -0.212 A  
HETATM   17  N   UNL     1      -8.070   9.297  63.998  1.00  0.00    -0.141 NA 
HETATM   18  S   UNL     1      -9.948   9.594  65.722  1.00  0.00    -0.197 SA 
HETATM   19  C   UNL     1      -8.392  11.077  62.342  1.00  0.00    -0.286 C  
HETATM   20  C   UNL     1      -8.565   8.807  65.108  1.00  0.00    -0.182 A  
ENDBRANCH  14  15
ENDBRANCH   4  13
BRANCH   5  21
HETATM   21  N   UNL     1      -7.672  14.453  69.160  1.00  0.00    -0.275 N  
HETATM   22  C   UNL     1      -6.983  13.418  68.551  1.00  0.00    -0.102 C  
HETATM   23  O   UNL     1      -5.753  13.487  68.517  1.00  0.00    -0.077 OA 
HETATM   24  H   UNL     1      -7.072  15.075  69.702  1.00  0.00     0.000 HD 
BRANCH  22  25
HETATM   25  C   UNL     1      -7.617  12.124  68.080  1.00  0.00    -0.123 C  
BRANCH  25  26
HETATM   26  C   UNL     1      -8.028  11.079  69.053  1.00  0.00    -0.114 A  
HETATM   27  H2  UNL     1     -10.513   8.210  71.024  1.00  0.00     0.000 HD 
HETATM   28  H1  UNL     1     -11.444   9.350  70.048  1.00  0.00     0.000 HD 
HETATM   29  C   UNL     1      -7.118  10.347  69.807  1.00  0.00    -0.148 A  
HETATM   30  N   UNL     1      -9.354  10.712  69.294  1.00  0.00    -0.162 NA 
HETATM   31  S   UNL     1      -7.906   9.124  70.700  1.00  0.00    -0.153 SA 
HETATM   32  N   UNL     1     -10.548   9.025  70.412  1.00  0.00    -0.207 NA 
HETATM   33  C   UNL     1      -9.413   9.669  70.088  1.00  0.00    -0.253 A  
ENDBRANCH  25  26
BRANCH  25  34
HETATM   34  N   UNL     1      -7.977  11.855  66.855  1.00  0.00    -0.246 NA 
HETATM   35  H   UNL     1      -8.968  11.742  66.645  1.00  0.00     0.000 HD 
BRANCH  34  36
HETATM   36  O   UNL     1      -7.044  11.718  65.821  1.00  0.00     0.634 OA 
HETATM   37  C   UNL     1      -5.819  11.049  66.044  1.00  0.00    -0.125 C  
ENDBRANCH  34  36
ENDBRANCH  25  34
ENDBRANCH  22  25
ENDBRANCH   5  21
TORSDOF 7
ENDMDL
MODEL      232
REMARK 921   NORMALIZED FREE ENERGY PREDICTED BY IDOCK:   -0.20 KCAL/MOL
REMARK 922        TOTAL FREE ENERGY PREDICTED BY IDOCK:   -1.79 KCAL/MOL
REMARK 923 INTER-LIGAND FREE ENERGY PREDICTED BY IDOCK:   -2.58 KCAL/MOL
REMARK 924 INTRA-LIGAND FREE ENERGY PREDICTED BY IDOCK:    0.78 KCAL/MOL
REMARK 927      BINDING AFFINITY PREDICTED BY RF-SCORE:    0.00 PKD
ROOT
HETATM    1  C   UNL     1     -10.039  13.966  66.959  1.00  0.00    -0.256 C  
HETATM    2  S   UNL     1      -9.046  13.440  65.568  1.00  0.00     1.028 SA 
HETATM    3  C   UNL     1      -9.843  11.851  65.418  1.00  0.00    -0.233 C  
HETATM    4  C   UNL     1     -10.172  11.119  66.714  1.00  0.00    -0.272 C  
HETATM    5  CA  UNL     1      -9.341  14.961  67.932  1.00  0.00    -0.191 C  
HETATM    6  CA  UNL     1     -10.223  11.681  67.950  1.00  0.00    -0.189 C  
HETATM    7  OXT UNL     1     -11.066  11.453  70.210  1.00  0.00    -0.048 OA 
HETATM    8  N   UNL     1      -9.966  13.025  68.070  1.00  0.00    -0.227 N  
HETATM    9  C   UNL     1     -10.522  10.938  69.242  1.00  0.00    -0.202 C  
HETATM   10  O   UNL     1     -10.295  14.103  70.156  1.00  0.00     0.495 OA 
HETATM   11  C   UNL     1      -9.938  13.990  69.011  1.00  0.00    -0.017 C  
HETATM   12  O   UNL     1     -10.148   9.640  69.284  1.00  0.00    -0.175 OA 
ENDROOT
BRANCH   4  13
HETATM   13  C   UNL     1     -10.417   9.720  66.387  1.00  0.00    -0.190 C  
HETATM   14  C   UNL     1      -9.565   8.685  66.362  1.00  0.00    -0.316 C  
BRANCH  14  15
HETATM   15  C   UNL     1      -8.176   8.693  66.673  1.00  0.00    -0.107 A  
HETATM   16  C   UNL     1      -7.122   9.200  65.913  1.00  0.00    -0.089 A  
HETATM   17  N   UNL     1      -5.852   8.841  66.336  1.00  0.00    -0.050 NA 
HETATM   18  S   UNL     1      -7.507   7.896  68.055  1.00  0.00    -0.110 SA 
HETATM   19  C   UNL     1      -7.211  10.047  64.689  1.00  0.00    -0.140 C  
HETATM   20  C   UNL     1      -5.934   8.142  67.441  1.00  0.00    -0.050 A  
ENDBRANCH  14  15
ENDBRANCH   4  13
BRANCH   5  21
HETATM   21  N   UNL     1      -7.868  15.163  67.749  1.00  0.00    -0.135 N  
HETATM   22  C   UNL     1      -7.028  16.246  67.944  1.00  0.00    -0.138 C  
HETATM   23  O   UNL     1      -5.813  16.041  67.934  1.00  0.00    -0.114 OA 
HETATM   24  H   UNL     1      -7.385  14.331  67.410  1.00  0.00     0.000 HD 
BRANCH  22  25
HETATM   25  C   UNL     1      -7.487  17.691  67.997  1.00  0.00    -0.223 C  
BRANCH  25  26
HETATM   26  C   UNL     1      -8.611  18.163  67.150  1.00  0.00    -0.247 A  
HETATM   27  H2  UNL     1     -10.751  20.548  64.316  1.00  0.00     0.000 HD 
HETATM   28  H1  UNL     1      -9.304  21.358  64.922  1.00  0.00     0.000 HD 
HETATM   29  C   UNL     1      -9.726  17.384  66.867  1.00  0.00    -0.286 A  
HETATM   30  N   UNL     1      -8.655  19.418  66.535  1.00  0.00    -0.328 NA 
HETATM   31  S   UNL     1     -10.747  18.158  65.739  1.00  0.00     0.142 SA 
HETATM   32  N   UNL     1      -9.933  20.556  64.926  1.00  0.00     0.770 NA 
HETATM   33  C   UNL     1      -9.689  19.508  65.732  1.00  0.00    -0.036 A  
ENDBRANCH  25  26
BRANCH  25  34
HETATM   34  N   UNL     1      -7.063  18.593  68.840  1.00  0.00    -0.293 NA 
HETATM   35  H   UNL     1      -7.240  19.577  68.640  1.00  0.00     0.000 HD 
BRANCH  34  36
HETATM   36  O   UNL     1      -6.374  18.250  70.008  1.00  0.00    -0.128 OA 
HETATM   37  C   UNL     1      -5.515  19.182  70.634  1.00  0.00    -0.223 C  
ENDBRANCH  34  36
ENDBRANCH  25  34
ENDBRANCH  22  25
ENDBRANCH   5  21
TORSDOF 7
ENDMDL
MODEL      233
REMARK 921   NORMALIZED FREE ENERGY PREDICTED BY IDOCK:    1.96 KCAL/MOL
REMARK 922        TOTAL FREE ENERGY PREDICTED BY IDOCK:    1.24 KCAL/MOL
REMARK 923 INTER-LIGAND FREE ENERGY PREDICTED BY IDOCK:    1.17 KCAL/MOL
REMARK 924 INTRA-LIGAND FREE ENERGY PREDICTED BY IDOCK:    0.07 KCAL/MOL
REMARK 927      BINDING AFFINITY PREDICTED BY RF-SCORE:    0.00 PKD
ROOT
HETATM    1  C   UNL     1      -9.191   9.894  71.238  1.00  0.00     1.324 C  
HETATM    2  S   UNL     1     -10.616   8.881  71.610  1.00  0.00    -0.371 SA 
HETATM    3  C   UNL     1      -9.682   7.644  72.495  1.00  0.00    -0.184 C  
HETATM    4  C   UNL     1      -8.331   7.251  71.910  1.00  0.00    -0.112 C  
HETATM    5  CA  UNL     1      -9.294  10.724  69.924  1.00  0.00     0.604 C  
HETATM    6  CA  UNL     1      -7.629   7.963  70.990  1.00  0.00    -0.082 C  
HETATM    7  OXT UNL     1      -5.447   8.343  70.006  1.00  0.00    -0.023 OA 
HETATM    8  N   UNL     1      -8.155   9.146  70.535  1.00  0.00    -0.144 N  
HETATM    9  C   UNL     1      -6.295   7.548  70.389  1.00  0.00    -0.038 C  
HETATM   10  O   UNL     1      -6.857  10.549  69.132  1.00  0.00    -0.060 OA 
HETATM   11  C   UNL     1      -7.842  10.166  69.711  1.00  0.00    -0.166 C  
HETATM   12  O   UNL     1      -6.074   6.219  70.286  1.00  0.00    -0.028 OA 
ENDROOT
BRANCH   4  13
HETATM   13  C   UNL     1      -7.936   5.983  72.512  1.00  0.00    -0.105 C  
HETATM   14  C   UNL     1      -8.121   4.732  72.068  1.00  0.00    -0.106 C  
BRANCH  14  15
HETATM   15  C   UNL     1      -8.752   4.320  70.860  1.00  0.00    -0.088 A  
HETATM   16  C   UNL     1      -9.868   3.497  70.704  1.00  0.00    -0.022 A  
HETATM   17  N   UNL     1     -10.107   3.051  69.413  1.00  0.00     0.657 NA 
HETATM   18  S   UNL     1      -8.116   4.667  69.290  1.00  0.00    -0.069 SA 
HETATM   19  C   UNL     1     -10.801   3.021  71.765  1.00  0.00     1.057 C  
HETATM   20  C   UNL     1      -9.239   3.588  68.592  1.00  0.00    -0.165 A  
ENDBRANCH  14  15
ENDBRANCH   4  13
BRANCH   5  21
HETATM   21  N   UNL     1     -10.431  10.395  69.005  1.00  0.00    -0.205 N  
HETATM   22  C   UNL     1     -10.869  10.934  67.808  1.00  0.00    -0.259 C  
HETATM   23  O   UNL     1     -11.700  10.296  67.159  1.00  0.00     0.130 OA 
HETATM   24  H   UNL     1     -11.000   9.613  69.330  1.00  0.00     0.000 HD 
BRANCH  22  25
HETATM   25  C   UNL     1     -10.533  12.330  67.320  1.00  0.00    -0.218 C  
BRANCH  25  26
HETATM   26  C   UNL     1      -9.337  13.047  67.832  1.00  0.00    -0.212 A  
HETATM   27  H2  UNL     1      -6.755  15.040  70.599  1.00  0.00     0.000 HD 
HETATM   28  H1  UNL     1      -8.422  14.957  71.174  1.00  0.00     0.000 HD 
HETATM   29  C   UNL     1      -8.120  13.066  67.162  1.00  0.00    -0.107 A  
HETATM   30  N   UNL     1      -9.305  13.751  69.039  1.00  0.00     0.131 NA 
HETATM   31  S   UNL     1      -6.917  13.837  68.096  1.00  0.00    -0.141 SA 
HETATM   32  N   UNL     1      -7.727  14.767  70.453  1.00  0.00     0.613 NA 
HETATM   33  C   UNL     1      -8.086  14.157  69.310  1.00  0.00     0.230 A  
ENDBRANCH  25  26
BRANCH  25  34
HETATM   34  N   UNL     1     -11.139  12.964  66.354  1.00  0.00    -0.278 NA 
HETATM   35  H   UNL     1     -10.656  13.090  65.465  1.00  0.00     0.000 HD 
BRANCH  34  36
HETATM   36  O   UNL     1     -12.432  13.478  66.502  1.00  0.00    -0.359 OA 
HETATM   37  C   UNL     1     -12.859  14.582  65.730  1.00  0.00    -0.032 C  
ENDBRANCH  34  36
ENDBRANCH  25  34
ENDBRANCH  22  25
ENDBRANCH   5  21
TORSDOF 7
ENDMDL
MODEL      234
REMARK 921   NORMALIZED FREE ENERGY PREDICTED BY IDOCK:    2.34 KCAL/MOL
REMARK 922        TOTAL FREE ENERGY PREDICTED BY IDOCK:    1.78 KCAL/MOL
REMARK 923 INTER-LIGAND FREE ENERGY PREDICTED BY IDOCK:    1.74 KCAL/MOL
REMARK 924 INTRA-LIGAND FREE ENERGY PREDICTED BY IDOCK:    0.04 KCAL/MOL
REMARK 927      BINDING AFFINITY PREDICTED BY RF-SCORE:    0.00 PKD
ROOT
HETATM    1  C   UNL     1     -10.047  15.272  68.034  1.00  0.00    -0.229 C  
HETATM    2  S   UNL     1      -9.604  14.409  69.536  1.00  0.00     0.491 SA 
HETATM    3  C   UNL     1     -10.551  15.484  70.600  1.00  0.00    -0.136 C  
HETATM    4  C   UNL     1     -10.514  16.974  70.284  1.00  0.00     0.521 C  
HETATM    5  CA  UNL     1      -8.985  15.208  66.896  1.00  0.00    -0.252 C  
HETATM    6  CA  UNL     1     -10.115  17.525  69.108  1.00  0.00    -0.231 C  
HETATM    7  OXT UNL     1     -10.208  19.491  67.694  1.00  0.00    -0.380 OA 
HETATM    8  N   UNL     1      -9.710  16.689  68.097  1.00  0.00    -0.238 N  
HETATM    9  C   UNL     1     -10.053  19.015  68.810  1.00  0.00    -0.363 C  
HETATM   10  O   UNL     1      -9.253  17.579  65.947  1.00  0.00    -0.508 OA 
HETATM   11  C   UNL     1      -9.293  16.745  66.816  1.00  0.00    -0.245 C  
HETATM   12  O   UNL     1      -9.807  19.824  69.865  1.00  0.00    -0.069 OA 
ENDROOT
BRANCH   4  13
HETATM   13  C   UNL     1     -10.980  17.692  71.463  1.00  0.00     2.219 C  
HETATM   14  C   UNL     1     -11.953  17.375  72.330  1.00  0.00     2.087 C  
BRANCH  14  15
HETATM   15  C   UNL     1     -12.783  16.218  72.322  1.00  0.00    -0.108 A  
HETATM   16  C   UNL     1     -12.757  15.129  73.193  1.00  0.00    -0.481 A  
HETATM   17  N   UNL     1     -13.500  14.028  72.797  1.00  0.00    -0.663 NA 
HETATM   18  S   UNL     1     -13.929  15.879  71.072  1.00  0.00     1.478 SA 
HETATM   19  C   UNL     1     -11.998  15.006  74.471  1.00  0.00     0.011 C  
HETATM   20  C   UNL     1     -14.143  14.303  71.689  1.00  0.00    -0.391 A  
ENDBRANCH  14  15
ENDBRANCH   4  13
BRANCH   5  21
HETATM   21  N   UNL     1      -7.636  14.669  67.262  1.00  0.00    -0.265 N  
HETATM   22  C   UNL     1      -6.947  13.520  66.911  1.00  0.00     0.916 C  
HETATM   23  O   UNL     1      -5.747  13.463  67.186  1.00  0.00    -0.302 OA 
HETATM   24  H   UNL     1      -7.119  15.273  67.901  1.00  0.00     0.000 HD 
BRANCH  22  25
HETATM   25  C   UNL     1      -7.595  12.261  66.370  1.00  0.00     0.548 C  
BRANCH  25  26
HETATM   26  C   UNL     1      -9.010  11.937  66.688  1.00  0.00    -0.198 A  
HETATM   27  H2  UNL     1     -13.215  11.413  66.110  1.00  0.00     0.000 HD 
HETATM   28  H1  UNL     1     -12.484  12.420  64.857  1.00  0.00     0.000 HD 
HETATM   29  C   UNL     1      -9.386  11.194  67.801  1.00  0.00    -0.164 A  
HETATM   30  N   UNL     1     -10.097  12.322  65.899  1.00  0.00    -0.246 NA 
HETATM   31  S   UNL     1     -11.061  10.867  67.783  1.00  0.00    -0.318 SA 
HETATM   32  N   UNL     1     -12.397  11.879  65.717  1.00  0.00    -0.139 NA 
HETATM   33  C   UNL     1     -11.208  11.777  66.336  1.00  0.00    -0.323 A  
ENDBRANCH  25  26
BRANCH  25  34
HETATM   34  N   UNL     1      -7.061  11.440  65.508  1.00  0.00    -0.051 NA 
HETATM   35  H   UNL     1      -7.672  10.860  64.934  1.00  0.00     0.000 HD 
BRANCH  34  36
HETATM   36  O   UNL     1      -5.675  11.331  65.349  1.00  0.00    -0.091 OA 
HETATM   37  C   UNL     1      -5.130  10.424  64.412  1.00  0.00    -0.137 C  
ENDBRANCH  34  36
ENDBRANCH  25  34
ENDBRANCH  22  25
ENDBRANCH   5  21
TORSDOF 7
ENDMDL
MODEL      235
REMARK 921   NORMALIZED FREE ENERGY PREDICTED BY IDOCK:    2.79 KCAL/MOL
REMARK 922        TOTAL FREE ENERGY PREDICTED BY IDOCK:    2.42 KCAL/MOL
REMARK 923 INTER-LIGAND FREE ENERGY PREDICTED BY IDOCK:    1.55 KCAL/MOL
REMARK 924 INTRA-LIGAND FREE ENERGY PREDICTED BY IDOCK:    0.87 KCAL/MOL
REMARK 927      BINDING AFFINITY PREDICTED BY RF-SCORE:    0.00 PKD
ROOT
HETATM    1  C   UNL     1     -10.800  16.100  68.108  1.00  0.00    -0.329 C  
HETATM    2  S   UNL     1     -10.507  14.804  69.303  1.00  0.00    -0.193 SA 
HETATM    3  C   UNL     1     -11.283  15.677  70.651  1.00  0.00    -0.359 C  
HETATM    4  C   UNL     1     -11.015  17.173  70.750  1.00  0.00     0.919 C  
HETATM    5  CA  UNL     1      -9.753  16.190  66.958  1.00  0.00    -0.230 C  
HETATM    6  CA  UNL     1     -10.526  17.958  69.753  1.00  0.00     0.683 C  
HETATM    7  OXT UNL     1     -10.304  20.226  68.929  1.00  0.00    -0.319 OA 
HETATM    8  N   UNL     1     -10.248  17.379  68.540  1.00  0.00    -0.347 N  
HETATM    9  C   UNL     1     -10.233  19.445  69.869  1.00  0.00     0.588 C  
HETATM   10  O   UNL     1      -9.643  18.743  66.697  1.00  0.00    -0.310 OA 
HETATM   11  C   UNL     1      -9.818  17.719  67.308  1.00  0.00    -0.312 C  
HETATM   12  O   UNL     1      -9.872  19.889  71.093  1.00  0.00     1.232 OA 
ENDROOT
BRANCH   4  13
HETATM   13  C   UNL     1     -11.372  17.604  72.095  1.00  0.00     2.086 C  
HETATM   14  C   UNL     1     -12.230  17.058  72.969  1.00  0.00     0.440 C  
BRANCH  14  15
HETATM   15  C   UNL     1     -13.014  15.881  72.800  1.00  0.00    -0.483 A  
HETATM   16  C   UNL     1     -12.805  14.617  73.351  1.00  0.00    -0.406 A  
HETATM   17  N   UNL     1     -13.572  13.595  72.813  1.00  0.00    -0.686 NA 
HETATM   18  S   UNL     1     -14.347  15.776  71.703  1.00  0.00     0.298 SA 
HETATM   19  C   UNL     1     -11.835  14.240  74.419  1.00  0.00     1.901 C  
HETATM   20  C   UNL     1     -14.404  14.086  71.927  1.00  0.00    -0.382 A  
ENDBRANCH  14  15
ENDBRANCH   4  13
BRANCH   5  21
HETATM   21  N   UNL     1      -8.506  15.375  67.116  1.00  0.00    -0.197 N  
HETATM   22  C   UNL     1      -8.215  14.038  66.906  1.00  0.00     0.057 C  
HETATM   23  O   UNL     1      -7.029  13.702  66.896  1.00  0.00     0.155 OA 
HETATM   24  H   UNL     1      -7.707  15.917  67.447  1.00  0.00     0.000 HD 
BRANCH  22  25
HETATM   25  C   UNL     1      -9.249  12.930  66.860  1.00  0.00    -0.234 C  
BRANCH  25  26
HETATM   26  C   UNL     1      -9.054  11.676  67.634  1.00  0.00    -0.174 A  
HETATM   27  H2  UNL     1      -9.723   8.665  70.596  1.00  0.00     0.000 HD 
HETATM   28  H1  UNL     1     -10.518  10.190  70.995  1.00  0.00     0.000 HD 
HETATM   29  C   UNL     1      -8.295  10.609  67.168  1.00  0.00    -0.125 A  
HETATM   30  N   UNL     1      -9.625  11.432  68.885  1.00  0.00    -0.130 NA 
HETATM   31  S   UNL     1      -8.409   9.270  68.220  1.00  0.00    -0.120 SA 
HETATM   32  N   UNL     1      -9.925   9.640  70.374  1.00  0.00    -0.267 NA 
HETATM   33  C   UNL     1      -9.408  10.195  69.265  1.00  0.00    -0.215 A  
ENDBRANCH  25  26
BRANCH  25  34
HETATM   34  N   UNL     1     -10.417  13.002  66.284  1.00  0.00    -0.272 NA 
HETATM   35  H   UNL     1     -11.118  12.293  66.496  1.00  0.00     0.000 HD 
BRANCH  34  36
HETATM   36  O   UNL     1     -10.736  14.024  65.382  1.00  0.00    -0.306 OA 
HETATM   37  C   UNL     1     -12.016  14.080  64.786  1.00  0.00    -0.417 C  
ENDBRANCH  34  36
ENDBRANCH  25  34
ENDBRANCH  22  25
ENDBRANCH   5  21
TORSDOF 7
ENDMDL
MODEL      236
REMARK 921   NORMALIZED FREE ENERGY PREDICTED BY IDOCK:    8.72 KCAL/MOL
REMARK 922        TOTAL FREE ENERGY PREDICTED BY IDOCK:   10.77 KCAL/MOL
REMARK 923 INTER-LIGAND FREE ENERGY PREDICTED BY IDOCK:    1.18 KCAL/MOL
REMARK 924 INTRA-LIGAND FREE ENERGY PREDICTED BY IDOCK:    9.60 KCAL/MOL
REMARK 927      BINDING AFFINITY PREDICTED BY RF-SCORE:    0.00 PKD
ROOT
HETATM    1  C   UNL     1      -8.485  17.309  68.929  1.00  0.00    -0.175 C  
HETATM    2  S   UNL     1      -9.641  16.828  67.652  1.00  0.00    -0.247 SA 
HETATM    3  C   UNL     1     -10.240  15.398  68.537  1.00  0.00    -0.219 C  
HETATM    4  C   UNL     1      -9.206  14.564  69.280  1.00  0.00     0.102 C  
HETATM    5  CA  UNL     1      -7.220  18.066  68.426  1.00  0.00    -0.254 C  
HETATM    6  CA  UNL     1      -7.951  14.967  69.610  1.00  0.00    -0.010 C  
HETATM    7  OXT UNL     1      -6.047  14.577  71.058  1.00  0.00    -0.166 OA 
HETATM    8  N   UNL     1      -7.557  16.235  69.260  1.00  0.00    -0.232 N  
HETATM    9  C   UNL     1      -6.914  14.117  70.326  1.00  0.00     0.292 C  
HETATM   10  O   UNL     1      -5.480  17.077  70.035  1.00  0.00    -0.188 OA 
HETATM   11  C   UNL     1      -6.498  17.060  69.392  1.00  0.00    -0.236 C  
HETATM   12  O   UNL     1      -6.984  12.784  70.113  1.00  0.00     0.472 OA 
ENDROOT
BRANCH   4  13
HETATM   13  C   UNL     1      -9.803  13.266  69.569  1.00  0.00     1.028 C  
HETATM   14  C   UNL     1     -10.814  12.953  70.392  1.00  0.00     1.725 C  
BRANCH  14  15
HETATM   15  C   UNL     1     -11.586  13.837  71.198  1.00  0.00     0.596 A  
HETATM   16  C   UNL     1     -12.803  13.587  71.833  1.00  0.00    -0.272 A  
HETATM   17  N   UNL     1     -13.457  14.703  72.333  1.00  0.00    -0.398 NA 
HETATM   18  S   UNL     1     -11.198  15.508  71.416  1.00  0.00    -0.267 SA 
HETATM   19  C   UNL     1     -13.488  12.274  72.000  1.00  0.00    -0.418 C  
HETATM   20  C   UNL     1     -12.714  15.768  72.155  1.00  0.00    -0.447 A  
ENDBRANCH  14  15
ENDBRANCH   4  13
BRANCH   5  21
HETATM   21  N   UNL     1      -6.986  18.079  66.947  1.00  0.00    -0.184 N  
HETATM   22  C   UNL     1      -7.804  18.335  65.860  1.00  0.00    -0.047 C  
HETATM   23  O   UNL     1      -7.268  18.504  64.763  1.00  0.00     0.381 OA 
HETATM   24  H   UNL     1      -6.026  17.853  66.687  1.00  0.00     0.000 HD 
BRANCH  22  25
HETATM   25  C   UNL     1      -9.318  18.252  65.885  1.00  0.00     0.178 C  
BRANCH  25  26
HETATM   26  C   UNL     1     -10.023  17.062  65.342  1.00  0.00     0.240 A  
HETATM   27  H2  UNL     1     -10.652  13.029  64.064  1.00  0.00     0.000 HD 
HETATM   28  H1  UNL     1      -8.939  13.439  64.180  1.00  0.00     0.000 HD 
HETATM   29  C   UNL     1     -11.407  16.979  65.249  1.00  0.00     0.509 A  
HETATM   30  N   UNL     1      -9.377  15.907  64.894  1.00  0.00     0.621 NA 
HETATM   31  S   UNL     1     -11.895  15.425  64.737  1.00  0.00    -0.083 SA 
HETATM   32  N   UNL     1      -9.919  13.711  64.256  1.00  0.00    -0.045 NA 
HETATM   33  C   UNL     1     -10.247  14.966  64.609  1.00  0.00     0.093 A  
ENDBRANCH  25  26
BRANCH  25  34
HETATM   34  N   UNL     1     -10.117  19.099  66.473  1.00  0.00    -0.374 NA 
HETATM   35  H   UNL     1     -11.081  19.174  66.150  1.00  0.00     0.000 HD 
BRANCH  34  36
HETATM   36  O   UNL     1      -9.691  19.908  67.532  1.00  0.00    -0.348 OA 
HETATM   37  C   UNL     1      -9.995  19.560  68.868  1.00  0.00    -0.448 C  
ENDBRANCH  34  36
ENDBRANCH  25  34
ENDBRANCH  22  25
ENDBRANCH   5  21
TORSDOF 7
ENDMDL
MODEL      237
REMARK 921   NORMALIZED FREE ENERGY PREDICTED BY IDOCK:   17.92 KCAL/MOL
REMARK 922        TOTAL FREE ENERGY PREDICTED BY IDOCK:   23.73 KCAL/MOL
REMARK 923 INTER-LIGAND FREE ENERGY PREDICTED BY IDOCK:   21.95 KCAL/MOL
REMARK 924 INTRA-LIGAND FREE ENERGY PREDICTED BY IDOCK:    1.78 KCAL/MOL
REMARK 927      BINDING AFFINITY PREDICTED BY RF-SCORE:    0.00 PKD
ROOT
HETATM    1  C   UNL     1      -9.375  11.510  68.710  1.00  0.00    -0.079 C  
HETATM    2  S   UNL     1      -9.687  11.263  70.453  1.00  0.00     3.239 SA 
HETATM    3  C   UNL     1     -10.914   9.993  70.198  1.00  0.00    -0.310 C  
HETATM    4  C   UNL     1     -11.895  10.201  69.052  1.00  0.00     0.107 C  
HETATM    5  CA  UNL     1      -8.918  12.945  68.315  1.00  0.00    -0.175 C  
HETATM    6  CA  UNL     1     -11.734  11.069  68.019  1.00  0.00    -0.179 C  
HETATM    7  OXT UNL     1     -12.414  11.629  65.761  1.00  0.00     0.311 OA 
HETATM    8  N   UNL     1     -10.593  11.832  67.976  1.00  0.00    -0.199 N  
HETATM    9  C   UNL     1     -12.732  11.292  66.894  1.00  0.00     4.421 C  
HETATM   10  O   UNL     1     -10.141  13.166  66.068  1.00  0.00    -0.277 OA 
HETATM   11  C   UNL     1      -9.991  12.745  67.187  1.00  0.00    -0.218 C  
HETATM   12  O   UNL     1     -14.033  11.103  67.205  1.00  0.00    12.405 OA 
ENDROOT
BRANCH   4  13
HETATM   13  C   UNL     1     -13.028   9.310  69.266  1.00  0.00     3.673 C  
HETATM   14  C   UNL     1     -13.158   8.280  70.114  1.00  0.00     1.794 C  
BRANCH  14  15
HETATM   15  C   UNL     1     -12.202   7.799  71.053  1.00  0.00    -0.215 A  
HETATM   16  C   UNL     1     -11.997   8.215  72.369  1.00  0.00    -0.372 A  
HETATM   17  N   UNL     1     -10.831   7.759  72.966  1.00  0.00    -0.398 NA 
HETATM   18  S   UNL     1     -10.966   6.657  70.651  1.00  0.00    -0.301 SA 
HETATM   19  C   UNL     1     -12.864   9.114  73.183  1.00  0.00     0.940 C  
HETATM   20  C   UNL     1     -10.204   6.948  72.150  1.00  0.00    -0.193 A  
ENDBRANCH  14  15
ENDBRANCH   4  13
BRANCH   5  21
HETATM   21  N   UNL     1      -9.037  14.004  69.368  1.00  0.00    -0.121 N  
HETATM   22  C   UNL     1      -9.379  15.345  69.329  1.00  0.00    -0.254 C  
HETATM   23  O   UNL     1      -9.622  15.908  70.398  1.00  0.00     0.357 OA 
HETATM   24  H   UNL     1      -8.822  13.668  70.307  1.00  0.00     0.000 HD 
BRANCH  22  25
HETATM   25  C   UNL     1      -9.307  16.215  68.089  1.00  0.00    -0.201 C  
BRANCH  25  26
HETATM   26  C   UNL     1      -8.083  16.998  67.780  1.00  0.00    -0.190 A  
HETATM   27  H2  UNL     1      -4.418  19.105  68.428  1.00  0.00     0.000 HD 
HETATM   28  H1  UNL     1      -5.353  18.909  69.912  1.00  0.00     0.000 HD 
HETATM   29  C   UNL     1      -7.554  17.103  66.499  1.00  0.00    -0.285 A  
HETATM   30  N   UNL     1      -7.329  17.684  68.736  1.00  0.00    -0.260 NA 
HETATM   31  S   UNL     1      -6.063  17.933  66.516  1.00  0.00    -0.201 SA 
HETATM   32  N   UNL     1      -5.255  18.774  68.906  1.00  0.00    -0.191 NA 
HETATM   33  C   UNL     1      -6.227  18.160  68.208  1.00  0.00    -0.184 A  
ENDBRANCH  25  26
BRANCH  25  34
HETATM   34  N   UNL     1     -10.203  16.265  67.142  1.00  0.00    -0.271 NA 
HETATM   35  H   UNL     1      -9.911  16.524  66.200  1.00  0.00     0.000 HD 
BRANCH  34  36
HETATM   36  O   UNL     1     -11.550  15.975  67.380  1.00  0.00     0.008 OA 
HETATM   37  C   UNL     1     -11.917  14.834  68.130  1.00  0.00    -0.230 C  
ENDBRANCH  34  36
ENDBRANCH  25  34
ENDBRANCH  22  25
ENDBRANCH   5  21
TORSDOF 7
ENDMDL
MODEL      238
REMARK 921   NORMALIZED FREE ENERGY PREDICTED BY IDOCK:   18.21 KCAL/MOL
REMARK 922        TOTAL FREE ENERGY PREDICTED BY IDOCK:   24.15 KCAL/MOL
REMARK 923 INTER-LIGAND FREE ENERGY PREDICTED BY IDOCK:   25.66 KCAL/MOL
REMARK 924 INTRA-LIGAND FREE ENERGY PREDICTED BY IDOCK:   -1.51 KCAL/MOL
REMARK 927      BINDING AFFINITY PREDICTED BY RF-SCORE:    0.00 PKD
ROOT
HETATM    1  C   UNL     1      -8.960  11.516  68.875  1.00  0.00     0.039 C  
HETATM    2  S   UNL     1      -9.035  10.987  70.581  1.00  0.00     4.353 SA 
HETATM    3  C   UNL     1     -10.003   9.529  70.235  1.00  0.00    -0.259 C  
HETATM    4  C   UNL     1     -11.119   9.671  69.208  1.00  0.00    -0.149 C  
HETATM    5  CA  UNL     1      -8.841  13.054  68.663  1.00  0.00     0.061 C  
HETATM    6  CA  UNL     1     -11.242  10.679  68.304  1.00  0.00    -0.301 C  
HETATM    7  OXT UNL     1     -12.249  11.368  66.211  1.00  0.00     0.293 OA 
HETATM    8  N   UNL     1     -10.287  11.665  68.289  1.00  0.00    -0.193 N  
HETATM    9  C   UNL     1     -12.375  10.828  67.302  1.00  0.00     2.975 C  
HETATM   10  O   UNL     1     -10.309  13.299  66.571  1.00  0.00    -0.275 OA 
HETATM   11  C   UNL     1      -9.963  12.778  67.600  1.00  0.00    -0.217 C  
HETATM   12  O   UNL     1     -13.573  10.329  67.678  1.00  0.00     9.726 OA 
ENDROOT
BRANCH   4  13
HETATM   13  C   UNL     1     -12.023   8.539  69.372  1.00  0.00     1.444 C  
HETATM   14  C   UNL     1     -12.022   7.347  68.759  1.00  0.00     1.727 C  
BRANCH  14  15
HETATM   15  C   UNL     1     -11.102   6.871  67.781  1.00  0.00    -0.146 A  
HETATM   16  C   UNL     1      -9.911   6.174  67.982  1.00  0.00    -0.127 A  
HETATM   17  N   UNL     1      -9.087   6.065  66.872  1.00  0.00    -0.122 NA 
HETATM   18  S   UNL     1     -11.239   7.228  66.094  1.00  0.00     3.221 SA 
HETATM   19  C   UNL     1      -9.415   5.570  69.251  1.00  0.00    -0.171 C  
HETATM   20  C   UNL     1      -9.676   6.598  65.830  1.00  0.00     0.472 A  
ENDBRANCH  14  15
ENDBRANCH   4  13
BRANCH   5  21
HETATM   21  N   UNL     1      -9.059  13.920  69.866  1.00  0.00     0.912 N  
HETATM   22  C   UNL     1      -9.525  15.213  70.032  1.00  0.00     0.188 C  
HETATM   23  O   UNL     1      -9.821  15.577  71.172  1.00  0.00     0.918 OA 
HETATM   24  H   UNL     1      -8.814  13.462  70.744  1.00  0.00     0.000 HD 
BRANCH  22  25
HETATM   25  C   UNL     1      -9.535  16.269  68.944  1.00  0.00    -0.252 C  
BRANCH  25  26
HETATM   26  C   UNL     1      -8.435  17.261  68.838  1.00  0.00    -0.175 A  
HETATM   27  H2  UNL     1      -5.082  19.649  70.001  1.00  0.00     0.000 HD 
HETATM   28  H1  UNL     1      -5.957  18.996  71.389  1.00  0.00     0.000 HD 
HETATM   29  C   UNL     1      -7.947  17.725  67.622  1.00  0.00    -0.214 A  
HETATM   30  N   UNL     1      -7.767  17.810  69.936  1.00  0.00     1.024 NA 
HETATM   31  S   UNL     1      -6.583  18.725  67.849  1.00  0.00    -0.215 SA 
HETATM   32  N   UNL     1      -5.858  19.107  70.380  1.00  0.00    -0.222 NA 
HETATM   33  C   UNL     1      -6.748  18.540  69.546  1.00  0.00    -0.121 A  
ENDBRANCH  25  26
BRANCH  25  34
HETATM   34  N   UNL     1     -10.386  16.337  67.957  1.00  0.00    -0.270 NA 
HETATM   35  H   UNL     1     -10.108  15.987  67.041  1.00  0.00     0.000 HD 
BRANCH  34  36
HETATM   36  O   UNL     1     -11.667  16.876  68.118  1.00  0.00     0.183 OA 
HETATM   37  C   UNL     1     -12.463  16.514  69.228  1.00  0.00     1.548 C  
ENDBRANCH  34  36
ENDBRANCH  25  34
ENDBRANCH  22  25
ENDBRANCH   5  21
TORSDOF 7
ENDMDL
MODEL      239
REMARK 921   NORMALIZED FREE ENERGY PREDICTED BY IDOCK:   19.88 KCAL/MOL
REMARK 922        TOTAL FREE ENERGY PREDICTED BY IDOCK:   26.51 KCAL/MOL
REMARK 923 INTER-LIGAND FREE ENERGY PREDICTED BY IDOCK:   24.38 KCAL/MOL
REMARK 924 INTRA-LIGAND FREE ENERGY PREDICTED BY IDOCK:    2.13 KCAL/MOL
REMARK 927      BINDING AFFINITY PREDICTED BY RF-SCORE:    0.00 PKD
ROOT
HETATM    1  C   UNL     1      -8.832   8.703  66.629  1.00  0.00    -0.133 C  
HETATM    2  S   UNL     1     -10.580   8.351  66.756  1.00  0.00     0.027 SA 
HETATM    3  C   UNL     1     -11.080  10.054  66.573  1.00  0.00     0.343 C  
HETATM    4  C   UNL     1     -10.242  11.100  67.296  1.00  0.00    -0.227 C  
HETATM    5  CA  UNL     1      -7.900   7.718  67.395  1.00  0.00    -0.118 C  
HETATM    6  CA  UNL     1      -8.987  10.912  67.784  1.00  0.00    -0.139 C  
HETATM    7  OXT UNL     1      -6.946  11.999  68.507  1.00  0.00    -0.077 OA 
HETATM    8  N   UNL     1      -8.398   9.683  67.618  1.00  0.00    -0.121 N  
HETATM    9  C   UNL     1      -8.168  11.953  68.530  1.00  0.00    -0.126 C  
HETATM   10  O   UNL     1      -6.123   9.380  68.215  1.00  0.00    -0.048 OA 
HETATM   11  C   UNL     1      -7.230   9.057  67.869  1.00  0.00    -0.080 C  
HETATM   12  O   UNL     1      -8.868  12.857  69.251  1.00  0.00     0.601 OA 
ENDROOT
BRANCH   4  13
HETATM   13  C   UNL     1     -11.025  12.328  67.370  1.00  0.00    -0.298 C  
HETATM   14  C   UNL     1     -10.662  13.591  67.106  1.00  0.00    -0.282 C  
BRANCH  14  15
HETATM   15  C   UNL     1      -9.393  14.058  66.661  1.00  0.00    -0.277 A  
HETATM   16  C   UNL     1      -8.509  14.917  67.316  1.00  0.00    -0.208 A  
HETATM   17  N   UNL     1      -7.469  15.409  66.542  1.00  0.00     0.159 NA 
HETATM   18  S   UNL     1      -8.764  13.742  65.081  1.00  0.00     3.409 SA 
HETATM   19  C   UNL     1      -8.578  15.386  68.729  1.00  0.00    -0.190 C  
HETATM   20  C   UNL     1      -7.514  14.873  65.347  1.00  0.00     7.600 A  
ENDBRANCH  14  15
ENDBRANCH   4  13
BRANCH   5  21
HETATM   21  N   UNL     1      -8.561   6.763  68.342  1.00  0.00    -0.125 N  
HETATM   22  C   UNL     1      -8.765   6.774  69.711  1.00  0.00    -0.141 C  
HETATM   23  O   UNL     1      -9.557   5.955  70.182  1.00  0.00    -0.156 OA 
HETATM   24  H   UNL     1      -8.939   5.934  67.882  1.00  0.00     0.000 HD 
BRANCH  22  25
HETATM   25  C   UNL     1      -7.959   7.601  70.694  1.00  0.00    -0.099 C  
BRANCH  25  26
HETATM   26  C   UNL     1      -8.626   8.319  71.809  1.00  0.00    -0.161 A  
HETATM   27  H2  UNL     1     -11.405  10.873  73.822  1.00  0.00     0.000 HD 
HETATM   28  H1  UNL     1     -11.345  11.180  72.085  1.00  0.00     0.000 HD 
HETATM   29  C   UNL     1      -8.461   7.967  73.144  1.00  0.00    -0.186 A  
HETATM   30  N   UNL     1      -9.497   9.398  71.636  1.00  0.00    -0.189 NA 
HETATM   31  S   UNL     1      -9.487   8.884  74.152  1.00  0.00     4.265 SA 
HETATM   32  N   UNL     1     -11.010  10.672  72.904  1.00  0.00     6.988 NA 
HETATM   33  C   UNL     1     -10.051   9.739  72.776  1.00  0.00     4.521 A  
ENDBRANCH  25  26
BRANCH  25  34
HETATM   34  N   UNL     1      -6.656   7.660  70.749  1.00  0.00    -0.038 NA 
HETATM   35  H   UNL     1      -6.111   7.285  69.973  1.00  0.00     0.000 HD 
BRANCH  34  36
HETATM   36  O   UNL     1      -5.986   8.222  71.841  1.00  0.00    -0.037 OA 
HETATM   37  C   UNL     1      -5.350   9.479  71.723  1.00  0.00    -0.076 C  
ENDBRANCH  34  36
ENDBRANCH  25  34
ENDBRANCH  22  25
ENDBRANCH   5  21
TORSDOF 7
ENDMDL
MODEL      240
REMARK 921   NORMALIZED FREE ENERGY PREDICTED BY IDOCK:   27.48 KCAL/MOL
REMARK 922        TOTAL FREE ENERGY PREDICTED BY IDOCK:   37.21 KCAL/MOL
REMARK 923 INTER-LIGAND FREE ENERGY PREDICTED BY IDOCK:   29.63 KCAL/MOL
REMARK 924 INTRA-LIGAND FREE ENERGY PREDICTED BY IDOCK:    7.58 KCAL/MOL
REMARK 927      BINDING AFFINITY PREDICTED BY RF-SCORE:    0.00 PKD
ROOT
HETATM    1  C   UNL     1      -9.967  14.070  70.017  1.00  0.00     1.278 C  
HETATM    2  S   UNL     1      -8.373  14.599  69.407  1.00  0.00     0.179 SA 
HETATM    3  C   UNL     1      -9.051  15.671  68.152  1.00  0.00    -0.181 C  
HETATM    4  C   UNL     1     -10.266  15.158  67.390  1.00  0.00    -0.235 C  
HETATM    5  CA  UNL     1     -10.000  12.639  70.633  1.00  0.00     5.764 C  
HETATM    6  CA  UNL     1     -11.073  14.136  67.779  1.00  0.00    -0.276 C  
HETATM    7  OXT UNL     1     -13.251  13.105  67.521  1.00  0.00     1.808 OA 
HETATM    8  N   UNL     1     -10.795  13.497  68.962  1.00  0.00    -0.227 N  
HETATM    9  C   UNL     1     -12.266  13.611  66.998  1.00  0.00    -0.329 C  
HETATM   10  O   UNL     1     -12.314  11.888  69.814  1.00  0.00    -0.187 OA 
HETATM   11  C   UNL     1     -11.291  12.521  69.749  1.00  0.00    -0.040 C  
HETATM   12  O   UNL     1     -12.195  13.722  65.653  1.00  0.00    -0.396 OA 
ENDROOT
BRANCH   4  13
HETATM   13  C   UNL     1     -10.402  15.955  66.177  1.00  0.00    -0.341 C  
HETATM   14  C   UNL     1     -10.341  17.285  66.016  1.00  0.00    -0.312 C  
BRANCH  14  15
HETATM   15  C   UNL     1     -10.107  18.273  67.013  1.00  0.00    -0.360 A  
HETATM   16  C   UNL     1      -9.491  19.517  66.870  1.00  0.00    -0.344 A  
HETATM   17  N   UNL     1      -9.163  20.162  68.053  1.00  0.00    -0.271 NA 
HETATM   18  S   UNL     1     -10.428  18.023  68.694  1.00  0.00    -0.116 SA 
HETATM   19  C   UNL     1      -9.120  20.206  65.601  1.00  0.00     0.176 C  
HETATM   20  C   UNL     1      -9.592  19.461  69.073  1.00  0.00    -0.370 A  
ENDBRANCH  14  15
ENDBRANCH   4  13
BRANCH   5  21
HETATM   21  N   UNL     1      -8.788  11.785  70.418  1.00  0.00     3.495 N  
HETATM   22  C   UNL     1      -8.005  11.512  69.309  1.00  0.00     0.208 C  
HETATM   23  O   UNL     1      -6.923  10.952  69.492  1.00  0.00    -0.108 OA 
HETATM   24  H   UNL     1      -8.476  11.305  71.262  1.00  0.00     0.000 HD 
BRANCH  22  25
HETATM   25  C   UNL     1      -8.456  11.695  67.873  1.00  0.00    -0.148 C  
BRANCH  25  26
HETATM   26  C   UNL     1      -7.853  12.747  67.015  1.00  0.00    -0.014 A  
HETATM   27  H2  UNL     1      -5.858  16.378  65.951  1.00  0.00     0.000 HD 
HETATM   28  H1  UNL     1      -6.484  16.412  67.602  1.00  0.00     0.000 HD 
HETATM   29  C   UNL     1      -7.514  12.536  65.683  1.00  0.00     3.080 A  
HETATM   30  N   UNL     1      -7.545  14.036  67.456  1.00  0.00    -0.178 NA 
HETATM   31  S   UNL     1      -6.697  13.889  65.037  1.00  0.00    16.242 SA 
HETATM   32  N   UNL     1      -6.369  15.929  66.711  1.00  0.00    -0.171 NA 
HETATM   33  C   UNL     1      -6.890  14.702  66.535  1.00  0.00     2.421 A  
ENDBRANCH  25  26
BRANCH  25  34
HETATM   34  N   UNL     1      -9.274  10.911  67.227  1.00  0.00    -0.151 NA 
HETATM   35  H   UNL     1      -9.815  11.292  66.451  1.00  0.00     0.000 HD 
BRANCH  34  36
HETATM   36  O   UNL     1      -9.432   9.563  67.566  1.00  0.00    -0.129 OA 
HETATM   37  C   UNL     1      -8.877   8.548  66.755  1.00  0.00    -0.139 C  
ENDBRANCH  34  36
ENDBRANCH  25  34
ENDBRANCH  22  25
ENDBRANCH   5  21
TORSDOF 7
ENDMDL
MODEL      241
REMARK 921   NORMALIZED FREE ENERGY PREDICTED BY IDOCK:   35.18 KCAL/MOL
REMARK 922        TOTAL FREE ENERGY PREDICTED BY IDOCK:   48.06 KCAL/MOL
REMARK 923 INTER-LIGAND FREE ENERGY PREDICTED BY IDOCK:   25.52 KCAL/MOL
REMARK 924 INTRA-LIGAND FREE ENERGY PREDICTED BY IDOCK:   22.54 KCAL/MOL
REMARK 927      BINDING AFFINITY PREDICTED BY RF-SCORE:    0.00 PKD
ROOT
HETATM    1  C   UNL     1      -9.381   8.602  66.533  1.00  0.00    -0.200 C  
HETATM    2  S   UNL     1     -10.770   7.558  66.112  1.00  0.00     1.891 SA 
HETATM    3  C   UNL     1     -11.986   8.847  66.330  1.00  0.00     7.298 C  
HETATM    4  C   UNL     1     -11.794   9.783  67.516  1.00  0.00     2.300 C  
HETATM    5  CA  UNL     1      -8.169   7.864  67.175  1.00  0.00    -0.118 C  
HETATM    6  CA  UNL     1     -10.642   9.945  68.219  1.00  0.00    -0.229 C  
HETATM    7  OXT UNL     1      -9.408  11.397  69.716  1.00  0.00     0.755 OA 
HETATM    8  N   UNL     1      -9.538   9.219  67.845  1.00  0.00    -0.140 N  
HETATM    9  C   UNL     1     -10.467  10.859  69.421  1.00  0.00    -0.173 C  
HETATM   10  O   UNL     1      -7.443   9.654  68.868  1.00  0.00    -0.072 OA 
HETATM   11  C   UNL     1      -8.240   9.070  68.177  1.00  0.00    -0.113 C  
HETATM   12  O   UNL     1     -11.565  11.060  70.183  1.00  0.00    -0.296 OA 
ENDROOT
BRANCH   4  13
HETATM   13  C   UNL     1     -13.059  10.464  67.757  1.00  0.00     8.112 C  
HETATM   14  C   UNL     1     -13.373  11.385  68.679  1.00  0.00     4.561 C  
BRANCH  14  15
HETATM   15  C   UNL     1     -12.520  11.955  69.667  1.00  0.00     0.086 A  
HETATM   16  C   UNL     1     -12.411  11.614  71.015  1.00  0.00    -0.334 A  
HETATM   17  N   UNL     1     -11.694  12.503  71.801  1.00  0.00     2.008 NA 
HETATM   18  S   UNL     1     -11.528  13.342  69.381  1.00  0.00    -0.252 SA 
HETATM   19  C   UNL     1     -13.004  10.432  71.704  1.00  0.00    -0.581 C  
HETATM   20  C   UNL     1     -11.199  13.457  71.051  1.00  0.00     1.874 A  
ENDBRANCH  14  15
ENDBRANCH   4  13
BRANCH   5  21
HETATM   21  N   UNL     1      -8.391   6.444  67.598  1.00  0.00    -0.117 N  
HETATM   22  C   UNL     1      -8.578   5.840  68.830  1.00  0.00    -0.109 C  
HETATM   23  O   UNL     1      -8.975   4.673  68.844  1.00  0.00    -0.099 OA 
HETATM   24  H   UNL     1      -8.407   5.787  66.818  1.00  0.00     0.000 HD 
BRANCH  22  25
HETATM   25  C   UNL     1      -8.166   6.448  70.157  1.00  0.00    -0.129 C  
BRANCH  25  26
HETATM   26  C   UNL     1      -8.050   5.606  71.375  1.00  0.00    -0.118 A  
HETATM   27  H2  UNL     1      -9.159   2.830  74.434  1.00  0.00     0.000 HD 
HETATM   28  H1  UNL     1     -10.557   3.471  73.568  1.00  0.00     0.000 HD 
HETATM   29  C   UNL     1      -6.831   5.291  71.964  1.00  0.00    -0.065 A  
HETATM   30  N   UNL     1      -9.138   5.030  72.035  1.00  0.00    -0.135 NA 
HETATM   31  S   UNL     1      -7.038   4.180  73.243  1.00  0.00    -0.070 SA 
HETATM   32  N   UNL     1      -9.549   3.446  73.721  1.00  0.00    -0.098 NA 
HETATM   33  C   UNL     1      -8.733   4.222  72.986  1.00  0.00    -0.100 A  
ENDBRANCH  25  26
BRANCH  25  34
HETATM   34  N   UNL     1      -7.761   7.675  70.338  1.00  0.00    -0.089 NA 
HETATM   35  H   UNL     1      -7.918   8.361  69.601  1.00  0.00     0.000 HD 
BRANCH  34  36
HETATM   36  O   UNL     1      -7.116   8.076  71.513  1.00  0.00    -0.061 OA 
HETATM   37  C   UNL     1      -7.790   8.872  72.466  1.00  0.00     0.332 C  
ENDBRANCH  34  36
ENDBRANCH  25  34
ENDBRANCH  22  25
ENDBRANCH   5  21
TORSDOF 7
ENDMDL
MODEL      242
REMARK 921   NORMALIZED FREE ENERGY PREDICTED BY IDOCK:   57.54 KCAL/MOL
REMARK 922        TOTAL FREE ENERGY PREDICTED BY IDOCK:   79.57 KCAL/MOL
REMARK 923 INTER-LIGAND FREE ENERGY PREDICTED BY IDOCK:   55.58 KCAL/MOL
REMARK 924 INTRA-LIGAND FREE ENERGY PREDICTED BY IDOCK:   23.99 KCAL/MOL
REMARK 927      BINDING AFFINITY PREDICTED BY RF-SCORE:    0.00 PKD
ROOT
HETATM    1  C   UNL     1      -9.792  18.272  67.614  1.00  0.00    -0.320 C  
HETATM    2  S   UNL     1     -10.820  17.569  66.331  1.00  0.00     0.205 SA 
HETATM    3  C   UNL     1     -11.794  16.584  67.456  1.00  0.00     0.833 C  
HETATM    4  C   UNL     1     -11.050  15.898  68.595  1.00  0.00    -0.337 C  
HETATM    5  CA  UNL     1      -8.349  18.657  67.170  1.00  0.00    -0.264 C  
HETATM    6  CA  UNL     1      -9.803  16.216  69.031  1.00  0.00    -0.245 C  
HETATM    7  OXT UNL     1      -8.234  16.056  70.871  1.00  0.00     2.627 OA 
HETATM    8  N   UNL     1      -9.135  17.245  68.414  1.00  0.00    -0.258 N  
HETATM    9  C   UNL     1      -9.055  15.507  70.149  1.00  0.00     0.510 C  
HETATM   10  O   UNL     1      -7.072  18.008  69.301  1.00  0.00    -0.221 OA 
HETATM   11  C   UNL     1      -7.973  17.922  68.505  1.00  0.00    -0.298 C  
HETATM   12  O   UNL     1      -9.339  14.197  70.319  1.00  0.00     1.550 OA 
ENDROOT
BRANCH   4  13
HETATM   13  C   UNL     1     -11.912  14.848  69.123  1.00  0.00    -0.313 C  
HETATM   14  C   UNL     1     -12.281  14.601  70.388  1.00  0.00    -0.391 C  
BRANCH  14  15
HETATM   15  C   UNL     1     -11.928  15.332  71.558  1.00  0.00    -0.366 A  
HETATM   16  C   UNL     1     -12.654  16.331  72.206  1.00  0.00    -0.212 A  
HETATM   17  N   UNL     1     -11.958  17.050  73.166  1.00  0.00    -0.033 NA 
HETATM   18  S   UNL     1     -10.385  15.202  72.330  1.00  0.00     3.177 SA 
HETATM   19  C   UNL     1     -14.069  16.731  71.959  1.00  0.00     4.252 C  
HETATM   20  C   UNL     1     -10.753  16.555  73.302  1.00  0.00     4.207 A  
ENDBRANCH  14  15
ENDBRANCH   4  13
BRANCH   5  21
HETATM   21  N   UNL     1      -7.906  18.171  65.824  1.00  0.00    -0.029 N  
HETATM   22  C   UNL     1      -8.524  18.111  64.587  1.00  0.00     5.671 C  
HETATM   23  O   UNL     1      -7.820  17.877  63.602  1.00  0.00    10.243 OA 
HETATM   24  H   UNL     1      -6.951  17.811  65.818  1.00  0.00     0.000 HD 
BRANCH  22  25
HETATM   25  C   UNL     1     -10.025  18.138  64.374  1.00  0.00     6.010 C  
BRANCH  25  26
HETATM   26  C   UNL     1     -10.866  16.970  64.741  1.00  0.00     0.257 A  
HETATM   27  H2  UNL     1     -11.898  13.119  66.290  1.00  0.00     0.000 HD 
HETATM   28  H1  UNL     1     -10.165  13.283  65.993  1.00  0.00     0.000 HD 
HETATM   29  C   UNL     1     -12.252  17.032  64.828  1.00  0.00     3.217 A  
HETATM   30  N   UNL     1     -10.357  15.707  65.057  1.00  0.00    -0.460 NA 
HETATM   31  S   UNL     1     -12.895  15.569  65.429  1.00  0.00     1.586 SA 
HETATM   32  N   UNL     1     -11.108  13.673  65.961  1.00  0.00    -0.293 NA 
HETATM   33  C   UNL     1     -11.311  14.913  65.484  1.00  0.00    -0.339 A  
ENDBRANCH  25  26
BRANCH  25  34
HETATM   34  N   UNL     1     -10.721  19.175  63.996  1.00  0.00     4.118 NA 
HETATM   35  H   UNL     1     -10.697  19.456  63.016  1.00  0.00     0.000 HD 
BRANCH  34  36
HETATM   36  O   UNL     1     -11.499  19.913  64.894  1.00  0.00     0.134 OA 
HETATM   37  C   UNL     1     -12.872  20.136  64.640  1.00  0.00    11.365 C  
ENDBRANCH  34  36
ENDBRANCH  25  34
ENDBRANCH  22  25
ENDBRANCH   5  21
TORSDOF 7
ENDMDL
