MODEL        1
REMARK 921   NORMALIZED FREE ENERGY PREDICTED BY IDOCK:   -7.14 KCAL/MOL
REMARK 922        TOTAL FREE ENERGY PREDICTED BY IDOCK:  -11.17 KCAL/MOL
REMARK 923 INTER-LIGAND FREE ENERGY PREDICTED BY IDOCK:  -10.06 KCAL/MOL
REMARK 924 INTRA-LIGAND FREE ENERGY PREDICTED BY IDOCK:   -1.12 KCAL/MOL
REMARK 927      BINDING AFFINITY PREDICTED BY RF-SCORE:    0.00 PKD
ROOT
HETATM    1  C   UNL     1      -9.027  10.623  62.345  1.00  0.00    -0.293 C  
HETATM    2  O   UNL     1      -9.719  11.616  63.091  1.00  0.00    -0.385 OA 
ENDROOT
BRANCH   2   3
HETATM    3  N   UNL     1     -10.840  11.031  63.689  1.00  0.00    -0.558 NA 
HETATM    4  H   UNL     1     -11.409  10.311  63.244  1.00  0.00     0.000 HD 
BRANCH   3   5
HETATM    5  C   UNL     1     -11.077  11.509  64.881  1.00  0.00    -0.215 C  
BRANCH   5   6
HETATM    6  C   UNL     1     -11.705  12.896  65.153  1.00  0.00    -0.349 C  
HETATM    7  H   UNL     1      -9.864  13.622  65.802  1.00  0.00     0.000 HD 
HETATM    8  O   UNL     1     -12.885  13.125  64.926  1.00  0.00    -0.703 OA 
HETATM    9  N   UNL     1     -10.863  13.822  65.743  1.00  0.00    -0.275 N  
BRANCH   9  10
HETATM   10  CA  UNL     1     -11.383  15.108  66.296  1.00  0.00    -0.219 C  
HETATM   11  N   UNL     1     -10.285  16.851  66.560  1.00  0.00    -0.310 N  
HETATM   12  C   UNL     1     -10.977  16.395  65.493  1.00  0.00    -0.119 C  
HETATM   13  C   UNL     1     -10.614  15.777  67.468  1.00  0.00    -0.309 C  
HETATM   14  O   UNL     1     -11.077  16.742  64.342  1.00  0.00    -1.072 OA 
HETATM   15  S   UNL     1      -9.042  15.058  67.998  1.00  0.00    -0.182 SA 
HETATM   16  C   UNL     1      -8.520  16.597  68.780  1.00  0.00    -0.255 C  
HETATM   17  C   UNL     1      -8.638  17.847  67.939  1.00  0.00    -0.252 C  
HETATM   18  CA  UNL     1      -9.483  17.919  66.869  1.00  0.00    -0.279 C  
HETATM   19  O   UNL     1     -10.780  19.636  65.816  1.00  0.00    -0.516 OA 
HETATM   20  C   UNL     1      -9.601  19.239  66.014  1.00  0.00    -0.194 C  
HETATM   21  OXT UNL     1      -8.491  19.810  65.791  1.00  0.00    -0.383 OA 
BRANCH  17  22
HETATM   22  C   UNL     1      -7.866  19.049  68.485  1.00  0.00    -0.340 C  
BRANCH  22  23
HETATM   23  N   UNL     1      -6.293  19.084  68.417  1.00  0.00    -0.224 N  
HETATM   24  C   UNL     1      -5.527  18.697  69.669  1.00  0.00    -0.215 C  
HETATM   25  C   UNL     1      -5.857  18.256  67.216  1.00  0.00    -0.138 C  
HETATM   26  C   UNL     1      -5.744  19.874  70.591  1.00  0.00    -0.326 C  
HETATM   27  C   UNL     1      -5.496  21.047  69.659  1.00  0.00    -0.318 C  
HETATM   28  C   UNL     1      -5.851  20.557  68.247  1.00  0.00    -0.283 C  
ENDBRANCH  22  23
ENDBRANCH  17  22
ENDBRANCH   9  10
ENDBRANCH   5   6
BRANCH   5  29
HETATM   29  C   UNL     1     -10.723  10.631  66.001  1.00  0.00    -0.057 A  
HETATM   30  S   UNL     1      -9.702   8.792  67.441  1.00  0.00    -0.188 SA 
HETATM   31  C   UNL     1      -9.815   9.588  65.929  1.00  0.00    -0.290 A  
HETATM   32  H2  UNL     1     -10.858   9.076  69.970  1.00  0.00     0.000 HD 
HETATM   33  H1  UNL     1     -11.925  10.460  69.763  1.00  0.00     0.000 HD 
HETATM   34  C   UNL     1     -10.846   9.889  68.096  1.00  0.00    -0.234 A  
HETATM   35  N   UNL     1     -11.244   9.808  69.374  1.00  0.00    -0.167 NA 
HETATM   36  N   UNL     1     -11.289  10.800  67.266  1.00  0.00    -0.410 NA 
ENDBRANCH   5  29
ENDBRANCH   3   5
ENDBRANCH   2   3
TORSDOF 7
ENDMDL
MODEL        2
REMARK 921   NORMALIZED FREE ENERGY PREDICTED BY IDOCK:   -6.67 KCAL/MOL
REMARK 922        TOTAL FREE ENERGY PREDICTED BY IDOCK:  -10.51 KCAL/MOL
REMARK 923 INTER-LIGAND FREE ENERGY PREDICTED BY IDOCK:   -9.49 KCAL/MOL
REMARK 924 INTRA-LIGAND FREE ENERGY PREDICTED BY IDOCK:   -1.02 KCAL/MOL
REMARK 927      BINDING AFFINITY PREDICTED BY RF-SCORE:    0.00 PKD
ROOT
HETATM    1  C   UNL     1     -11.814  10.762  69.248  1.00  0.00    -0.288 C  
HETATM    2  O   UNL     1     -12.195  11.374  68.022  1.00  0.00    -0.607 OA 
ENDROOT
BRANCH   2   3
HETATM    3  N   UNL     1     -11.435  10.819  66.986  1.00  0.00    -0.297 NA 
HETATM    4  H   UNL     1     -11.131   9.846  66.965  1.00  0.00     0.000 HD 
BRANCH   3   5
HETATM    5  C   UNL     1     -11.159  11.686  66.050  1.00  0.00    -0.270 C  
BRANCH   5   6
HETATM    6  C   UNL     1     -11.651  13.151  66.049  1.00  0.00    -0.353 C  
HETATM    7  H   UNL     1      -9.912  13.755  67.023  1.00  0.00     0.000 HD 
HETATM    8  O   UNL     1     -12.719  13.472  65.545  1.00  0.00    -0.491 OA 
HETATM    9  N   UNL     1     -10.842  14.049  66.726  1.00  0.00    -0.292 N  
BRANCH   9  10
HETATM   10  CA  UNL     1     -11.302  15.436  67.032  1.00  0.00    -0.175 C  
HETATM   11  N   UNL     1     -10.129  17.148  66.968  1.00  0.00    -0.289 N  
HETATM   12  C   UNL     1     -10.848  16.534  66.004  1.00  0.00    -0.069 C  
HETATM   13  C   UNL     1     -10.497  16.275  68.059  1.00  0.00    -0.293 C  
HETATM   14  O   UNL     1     -10.942  16.666  64.809  1.00  0.00    -0.705 OA 
HETATM   15  S   UNL     1      -8.952  15.599  68.713  1.00  0.00    -0.222 SA 
HETATM   16  C   UNL     1      -8.358  17.231  69.198  1.00  0.00     0.017 C  
HETATM   17  C   UNL     1      -8.429  18.308  68.139  1.00  0.00    -0.290 C  
HETATM   18  CA  UNL     1      -9.279  18.219  67.074  1.00  0.00    -0.274 C  
HETATM   19  O   UNL     1     -10.509  19.766  65.722  1.00  0.00    -0.511 OA 
HETATM   20  C   UNL     1      -9.346  19.362  65.990  1.00  0.00    -0.187 C  
HETATM   21  OXT UNL     1      -8.215  19.832  65.666  1.00  0.00    -0.383 OA 
BRANCH  17  22
HETATM   22  C   UNL     1      -7.602  19.556  68.454  1.00  0.00    -0.330 C  
BRANCH  22  23
HETATM   23  N   UNL     1      -6.032  19.470  68.540  1.00  0.00    -0.221 N  
HETATM   24  C   UNL     1      -5.429  18.869  69.797  1.00  0.00    -0.213 C  
HETATM   25  C   UNL     1      -5.531  18.765  67.287  1.00  0.00    -0.142 C  
HETATM   26  C   UNL     1      -5.659  19.936  70.842  1.00  0.00    -0.316 C  
HETATM   27  C   UNL     1      -5.235  21.191  70.100  1.00  0.00    -0.219 C  
HETATM   28  C   UNL     1      -5.475  20.912  68.609  1.00  0.00    -0.340 C  
ENDBRANCH  22  23
ENDBRANCH  17  22
ENDBRANCH   9  10
ENDBRANCH   5   6
BRANCH   5  29
HETATM   29  C   UNL     1     -10.311  11.194  64.958  1.00  0.00    -0.301 A  
HETATM   30  S   UNL     1      -9.062  10.947  62.750  1.00  0.00    -0.349 SA 
HETATM   31  C   UNL     1     -10.085  11.868  63.770  1.00  0.00    -0.398 A  
HETATM   32  H2  UNL     1      -7.749   8.484  62.889  1.00  0.00     0.000 HD 
HETATM   33  H1  UNL     1      -8.199   7.887  64.482  1.00  0.00     0.000 HD 
HETATM   34  C   UNL     1      -8.970   9.729  63.953  1.00  0.00    -0.243 A  
HETATM   35  N   UNL     1      -8.253   8.612  63.767  1.00  0.00    -0.162 NA 
HETATM   36  N   UNL     1      -9.641   9.973  65.051  1.00  0.00    -0.279 NA 
ENDBRANCH   5  29
ENDBRANCH   3   5
ENDBRANCH   2   3
TORSDOF 7
ENDMDL
MODEL        3
REMARK 921   NORMALIZED FREE ENERGY PREDICTED BY IDOCK:   -6.66 KCAL/MOL
REMARK 922        TOTAL FREE ENERGY PREDICTED BY IDOCK:  -10.50 KCAL/MOL
REMARK 923 INTER-LIGAND FREE ENERGY PREDICTED BY IDOCK:   -9.37 KCAL/MOL
REMARK 924 INTRA-LIGAND FREE ENERGY PREDICTED BY IDOCK:   -1.13 KCAL/MOL
REMARK 927      BINDING AFFINITY PREDICTED BY RF-SCORE:    0.00 PKD
ROOT
HETATM    1  C   UNL     1     -12.129  13.169  63.330  1.00  0.00    -0.486 C  
HETATM    2  O   UNL     1     -12.296  14.459  63.907  1.00  0.00    -0.720 OA 
ENDROOT
BRANCH   2   3
HETATM    3  N   UNL     1     -11.054  14.910  64.367  1.00  0.00    -0.645 NA 
HETATM    4  H   UNL     1     -10.264  15.115  63.756  1.00  0.00     0.000 HD 
BRANCH   3   5
HETATM    5  C   UNL     1     -11.021  15.041  65.666  1.00  0.00    -0.354 C  
BRANCH   5   6
HETATM    6  C   UNL     1     -11.662  14.043  66.657  1.00  0.00    -0.399 C  
HETATM    7  H   UNL     1     -10.185  12.638  66.227  1.00  0.00     0.000 HD 
HETATM    8  O   UNL     1     -12.660  14.329  67.305  1.00  0.00    -0.097 OA 
HETATM    9  N   UNL     1     -11.080  12.787  66.694  1.00  0.00    -0.267 N  
BRANCH   9  10
HETATM   10  CA  UNL     1     -11.732  11.645  67.401  1.00  0.00    -0.201 C  
HETATM   11  N   UNL     1     -10.829  10.406  68.802  1.00  0.00    -0.218 N  
HETATM   12  C   UNL     1     -11.476  11.583  68.950  1.00  0.00    -0.289 C  
HETATM   13  C   UNL     1     -11.032  10.260  67.379  1.00  0.00    -0.252 C  
HETATM   14  O   UNL     1     -11.622  12.355  69.865  1.00  0.00    -0.266 OA 
HETATM   15  S   UNL     1      -9.386  10.131  66.640  1.00  0.00    -0.166 SA 
HETATM   16  C   UNL     1      -9.028   8.603  67.529  1.00  0.00    -0.134 C  
HETATM   17  C   UNL     1      -9.289   8.621  69.018  1.00  0.00    -0.146 C  
HETATM   18  CA  UNL     1     -10.145   9.517  69.590  1.00  0.00    -0.212 C  
HETATM   19  O   UNL     1     -11.630   9.517  71.470  1.00  0.00    -0.357 OA 
HETATM   20  C   UNL     1     -10.413   9.507  71.144  1.00  0.00    -0.288 C  
HETATM   21  OXT UNL     1      -9.374   9.318  71.845  1.00  0.00    -0.299 OA 
BRANCH  17  22
HETATM   22  C   UNL     1      -8.647   7.462  69.783  1.00  0.00    -0.140 C  
BRANCH  22  23
HETATM   23  N   UNL     1      -9.189   5.994  69.607  1.00  0.00    -0.137 N  
HETATM   24  C   UNL     1     -10.649   5.824  69.230  1.00  0.00    -0.306 C  
HETATM   25  C   UNL     1      -8.270   5.269  68.633  1.00  0.00    -0.093 C  
HETATM   26  C   UNL     1     -11.385   6.190  70.497  1.00  0.00    -0.381 C  
HETATM   27  C   UNL     1     -10.589   5.434  71.546  1.00  0.00    -0.285 C  
HETATM   28  C   UNL     1      -9.162   5.303  70.991  1.00  0.00    -0.147 C  
ENDBRANCH  22  23
ENDBRANCH  17  22
ENDBRANCH   9  10
ENDBRANCH   5   6
BRANCH   5  29
HETATM   29  C   UNL     1     -10.303  16.217  66.169  1.00  0.00    -0.341 A  
HETATM   30  S   UNL     1      -8.827  17.788  67.530  1.00  0.00    -0.246 SA 
HETATM   31  C   UNL     1      -9.438  16.212  67.249  1.00  0.00    -0.226 A  
HETATM   32  H2  UNL     1      -9.122  20.311  66.365  1.00  0.00     0.000 HD 
HETATM   33  H1  UNL     1     -10.236  20.005  65.038  1.00  0.00     0.000 HD 
HETATM   34  C   UNL     1      -9.731  18.368  66.194  1.00  0.00    -0.229 A  
HETATM   35  N   UNL     1      -9.698  19.659  65.832  1.00  0.00    -0.405 NA 
HETATM   36  N   UNL     1     -10.441  17.467  65.561  1.00  0.00    -0.637 NA 
ENDBRANCH   5  29
ENDBRANCH   3   5
ENDBRANCH   2   3
TORSDOF 7
ENDMDL
MODEL        4
REMARK 921   NORMALIZED FREE ENERGY PREDICTED BY IDOCK:   -6.46 KCAL/MOL
REMARK 922        TOTAL FREE ENERGY PREDICTED BY IDOCK:  -10.22 KCAL/MOL
REMARK 923 INTER-LIGAND FREE ENERGY PREDICTED BY IDOCK:   -9.41 KCAL/MOL
REMARK 924 INTRA-LIGAND FREE ENERGY PREDICTED BY IDOCK:   -0.81 KCAL/MOL
REMARK 927      BINDING AFFINITY PREDICTED BY RF-SCORE:    0.00 PKD
ROOT
HETATM    1  C   UNL     1      -9.379  10.265  62.453  1.00  0.00    -0.271 C  
HETATM    2  O   UNL     1     -10.179  11.165  63.210  1.00  0.00    -0.351 OA 
ENDROOT
BRANCH   2   3
HETATM    3  N   UNL     1      -9.381  11.760  64.193  1.00  0.00    -0.448 NA 
HETATM    4  H   UNL     1      -8.468  12.175  64.007  1.00  0.00     0.000 HD 
BRANCH   3   5
HETATM    5  C   UNL     1      -9.934  11.724  65.376  1.00  0.00    -0.253 C  
BRANCH   5   6
HETATM    6  C   UNL     1     -10.846  12.835  65.943  1.00  0.00    -0.269 C  
HETATM    7  H   UNL     1      -9.752  14.282  64.920  1.00  0.00     0.000 HD 
HETATM    8  O   UNL     1     -11.790  12.581  66.680  1.00  0.00    -0.437 OA 
HETATM    9  N   UNL     1     -10.469  14.130  65.628  1.00  0.00    -0.307 N  
BRANCH   9  10
HETATM   10  CA  UNL     1     -11.089  15.309  66.302  1.00  0.00    -0.273 C  
HETATM   11  N   UNL     1     -10.169  17.140  66.641  1.00  0.00    -0.312 N  
HETATM   12  C   UNL     1     -10.870  16.686  65.579  1.00  0.00    -0.163 C  
HETATM   13  C   UNL     1     -10.329  15.975  67.481  1.00  0.00    -0.287 C  
HETATM   14  O   UNL     1     -11.073  17.099  64.464  1.00  0.00    -1.105 OA 
HETATM   15  S   UNL     1      -8.661  15.398  67.875  1.00  0.00    -0.158 SA 
HETATM   16  C   UNL     1      -8.260  16.926  68.744  1.00  0.00    -0.244 C  
HETATM   17  C   UNL     1      -8.559  18.212  68.006  1.00  0.00    -0.272 C  
HETATM   18  CA  UNL     1      -9.468  18.265  66.989  1.00  0.00    -0.274 C  
HETATM   19  O   UNL     1     -10.999  19.898  66.135  1.00  0.00    -0.319 OA 
HETATM   20  C   UNL     1      -9.774  19.620  66.243  1.00  0.00    -0.423 C  
HETATM   21  OXT UNL     1      -8.746  20.324  66.009  1.00  0.00    -0.215 OA 
BRANCH  17  22
HETATM   22  C   UNL     1      -7.887  19.450  68.602  1.00  0.00    -0.364 C  
BRANCH  22  23
HETATM   23  N   UNL     1      -6.323  19.507  68.767  1.00  0.00    -0.246 N  
HETATM   24  C   UNL     1      -5.659  20.871  68.712  1.00  0.00    -0.353 C  
HETATM   25  C   UNL     1      -5.958  18.757  70.041  1.00  0.00    -0.215 C  
HETATM   26  C   UNL     1      -5.750  21.248  67.253  1.00  0.00    -0.400 C  
HETATM   27  C   UNL     1      -5.316  19.962  66.573  1.00  0.00    -0.170 C  
HETATM   28  C   UNL     1      -5.684  18.822  67.535  1.00  0.00    -0.157 C  
ENDBRANCH  22  23
ENDBRANCH  17  22
ENDBRANCH   9  10
ENDBRANCH   5   6
BRANCH   5  29
HETATM   29  C   UNL     1      -9.655  10.524  66.172  1.00  0.00    -0.190 A  
HETATM   30  S   UNL     1      -8.613   8.837  67.773  1.00  0.00    -0.129 SA 
HETATM   31  C   UNL     1      -8.608  10.398  67.069  1.00  0.00    -0.130 A  
HETATM   32  H2  UNL     1     -10.183   6.533  67.580  1.00  0.00     0.000 HD 
HETATM   33  H1  UNL     1     -11.414   6.992  66.410  1.00  0.00     0.000 HD 
HETATM   34  C   UNL     1     -10.008   8.437  66.861  1.00  0.00    -0.271 A  
HETATM   35  N   UNL     1     -10.584   7.230  66.953  1.00  0.00    -0.324 NA 
HETATM   36  N   UNL     1     -10.463   9.388  66.084  1.00  0.00    -0.084 NA 
ENDBRANCH   5  29
ENDBRANCH   3   5
ENDBRANCH   2   3
TORSDOF 7
ENDMDL
MODEL        5
REMARK 921   NORMALIZED FREE ENERGY PREDICTED BY IDOCK:   -6.36 KCAL/MOL
REMARK 922        TOTAL FREE ENERGY PREDICTED BY IDOCK:  -10.08 KCAL/MOL
REMARK 923 INTER-LIGAND FREE ENERGY PREDICTED BY IDOCK:   -9.24 KCAL/MOL
REMARK 924 INTRA-LIGAND FREE ENERGY PREDICTED BY IDOCK:   -0.84 KCAL/MOL
REMARK 927      BINDING AFFINITY PREDICTED BY RF-SCORE:    0.00 PKD
ROOT
HETATM    1  C   UNL     1     -12.597  12.416  63.601  1.00  0.00    -0.443 C  
HETATM    2  O   UNL     1     -12.877  12.486  64.993  1.00  0.00    -0.742 OA 
ENDROOT
BRANCH   2   3
HETATM    3  N   UNL     1     -12.597  13.781  65.443  1.00  0.00    -0.552 NA 
HETATM    4  H   UNL     1     -13.190  14.589  65.252  1.00  0.00     0.000 HD 
BRANCH   3   5
HETATM    5  C   UNL     1     -11.491  13.841  66.136  1.00  0.00    -0.338 C  
BRANCH   5   6
HETATM    6  C   UNL     1     -10.570  12.630  66.409  1.00  0.00    -0.251 C  
HETATM    7  H   UNL     1     -11.565  12.253  68.200  1.00  0.00     0.000 HD 
HETATM    8  O   UNL     1      -9.695  12.295  65.622  1.00  0.00    -0.245 OA 
HETATM    9  N   UNL     1     -10.750  12.013  67.635  1.00  0.00    -0.211 N  
BRANCH   9  10
HETATM   10  CA  UNL     1      -9.779  11.002  68.150  1.00  0.00    -0.174 C  
HETATM   11  N   UNL     1     -10.257   9.120  68.887  1.00  0.00    -0.201 N  
HETATM   12  C   UNL     1      -9.997   9.537  67.628  1.00  0.00    -0.180 C  
HETATM   13  C   UNL     1     -10.026  10.382  69.552  1.00  0.00    -0.202 C  
HETATM   14  O   UNL     1     -10.089   9.030  66.538  1.00  0.00    -0.272 OA 
HETATM   15  S   UNL     1     -11.558  10.787  70.423  1.00  0.00    -0.328 SA 
HETATM   16  C   UNL     1     -11.432   9.327  71.474  1.00  0.00    -0.384 C  
HETATM   17  C   UNL     1     -11.182   8.015  70.766  1.00  0.00    -0.275 C  
HETATM   18  CA  UNL     1     -10.636   7.962  69.516  1.00  0.00    -0.219 C  
HETATM   19  O   UNL     1      -9.212   6.448  68.325  1.00  0.00    -0.115 OA 
HETATM   20  C   UNL     1     -10.371   6.581  68.803  1.00  0.00    -0.193 C  
HETATM   21  OXT UNL     1     -11.300   5.733  68.959  1.00  0.00    -0.137 OA 
BRANCH  17  22
HETATM   22  C   UNL     1     -11.438   6.776  71.626  1.00  0.00    -0.282 C  
BRANCH  22  23
HETATM   23  N   UNL     1     -10.333   6.253  72.618  1.00  0.00    -0.193 N  
HETATM   24  C   UNL     1      -9.116   5.573  72.018  1.00  0.00    -0.141 C  
HETATM   25  C   UNL     1      -9.938   7.405  73.532  1.00  0.00    -0.326 C  
HETATM   26  C   UNL     1      -9.652   4.242  71.547  1.00  0.00    -0.234 C  
HETATM   27  C   UNL     1     -10.483   3.804  72.740  1.00  0.00    -0.222 C  
HETATM   28  C   UNL     1     -10.939   5.092  73.443  1.00  0.00    -0.327 C  
ENDBRANCH  22  23
ENDBRANCH  17  22
ENDBRANCH   9  10
ENDBRANCH   5   6
BRANCH   5  29
HETATM   29  C   UNL     1     -11.135  15.167  66.653  1.00  0.00    -0.308 A  
HETATM   30  S   UNL     1     -10.815  17.205  68.150  1.00  0.00    -0.233 SA 
HETATM   31  C   UNL     1     -11.342  15.587  67.957  1.00  0.00    -0.330 A  
HETATM   32  H2  UNL     1      -9.654  19.164  66.531  1.00  0.00     0.000 HD 
HETATM   33  H1  UNL     1      -9.499  18.351  64.978  1.00  0.00     0.000 HD 
HETATM   34  C   UNL     1     -10.333  17.237  66.505  1.00  0.00    -0.308 A  
HETATM   35  N   UNL     1      -9.785  18.331  65.957  1.00  0.00    -0.525 NA 
HETATM   36  N   UNL     1     -10.532  16.128  65.839  1.00  0.00    -0.346 NA 
ENDBRANCH   5  29
ENDBRANCH   3   5
ENDBRANCH   2   3
TORSDOF 7
ENDMDL
MODEL        6
REMARK 921   NORMALIZED FREE ENERGY PREDICTED BY IDOCK:   -6.34 KCAL/MOL
REMARK 922        TOTAL FREE ENERGY PREDICTED BY IDOCK:  -10.05 KCAL/MOL
REMARK 923 INTER-LIGAND FREE ENERGY PREDICTED BY IDOCK:   -9.06 KCAL/MOL
REMARK 924 INTRA-LIGAND FREE ENERGY PREDICTED BY IDOCK:   -0.99 KCAL/MOL
REMARK 927      BINDING AFFINITY PREDICTED BY RF-SCORE:    0.00 PKD
ROOT
HETATM    1  C   UNL     1     -10.577   8.884  67.606  1.00  0.00    -0.224 C  
HETATM    2  O   UNL     1     -10.517  10.239  68.035  1.00  0.00    -0.170 OA 
ENDROOT
BRANCH   2   3
HETATM    3  N   UNL     1     -11.816  10.684  68.306  1.00  0.00    -0.786 NA 
HETATM    4  H   UNL     1     -12.591  10.605  67.648  1.00  0.00     0.000 HD 
BRANCH   3   5
HETATM    5  C   UNL     1     -11.925  11.211  69.496  1.00  0.00    -0.355 C  
BRANCH   5   6
HETATM    6  C   UNL     1     -11.809  12.724  69.791  1.00  0.00    -0.310 C  
HETATM    7  H   UNL     1     -10.320  12.910  68.347  1.00  0.00     0.000 HD 
HETATM    8  O   UNL     1     -12.516  13.274  70.624  1.00  0.00    -0.339 OA 
HETATM    9  N   UNL     1     -10.799  13.384  69.111  1.00  0.00    -0.171 N  
BRANCH   9  10
HETATM   10  CA  UNL     1     -10.397  14.776  69.473  1.00  0.00    -0.112 C  
HETATM   11  N   UNL     1      -9.954  16.301  68.134  1.00  0.00    -0.235 N  
HETATM   12  C   UNL     1     -11.130  15.914  68.676  1.00  0.00    -0.337 C  
HETATM   13  C   UNL     1      -9.108  15.365  68.838  1.00  0.00    -0.218 C  
HETATM   14  O   UNL     1     -12.285  16.200  68.476  1.00  0.00     0.067 OA 
HETATM   15  S   UNL     1      -8.247  14.404  67.571  1.00  0.00    -0.200 SA 
HETATM   16  C   UNL     1      -7.411  15.867  66.928  1.00  0.00    -0.198 C  
HETATM   17  C   UNL     1      -8.289  17.062  66.633  1.00  0.00    -0.285 C  
HETATM   18  CA  UNL     1      -9.512  17.220  67.219  1.00  0.00    -0.250 C  
HETATM   19  O   UNL     1     -10.852  19.076  67.925  1.00  0.00    -0.348 OA 
HETATM   20  C   UNL     1     -10.404  18.483  66.908  1.00  0.00    -0.397 C  
HETATM   21  OXT UNL     1     -10.406  18.825  65.687  1.00  0.00    -0.551 OA 
BRANCH  17  22
HETATM   22  C   UNL     1      -7.624  18.133  65.767  1.00  0.00    -0.035 C  
BRANCH  22  23
HETATM   23  N   UNL     1      -6.322  18.865  66.265  1.00  0.00    -0.179 N  
HETATM   24  C   UNL     1      -6.080  18.930  67.762  1.00  0.00    -0.201 C  
HETATM   25  C   UNL     1      -5.133  18.257  65.532  1.00  0.00    -0.179 C  
HETATM   26  C   UNL     1      -7.104  19.933  68.240  1.00  0.00    -0.336 C  
HETATM   27  C   UNL     1      -6.955  21.040  67.212  1.00  0.00    -0.428 C  
HETATM   28  C   UNL     1      -6.455  20.368  65.924  1.00  0.00    -0.224 C  
ENDBRANCH  22  23
ENDBRANCH  17  22
ENDBRANCH   9  10
ENDBRANCH   5   6
BRANCH   5  29
HETATM   29  C   UNL     1     -12.190  10.267  70.587  1.00  0.00    -0.329 A  
HETATM   30  S   UNL     1     -13.325   8.849  72.375  1.00  0.00    -0.407 SA 
HETATM   31  C   UNL     1     -13.446   9.978  71.093  1.00  0.00    -0.230 A  
HETATM   32  H2  UNL     1     -11.270   7.462  73.666  1.00  0.00     0.000 HD 
HETATM   33  H1  UNL     1      -9.831   8.007  72.812  1.00  0.00     0.000 HD 
HETATM   34  C   UNL     1     -11.624   8.803  72.166  1.00  0.00    -0.364 A  
HETATM   35  N   UNL     1     -10.842   8.034  72.937  1.00  0.00    -0.372 NA 
HETATM   36  N   UNL     1     -11.155   9.562  71.206  1.00  0.00    -0.361 NA 
ENDBRANCH   5  29
ENDBRANCH   3   5
ENDBRANCH   2   3
TORSDOF 7
ENDMDL
MODEL        7
REMARK 921   NORMALIZED FREE ENERGY PREDICTED BY IDOCK:   -6.25 KCAL/MOL
REMARK 922        TOTAL FREE ENERGY PREDICTED BY IDOCK:   -9.92 KCAL/MOL
REMARK 923 INTER-LIGAND FREE ENERGY PREDICTED BY IDOCK:   -8.96 KCAL/MOL
REMARK 924 INTRA-LIGAND FREE ENERGY PREDICTED BY IDOCK:   -0.96 KCAL/MOL
REMARK 927      BINDING AFFINITY PREDICTED BY RF-SCORE:    0.00 PKD
ROOT
HETATM    1  C   UNL     1     -14.067   8.869  72.352  1.00  0.00    -0.420 C  
HETATM    2  O   UNL     1     -13.030   8.791  71.382  1.00  0.00    -0.320 OA 
ENDROOT
BRANCH   2   3
HETATM    3  N   UNL     1     -11.800   8.974  72.023  1.00  0.00    -0.366 NA 
HETATM    4  H   UNL     1     -11.674   8.927  73.034  1.00  0.00     0.000 HD 
BRANCH   3   5
HETATM    5  C   UNL     1     -10.829   9.212  71.181  1.00  0.00    -0.311 C  
BRANCH   5   6
HETATM    6  C   UNL     1     -11.029   9.811  69.770  1.00  0.00    -0.256 C  
HETATM    7  H   UNL     1     -11.288  11.708  70.591  1.00  0.00     0.000 HD 
HETATM    8  O   UNL     1     -10.967   9.120  68.762  1.00  0.00    -0.114 OA 
HETATM    9  N   UNL     1     -11.364  11.154  69.738  1.00  0.00    -0.274 N  
BRANCH   9  10
HETATM   10  CA  UNL     1     -11.836  11.811  68.483  1.00  0.00    -0.303 C  
HETATM   11  N   UNL     1     -11.024  13.518  67.624  1.00  0.00    -0.259 N  
HETATM   12  C   UNL     1     -10.703  12.214  67.472  1.00  0.00    -0.232 C  
HETATM   13  C   UNL     1     -12.148  13.331  68.512  1.00  0.00    -0.221 C  
HETATM   14  O   UNL     1      -9.798  11.626  66.935  1.00  0.00    -0.194 OA 
HETATM   15  S   UNL     1     -11.771  14.266  70.014  1.00  0.00    -0.294 SA 
HETATM   16  C   UNL     1     -11.747  15.832  69.119  1.00  0.00    -0.388 C  
HETATM   17  C   UNL     1     -10.905  15.871  67.865  1.00  0.00    -0.327 C  
HETATM   18  CA  UNL     1     -10.563  14.734  67.190  1.00  0.00    -0.285 C  
HETATM   19  O   UNL     1     -10.162  14.149  64.901  1.00  0.00    -0.412 OA 
HETATM   20  C   UNL     1      -9.696  14.800  65.874  1.00  0.00    -0.323 C  
HETATM   21  OXT UNL     1      -8.743  15.635  65.926  1.00  0.00    -0.219 OA 
BRANCH  17  22
HETATM   22  C   UNL     1     -10.618  17.279  67.342  1.00  0.00    -0.303 C  
BRANCH  22  23
HETATM   23  N   UNL     1      -9.507  18.168  68.015  1.00  0.00    -0.277 N  
HETATM   24  C   UNL     1      -9.962  19.357  68.841  1.00  0.00    -0.445 C  
HETATM   25  C   UNL     1      -8.590  17.250  68.813  1.00  0.00    -0.230 C  
HETATM   26  C   UNL     1     -10.447  20.342  67.803  1.00  0.00    -0.323 C  
HETATM   27  C   UNL     1      -9.331  20.281  66.775  1.00  0.00    -0.489 C  
HETATM   28  C   UNL     1      -8.714  18.879  66.892  1.00  0.00    -0.300 C  
ENDBRANCH  22  23
ENDBRANCH  17  22
ENDBRANCH   9  10
ENDBRANCH   5   6
BRANCH   5  29
HETATM   29  C   UNL     1      -9.480   8.889  71.658  1.00  0.00    -0.281 A  
HETATM   30  S   UNL     1      -7.509   8.007  73.012  1.00  0.00    -0.132 SA 
HETATM   31  C   UNL     1      -9.202   8.132  72.784  1.00  0.00    -0.271 A  
HETATM   32  H2  UNL     1      -5.216   8.916  71.699  1.00  0.00     0.000 HD 
HETATM   33  H1  UNL     1      -5.872   9.807  70.331  1.00  0.00     0.000 HD 
HETATM   34  C   UNL     1      -7.256   8.944  71.599  1.00  0.00    -0.028 A  
HETATM   35  N   UNL     1      -6.023   9.249  71.171  1.00  0.00    -0.062 NA 
HETATM   36  N   UNL     1      -8.343   9.329  70.978  1.00  0.00    -0.306 NA 
ENDBRANCH   5  29
ENDBRANCH   3   5
ENDBRANCH   2   3
TORSDOF 7
ENDMDL
MODEL        8
REMARK 921   NORMALIZED FREE ENERGY PREDICTED BY IDOCK:   -6.23 KCAL/MOL
REMARK 922        TOTAL FREE ENERGY PREDICTED BY IDOCK:   -9.89 KCAL/MOL
REMARK 923 INTER-LIGAND FREE ENERGY PREDICTED BY IDOCK:   -9.06 KCAL/MOL
REMARK 924 INTRA-LIGAND FREE ENERGY PREDICTED BY IDOCK:   -0.83 KCAL/MOL
REMARK 927      BINDING AFFINITY PREDICTED BY RF-SCORE:    0.00 PKD
ROOT
HETATM    1  C   UNL     1     -12.477  15.505  70.474  1.00  0.00    -0.427 C  
HETATM    2  O   UNL     1     -11.648  14.548  69.824  1.00  0.00    -0.266 OA 
ENDROOT
BRANCH   2   3
HETATM    3  N   UNL     1     -12.286  14.120  68.655  1.00  0.00    -0.543 NA 
HETATM    4  H   UNL     1     -13.288  14.215  68.489  1.00  0.00     0.000 HD 
BRANCH   3   5
HETATM    5  C   UNL     1     -11.456  13.584  67.801  1.00  0.00    -0.315 C  
BRANCH   5   6
HETATM    6  C   UNL     1     -10.289  12.649  68.192  1.00  0.00    -0.234 C  
HETATM    7  H   UNL     1     -11.621  11.075  68.478  1.00  0.00     0.000 HD 
HETATM    8  O   UNL     1      -9.128  13.036  68.196  1.00  0.00    -0.196 OA 
HETATM    9  N   UNL     1     -10.659  11.383  68.613  1.00  0.00    -0.192 N  
BRANCH   9  10
HETATM   10  CA  UNL     1      -9.680  10.460  69.259  1.00  0.00    -0.214 C  
HETATM   11  N   UNL     1     -10.044   8.488  69.802  1.00  0.00    -0.192 N  
HETATM   12  C   UNL     1      -9.608   9.019  68.638  1.00  0.00    -0.153 C  
HETATM   13  C   UNL     1     -10.104   9.719  70.556  1.00  0.00    -0.224 C  
HETATM   14  O   UNL     1      -9.428   8.583  67.528  1.00  0.00    -0.144 OA 
HETATM   15  S   UNL     1     -11.811   9.881  71.131  1.00  0.00    -0.404 SA 
HETATM   16  C   UNL     1     -11.698   8.376  72.117  1.00  0.00    -0.375 C  
HETATM   17  C   UNL     1     -11.155   7.154  71.412  1.00  0.00    -0.267 C  
HETATM   18  CA  UNL     1     -10.382   7.253  70.291  1.00  0.00    -0.210 C  
HETATM   19  O   UNL     1      -8.579   6.001  69.330  1.00  0.00    -0.120 OA 
HETATM   20  C   UNL     1      -9.814   5.965  69.579  1.00  0.00    -0.169 C  
HETATM   21  OXT UNL     1     -10.641   5.006  69.512  1.00  0.00    -0.182 OA 
BRANCH  17  22
HETATM   22  C   UNL     1     -11.408   5.837  72.148  1.00  0.00    -0.258 C  
BRANCH  22  23
HETATM   23  N   UNL     1     -10.397   5.331  73.243  1.00  0.00    -0.191 N  
HETATM   24  C   UNL     1      -9.080   4.746  72.768  1.00  0.00    -0.122 C  
HETATM   25  C   UNL     1     -10.181   6.461  74.242  1.00  0.00    -0.344 C  
HETATM   26  C   UNL     1      -9.477   3.410  72.186  1.00  0.00    -0.192 C  
HETATM   27  C   UNL     1     -10.414   2.875  73.254  1.00  0.00    -0.248 C  
HETATM   28  C   UNL     1     -11.025   4.103  73.946  1.00  0.00    -0.218 C  
ENDBRANCH  22  23
ENDBRANCH  17  22
ENDBRANCH   9  10
ENDBRANCH   5   6
BRANCH   5  29
HETATM   29  C   UNL     1     -11.698  13.908  66.391  1.00  0.00    -0.383 A  
HETATM   30  S   UNL     1     -12.263  13.769  63.909  1.00  0.00    -0.244 SA 
HETATM   31  C   UNL     1     -12.128  13.003  65.435  1.00  0.00    -0.444 A  
HETATM   32  H2  UNL     1     -11.857  16.339  62.890  1.00  0.00     0.000 HD 
HETATM   33  H1  UNL     1     -11.348  17.249  64.307  1.00  0.00     0.000 HD 
HETATM   34  C   UNL     1     -11.763  15.249  64.615  1.00  0.00    -0.308 A  
HETATM   35  N   UNL     1     -11.645  16.369  63.887  1.00  0.00    -1.054 NA 
HETATM   36  N   UNL     1     -11.515  15.203  65.900  1.00  0.00    -0.229 NA 
ENDBRANCH   5  29
ENDBRANCH   3   5
ENDBRANCH   2   3
TORSDOF 7
ENDMDL
MODEL        9
REMARK 921   NORMALIZED FREE ENERGY PREDICTED BY IDOCK:   -6.22 KCAL/MOL
REMARK 922        TOTAL FREE ENERGY PREDICTED BY IDOCK:   -9.88 KCAL/MOL
REMARK 923 INTER-LIGAND FREE ENERGY PREDICTED BY IDOCK:   -8.72 KCAL/MOL
REMARK 924 INTRA-LIGAND FREE ENERGY PREDICTED BY IDOCK:   -1.16 KCAL/MOL
REMARK 927      BINDING AFFINITY PREDICTED BY RF-SCORE:    0.00 PKD
ROOT
HETATM    1  C   UNL     1      -8.879   5.647  68.265  1.00  0.00    -0.108 C  
HETATM    2  O   UNL     1      -8.880   6.749  67.365  1.00  0.00    -0.118 OA 
ENDROOT
BRANCH   2   3
HETATM    3  N   UNL     1      -8.184   7.811  67.954  1.00  0.00    -0.122 NA 
HETATM    4  H   UNL     1      -7.546   7.703  68.742  1.00  0.00     0.000 HD 
BRANCH   3   5
HETATM    5  C   UNL     1      -8.444   8.957  67.381  1.00  0.00    -0.115 C  
BRANCH   5   6
HETATM    6  C   UNL     1      -9.847   9.602  67.324  1.00  0.00    -0.175 C  
HETATM    7  H   UNL     1      -9.317  10.647  65.603  1.00  0.00     0.000 HD 
HETATM    8  O   UNL     1     -10.712   9.339  68.150  1.00  0.00    -0.213 OA 
HETATM    9  N   UNL     1     -10.023  10.551  66.332  1.00  0.00    -0.210 N  
BRANCH   9  10
HETATM   10  CA  UNL     1     -11.223  11.439  66.306  1.00  0.00    -0.161 C  
HETATM   11  N   UNL     1     -11.213  13.490  65.975  1.00  0.00    -0.294 N  
HETATM   12  C   UNL     1     -11.279  12.455  65.109  1.00  0.00    -0.315 C  
HETATM   13  C   UNL     1     -11.223  12.713  67.194  1.00  0.00    -0.300 C  
HETATM   14  O   UNL     1     -11.212  12.355  63.909  1.00  0.00    -0.353 OA 
HETATM   15  S   UNL     1      -9.714  13.149  68.089  1.00  0.00    -0.226 SA 
HETATM   16  C   UNL     1     -10.228  14.868  68.265  1.00  0.00    -0.225 C  
HETATM   17  C   UNL     1     -10.692  15.559  67.003  1.00  0.00    -0.321 C  
HETATM   18  CA  UNL     1     -11.138  14.857  65.919  1.00  0.00    -0.338 C  
HETATM   19  O   UNL     1     -12.751  15.216  64.185  1.00  0.00    -0.694 OA 
HETATM   20  C   UNL     1     -11.632  15.600  64.618  1.00  0.00    -0.249 C  
HETATM   21  OXT UNL     1     -10.917  16.594  64.289  1.00  0.00    -0.888 OA 
BRANCH  17  22
HETATM   22  C   UNL     1     -10.772  17.082  67.111  1.00  0.00    -0.177 C  
BRANCH  22  23
HETATM   23  N   UNL     1      -9.460  17.952  67.095  1.00  0.00    -0.257 N  
HETATM   24  C   UNL     1      -8.972  18.512  68.418  1.00  0.00    -0.322 C  
HETATM   25  C   UNL     1      -8.373  17.150  66.392  1.00  0.00    -0.280 C  
HETATM   26  C   UNL     1      -9.969  19.605  68.727  1.00  0.00    -0.542 C  
HETATM   27  C   UNL     1     -10.077  20.311  67.387  1.00  0.00    -0.534 C  
HETATM   28  C   UNL     1      -9.757  19.256  66.317  1.00  0.00    -0.374 C  
ENDBRANCH  22  23
ENDBRANCH  17  22
ENDBRANCH   9  10
ENDBRANCH   5   6
BRANCH   5  29
HETATM   29  C   UNL     1      -7.294   9.643  66.782  1.00  0.00    -0.091 A  
HETATM   30  S   UNL     1      -5.298  10.253  65.319  1.00  0.00    -0.105 SA 
HETATM   31  C   UNL     1      -6.578   9.178  65.692  1.00  0.00    -0.068 A  
HETATM   32  H2  UNL     1      -4.323  12.669  66.330  1.00  0.00     0.000 HD 
HETATM   33  H1  UNL     1      -5.420  13.010  67.663  1.00  0.00     0.000 HD 
HETATM   34  C   UNL     1      -5.786  11.270  66.610  1.00  0.00    -0.130 A  
HETATM   35  N   UNL     1      -5.131  12.405  66.895  1.00  0.00    -0.334 NA 
HETATM   36  N   UNL     1      -6.833  10.862  67.282  1.00  0.00    -0.079 NA 
ENDBRANCH   5  29
ENDBRANCH   3   5
ENDBRANCH   2   3
TORSDOF 7
ENDMDL
MODEL       10
REMARK 921   NORMALIZED FREE ENERGY PREDICTED BY IDOCK:   -6.22 KCAL/MOL
REMARK 922        TOTAL FREE ENERGY PREDICTED BY IDOCK:   -9.88 KCAL/MOL
REMARK 923 INTER-LIGAND FREE ENERGY PREDICTED BY IDOCK:   -9.04 KCAL/MOL
REMARK 924 INTRA-LIGAND FREE ENERGY PREDICTED BY IDOCK:   -0.84 KCAL/MOL
REMARK 927      BINDING AFFINITY PREDICTED BY RF-SCORE:    0.00 PKD
ROOT
HETATM    1  C   UNL     1     -13.284  12.106  72.012  1.00  0.00    -0.391 C  
HETATM    2  O   UNL     1     -13.197  10.688  72.085  1.00  0.00    -0.464 OA 
ENDROOT
BRANCH   2   3
HETATM    3  N   UNL     1     -13.143  10.173  70.785  1.00  0.00    -0.552 NA 
HETATM    4  H   UNL     1     -13.921  10.212  70.127  1.00  0.00     0.000 HD 
BRANCH   3   5
HETATM    5  C   UNL     1     -11.985   9.636  70.509  1.00  0.00    -0.172 C  
BRANCH   5   6
HETATM    6  C   UNL     1     -10.986  10.208  69.477  1.00  0.00    -0.256 C  
HETATM    7  H   UNL     1     -11.602  12.146  69.926  1.00  0.00     0.000 HD 
HETATM    8  O   UNL     1     -10.242   9.482  68.830  1.00  0.00    -0.184 OA 
HETATM    9  N   UNL     1     -11.054  11.577  69.281  1.00  0.00    -0.249 N  
BRANCH   9  10
HETATM   10  CA  UNL     1     -10.342  12.239  68.148  1.00  0.00    -0.216 C  
HETATM   11  N   UNL     1      -9.122  13.913  68.289  1.00  0.00    -0.189 N  
HETATM   12  C   UNL     1      -8.838  12.599  68.421  1.00  0.00    -0.119 C  
HETATM   13  C   UNL     1     -10.520  13.768  67.952  1.00  0.00    -0.246 C  
HETATM   14  O   UNL     1      -7.871  11.979  68.788  1.00  0.00    -0.113 OA 
HETATM   15  S   UNL     1     -11.443  14.702  69.195  1.00  0.00    -0.313 SA 
HETATM   16  C   UNL     1     -10.686  16.259  68.693  1.00  0.00    -0.309 C  
HETATM   17  C   UNL     1      -9.179  16.263  68.580  1.00  0.00    -0.211 C  
HETATM   18  CA  UNL     1      -8.466  15.111  68.407  1.00  0.00    -0.157 C  
HETATM   19  O   UNL     1      -6.435  14.497  67.295  1.00  0.00    -0.298 OA 
HETATM   20  C   UNL     1      -6.894  15.140  68.277  1.00  0.00    -0.117 C  
HETATM   21  OXT UNL     1      -6.325  15.945  69.074  1.00  0.00    -0.121 OA 
BRANCH  17  22
HETATM   22  C   UNL     1      -8.555  17.658  68.510  1.00  0.00    -0.285 C  
BRANCH  22  23
HETATM   23  N   UNL     1      -8.489  18.434  67.142  1.00  0.00    -0.250 N  
HETATM   24  C   UNL     1      -8.505  19.951  67.193  1.00  0.00    -0.324 C  
HETATM   25  C   UNL     1      -7.289  17.912  66.363  1.00  0.00    -0.265 C  
HETATM   26  C   UNL     1      -9.930  20.276  67.573  1.00  0.00    -0.557 C  
HETATM   27  C   UNL     1     -10.713  19.356  66.653  1.00  0.00    -0.529 C  
HETATM   28  C   UNL     1      -9.799  18.154  66.367  1.00  0.00    -0.353 C  
ENDBRANCH  22  23
ENDBRANCH  17  22
ENDBRANCH   9  10
ENDBRANCH   5   6
BRANCH   5  29
HETATM   29  C   UNL     1     -11.650   8.424  71.263  1.00  0.00    -0.283 A  
HETATM   30  S   UNL     1     -11.559   6.030  72.134  1.00  0.00    -0.256 SA 
HETATM   31  C   UNL     1     -12.187   7.170  71.021  1.00  0.00    -0.343 A  
HETATM   32  H2  UNL     1      -9.749   6.062  74.263  1.00  0.00     0.000 HD 
HETATM   33  H1  UNL     1      -9.232   7.744  74.316  1.00  0.00     0.000 HD 
HETATM   34  C   UNL     1     -10.607   7.263  72.850  1.00  0.00    -0.301 A  
HETATM   35  N   UNL     1      -9.798   7.010  73.889  1.00  0.00    -0.289 NA 
HETATM   36  N   UNL     1     -10.725   8.450  72.309  1.00  0.00    -0.327 NA 
ENDBRANCH   5  29
ENDBRANCH   3   5
ENDBRANCH   2   3
TORSDOF 7
ENDMDL
MODEL       11
REMARK 921   NORMALIZED FREE ENERGY PREDICTED BY IDOCK:   -6.21 KCAL/MOL
REMARK 922        TOTAL FREE ENERGY PREDICTED BY IDOCK:   -9.87 KCAL/MOL
REMARK 923 INTER-LIGAND FREE ENERGY PREDICTED BY IDOCK:   -9.02 KCAL/MOL
REMARK 924 INTRA-LIGAND FREE ENERGY PREDICTED BY IDOCK:   -0.85 KCAL/MOL
REMARK 927      BINDING AFFINITY PREDICTED BY RF-SCORE:    0.00 PKD
ROOT
HETATM    1  C   UNL     1     -12.407  13.065  63.473  1.00  0.00    -0.417 C  
HETATM    2  O   UNL     1     -12.723  12.801  64.835  1.00  0.00    -0.629 OA 
ENDROOT
BRANCH   2   3
HETATM    3  N   UNL     1     -12.568  13.981  65.571  1.00  0.00    -0.518 NA 
HETATM    4  H   UNL     1     -13.271  14.717  65.615  1.00  0.00     0.000 HD 
BRANCH   3   5
HETATM    5  C   UNL     1     -11.420  14.033  66.193  1.00  0.00    -0.346 C  
BRANCH   5   6
HETATM    6  C   UNL     1     -10.488  12.818  66.403  1.00  0.00    -0.250 C  
HETATM    7  H   UNL     1     -11.526  12.297  68.132  1.00  0.00     0.000 HD 
HETATM    8  O   UNL     1      -9.587  12.554  65.619  1.00  0.00    -0.203 OA 
HETATM    9  N   UNL     1     -10.693  12.110  67.575  1.00  0.00    -0.226 N  
BRANCH   9  10
HETATM   10  CA  UNL     1      -9.720  11.077  68.042  1.00  0.00    -0.172 C  
HETATM   11  N   UNL     1     -10.183   9.127  68.583  1.00  0.00    -0.199 N  
HETATM   12  C   UNL     1      -9.878   9.661  67.380  1.00  0.00    -0.171 C  
HETATM   13  C   UNL     1     -10.014  10.327  69.369  1.00  0.00    -0.233 C  
HETATM   14  O   UNL     1      -9.908   9.254  66.245  1.00  0.00    -0.251 OA 
HETATM   15  S   UNL     1     -11.593  10.619  70.200  1.00  0.00    -0.353 SA 
HETATM   16  C   UNL     1     -11.476   9.073  71.120  1.00  0.00    -0.308 C  
HETATM   17  C   UNL     1     -11.163   7.836  70.310  1.00  0.00    -0.215 C  
HETATM   18  CA  UNL     1     -10.560   7.908  69.087  1.00  0.00    -0.173 C  
HETATM   19  O   UNL     1      -9.047   6.539  67.832  1.00  0.00    -0.116 OA 
HETATM   20  C   UNL     1     -10.229   6.604  68.266  1.00  0.00    -0.171 C  
HETATM   21  OXT UNL     1     -11.143   5.726  68.301  1.00  0.00    -0.186 OA 
BRANCH  17  22
HETATM   22  C   UNL     1     -11.425   6.519  71.043  1.00  0.00    -0.336 C  
BRANCH  22  23
HETATM   23  N   UNL     1     -10.271   5.808  71.843  1.00  0.00    -0.195 N  
HETATM   24  C   UNL     1     -10.469   5.608  73.334  1.00  0.00    -0.242 C  
HETATM   25  C   UNL     1      -9.950   4.496  71.139  1.00  0.00    -0.187 C  
HETATM   26  C   UNL     1     -10.317   7.000  73.899  1.00  0.00    -0.386 C  
HETATM   27  C   UNL     1      -9.080   7.496  73.172  1.00  0.00    -0.227 C  
HETATM   28  C   UNL     1      -9.036   6.741  71.835  1.00  0.00    -0.135 C  
ENDBRANCH  22  23
ENDBRANCH  17  22
ENDBRANCH   9  10
ENDBRANCH   5   6
BRANCH   5  29
HETATM   29  C   UNL     1     -11.029  15.356  66.694  1.00  0.00    -0.275 A  
HETATM   30  S   UNL     1     -10.509  17.349  68.194  1.00  0.00    -0.388 SA 
HETATM   31  C   UNL     1     -10.991  15.714  68.031  1.00  0.00    -0.318 A  
HETATM   32  H2  UNL     1      -9.781  19.428  66.474  1.00  0.00     0.000 HD 
HETATM   33  H1  UNL     1      -9.901  18.684  64.884  1.00  0.00     0.000 HD 
HETATM   34  C   UNL     1     -10.365  17.470  66.490  1.00  0.00    -0.325 A  
HETATM   35  N   UNL     1      -9.987  18.612  65.897  1.00  0.00    -0.526 NA 
HETATM   36  N   UNL     1     -10.643  16.377  65.824  1.00  0.00    -0.341 NA 
ENDBRANCH   5  29
ENDBRANCH   3   5
ENDBRANCH   2   3
TORSDOF 7
ENDMDL
MODEL       12
REMARK 921   NORMALIZED FREE ENERGY PREDICTED BY IDOCK:   -6.19 KCAL/MOL
REMARK 922        TOTAL FREE ENERGY PREDICTED BY IDOCK:   -9.84 KCAL/MOL
REMARK 923 INTER-LIGAND FREE ENERGY PREDICTED BY IDOCK:   -8.95 KCAL/MOL
REMARK 924 INTRA-LIGAND FREE ENERGY PREDICTED BY IDOCK:   -0.89 KCAL/MOL
REMARK 927      BINDING AFFINITY PREDICTED BY RF-SCORE:    0.00 PKD
ROOT
HETATM    1  C   UNL     1     -10.170  19.647  65.974  1.00  0.00    -0.493 C  
HETATM    2  O   UNL     1     -10.899  18.552  66.514  1.00  0.00    -0.270 OA 
ENDROOT
BRANCH   2   3
HETATM    3  N   UNL     1     -10.411  17.366  65.953  1.00  0.00    -0.539 NA 
HETATM    4  H   UNL     1     -10.367  17.190  64.950  1.00  0.00     0.000 HD 
BRANCH   3   5
HETATM    5  C   UNL     1     -10.019  16.510  66.858  1.00  0.00    -0.271 C  
BRANCH   5   6
HETATM    6  C   UNL     1     -10.923  15.416  67.470  1.00  0.00    -0.315 C  
HETATM    7  H   UNL     1      -9.717  13.932  66.645  1.00  0.00     0.000 HD 
HETATM    8  O   UNL     1     -11.898  15.695  68.156  1.00  0.00    -0.286 OA 
HETATM    9  N   UNL     1     -10.602  14.116  67.118  1.00  0.00    -0.277 N  
BRANCH   9  10
HETATM   10  CA  UNL     1     -11.521  12.978  67.415  1.00  0.00    -0.332 C  
HETATM   11  N   UNL     1     -11.072  11.327  68.592  1.00  0.00    -0.211 N  
HETATM   12  C   UNL     1     -11.575  12.536  68.922  1.00  0.00    -0.318 C  
HETATM   13  C   UNL     1     -11.018  11.532  67.163  1.00  0.00    -0.286 C  
HETATM   14  O   UNL     1     -11.790  13.104  69.964  1.00  0.00    -0.321 OA 
HETATM   15  S   UNL     1      -9.293  11.284  66.678  1.00  0.00    -0.185 SA 
HETATM   16  C   UNL     1      -9.315   9.561  67.211  1.00  0.00    -0.134 C  
HETATM   17  C   UNL     1      -9.849   9.299  68.600  1.00  0.00    -0.173 C  
HETATM   18  CA  UNL     1     -10.674  10.183  69.235  1.00  0.00    -0.231 C  
HETATM   19  O   UNL     1     -12.477  10.029  70.805  1.00  0.00    -0.306 OA 
HETATM   20  C   UNL     1     -11.232   9.881  70.679  1.00  0.00    -0.344 C  
HETATM   21  OXT UNL     1     -10.379   9.368  71.464  1.00  0.00    -0.327 OA 
BRANCH  17  22
HETATM   22  C   UNL     1      -9.524   7.909  69.148  1.00  0.00    -0.155 C  
BRANCH  22  23
HETATM   23  N   UNL     1     -10.481   6.693  68.858  1.00  0.00    -0.196 N  
HETATM   24  C   UNL     1     -11.613   6.440  69.837  1.00  0.00    -0.353 C  
HETATM   25  C   UNL     1     -10.996   6.831  67.431  1.00  0.00    -0.337 C  
HETATM   26  C   UNL     1     -10.907   5.891  71.055  1.00  0.00    -0.339 C  
HETATM   27  C   UNL     1      -9.956   4.884  70.434  1.00  0.00    -0.316 C  
HETATM   28  C   UNL     1      -9.663   5.389  69.013  1.00  0.00    -0.152 C  
ENDBRANCH  22  23
ENDBRANCH  17  22
ENDBRANCH   9  10
ENDBRANCH   5   6
BRANCH   5  29
HETATM   29  C   UNL     1      -8.617  16.625  67.277  1.00  0.00    -0.191 A  
HETATM   30  S   UNL     1      -6.481  16.793  68.657  1.00  0.00    -0.174 SA 
HETATM   31  C   UNL     1      -8.182  16.607  68.591  1.00  0.00    -0.245 A  
HETATM   32  H2  UNL     1      -4.405  17.101  66.813  1.00  0.00     0.000 HD 
HETATM   33  H1  UNL     1      -5.243  17.066  65.266  1.00  0.00     0.000 HD 
HETATM   34  C   UNL     1      -6.430  16.866  66.945  1.00  0.00    -0.213 A  
HETATM   35  N   UNL     1      -5.274  17.023  66.284  1.00  0.00    -0.364 NA 
HETATM   36  N   UNL     1      -7.587  16.753  66.343  1.00  0.00    -0.296 NA 
ENDBRANCH   5  29
ENDBRANCH   3   5
ENDBRANCH   2   3
TORSDOF 7
ENDMDL
MODEL       13
REMARK 921   NORMALIZED FREE ENERGY PREDICTED BY IDOCK:   -6.19 KCAL/MOL
REMARK 922        TOTAL FREE ENERGY PREDICTED BY IDOCK:   -9.84 KCAL/MOL
REMARK 923 INTER-LIGAND FREE ENERGY PREDICTED BY IDOCK:   -8.66 KCAL/MOL
REMARK 924 INTRA-LIGAND FREE ENERGY PREDICTED BY IDOCK:   -1.18 KCAL/MOL
REMARK 927      BINDING AFFINITY PREDICTED BY RF-SCORE:    0.00 PKD
ROOT
HETATM    1  C   UNL     1      -9.156   5.712  66.402  1.00  0.00    -0.147 C  
HETATM    2  O   UNL     1      -7.918   6.392  66.565  1.00  0.00    -0.105 OA 
ENDROOT
BRANCH   2   3
HETATM    3  N   UNL     1      -7.959   7.585  65.834  1.00  0.00    -0.110 NA 
HETATM    4  H   UNL     1      -7.723   7.651  64.844  1.00  0.00     0.000 HD 
BRANCH   3   5
HETATM    5  C   UNL     1      -8.332   8.604  66.562  1.00  0.00    -0.108 C  
BRANCH   5   6
HETATM    6  C   UNL     1      -9.738   9.243  66.507  1.00  0.00    -0.240 C  
HETATM    7  H   UNL     1      -9.022  10.754  65.265  1.00  0.00     0.000 HD 
HETATM    8  O   UNL     1     -10.694   8.748  67.089  1.00  0.00    -0.271 OA 
HETATM    9  N   UNL     1      -9.815  10.448  65.829  1.00  0.00    -0.224 N  
BRANCH   9  10
HETATM   10  CA  UNL     1     -11.033  11.308  65.904  1.00  0.00    -0.157 C  
HETATM   11  N   UNL     1     -11.079  13.373  65.683  1.00  0.00    -0.285 N  
HETATM   12  C   UNL     1     -11.164  12.384  64.766  1.00  0.00    -0.310 C  
HETATM   13  C   UNL     1     -11.019  12.533  66.857  1.00  0.00    -0.257 C  
HETATM   14  O   UNL     1     -11.149  12.348  63.561  1.00  0.00    -0.435 OA 
HETATM   15  S   UNL     1      -9.479  12.955  67.706  1.00  0.00    -0.209 SA 
HETATM   16  C   UNL     1     -10.019  14.651  67.997  1.00  0.00    -0.220 C  
HETATM   17  C   UNL     1     -10.555  15.396  66.796  1.00  0.00    -0.309 C  
HETATM   18  CA  UNL     1     -11.035  14.743  65.697  1.00  0.00    -0.344 C  
HETATM   19  O   UNL     1     -12.732  15.155  64.057  1.00  0.00    -0.746 OA 
HETATM   20  C   UNL     1     -11.602  15.541  64.461  1.00  0.00    -0.283 C  
HETATM   21  OXT UNL     1     -10.924  16.567  64.154  1.00  0.00    -0.770 OA 
BRANCH  17  22
HETATM   22  C   UNL     1     -10.661  16.909  66.989  1.00  0.00    -0.230 C  
BRANCH  22  23
HETATM   23  N   UNL     1      -9.362  17.797  67.056  1.00  0.00    -0.252 N  
HETATM   24  C   UNL     1      -8.937  18.319  68.416  1.00  0.00    -0.309 C  
HETATM   25  C   UNL     1      -8.236  17.033  66.372  1.00  0.00    -0.291 C  
HETATM   26  C   UNL     1      -9.961  19.387  68.719  1.00  0.00    -0.522 C  
HETATM   27  C   UNL     1     -10.025  20.137  67.400  1.00  0.00    -0.570 C  
HETATM   28  C   UNL     1      -9.646  19.122  66.310  1.00  0.00    -0.348 C  
ENDBRANCH  22  23
ENDBRANCH  17  22
ENDBRANCH   9  10
ENDBRANCH   5   6
BRANCH   5  29
HETATM   29  C   UNL     1      -7.320   9.129  67.486  1.00  0.00    -0.084 A  
HETATM   30  S   UNL     1      -5.144   9.971  68.511  1.00  0.00    -0.035 SA 
HETATM   31  C   UNL     1      -6.005   9.397  67.147  1.00  0.00    -0.049 A  
HETATM   32  H2  UNL     1      -5.723  10.506  71.192  1.00  0.00     0.000 HD 
HETATM   33  H1  UNL     1      -7.430  10.099  71.316  1.00  0.00     0.000 HD 
HETATM   34  C   UNL     1      -6.570   9.845  69.455  1.00  0.00    -0.051 A  
HETATM   35  N   UNL     1      -6.582  10.174  70.755  1.00  0.00    -0.313 NA 
HETATM   36  N   UNL     1      -7.630   9.416  68.817  1.00  0.00    -0.078 NA 
ENDBRANCH   5  29
ENDBRANCH   3   5
ENDBRANCH   2   3
TORSDOF 7
ENDMDL
MODEL       14
REMARK 921   NORMALIZED FREE ENERGY PREDICTED BY IDOCK:   -6.18 KCAL/MOL
REMARK 922        TOTAL FREE ENERGY PREDICTED BY IDOCK:   -9.83 KCAL/MOL
REMARK 923 INTER-LIGAND FREE ENERGY PREDICTED BY IDOCK:   -9.29 KCAL/MOL
REMARK 924 INTRA-LIGAND FREE ENERGY PREDICTED BY IDOCK:   -0.54 KCAL/MOL
REMARK 927      BINDING AFFINITY PREDICTED BY RF-SCORE:    0.00 PKD
ROOT
HETATM    1  C   UNL     1     -11.243   8.596  69.737  1.00  0.00     0.016 C  
HETATM    2  O   UNL     1     -10.796   9.862  69.269  1.00  0.00    -0.218 OA 
ENDROOT
BRANCH   2   3
HETATM    3  N   UNL     1     -11.852  10.496  68.605  1.00  0.00    -0.716 NA 
HETATM    4  H   UNL     1     -12.795  10.113  68.544  1.00  0.00     0.000 HD 
BRANCH   3   5
HETATM    5  C   UNL     1     -11.495  11.634  68.071  1.00  0.00    -0.315 C  
BRANCH   5   6
HETATM    6  C   UNL     1     -11.239  12.929  68.874  1.00  0.00    -0.279 C  
HETATM    7  H   UNL     1      -9.932  13.607  67.401  1.00  0.00     0.000 HD 
HETATM    8  O   UNL     1     -11.798  13.147  69.941  1.00  0.00    -0.317 OA 
HETATM    9  N   UNL     1     -10.279  13.775  68.345  1.00  0.00    -0.244 N  
BRANCH   9  10
HETATM   10  CA  UNL     1      -9.741  14.928  69.126  1.00  0.00    -0.183 C  
HETATM   11  N   UNL     1      -9.456  16.856  68.409  1.00  0.00    -0.250 N  
HETATM   12  C   UNL     1     -10.538  16.273  68.971  1.00  0.00    -0.286 C  
HETATM   13  C   UNL     1      -8.554  15.735  68.534  1.00  0.00    -0.183 C  
HETATM   14  O   UNL     1     -11.691  16.595  69.113  1.00  0.00    -0.012 OA 
HETATM   15  S   UNL     1      -7.987  15.347  66.861  1.00  0.00    -0.129 SA 
HETATM   16  C   UNL     1      -7.197  16.957  66.678  1.00  0.00    -0.259 C  
HETATM   17  C   UNL     1      -8.043  18.160  67.027  1.00  0.00    -0.239 C  
HETATM   18  CA  UNL     1      -9.132  18.063  67.845  1.00  0.00    -0.268 C  
HETATM   19  O   UNL     1     -10.217  19.486  69.438  1.00  0.00    -0.291 OA 
HETATM   20  C   UNL     1      -9.992  19.334  68.207  1.00  0.00    -0.410 C  
HETATM   21  OXT UNL     1     -10.191  20.118  67.231  1.00  0.00    -0.413 OA 
BRANCH  17  22
HETATM   22  C   UNL     1      -7.483  19.492  66.525  1.00  0.00    -0.259 C  
BRANCH  22  23
HETATM   23  N   UNL     1      -6.057  19.979  66.982  1.00  0.00    -0.178 N  
HETATM   24  C   UNL     1      -5.239  19.042  67.851  1.00  0.00    -0.168 C  
HETATM   25  C   UNL     1      -5.287  20.408  65.740  1.00  0.00    -0.174 C  
HETATM   26  C   UNL     1      -5.941  19.098  69.187  1.00  0.00    -0.259 C  
HETATM   27  C   UNL     1      -6.160  20.590  69.359  1.00  0.00    -0.339 C  
HETATM   28  C   UNL     1      -6.244  21.178  67.942  1.00  0.00    -0.330 C  
ENDBRANCH  22  23
ENDBRANCH  17  22
ENDBRANCH   9  10
ENDBRANCH   5   6
BRANCH   5  29
HETATM   29  C   UNL     1     -11.324  11.626  66.614  1.00  0.00    -0.270 A  
HETATM   30  S   UNL     1     -10.423  11.263  64.257  1.00  0.00    -0.375 SA 
HETATM   31  C   UNL     1     -10.270  11.025  65.946  1.00  0.00    -0.254 A  
HETATM   32  H2  UNL     1     -12.239  12.521  62.546  1.00  0.00     0.000 HD 
HETATM   33  H1  UNL     1     -13.448  13.159  63.654  1.00  0.00     0.000 HD 
HETATM   34  C   UNL     1     -11.881  12.127  64.518  1.00  0.00    -0.343 A  
HETATM   35  N   UNL     1     -12.581  12.645  63.499  1.00  0.00    -0.740 NA 
HETATM   36  N   UNL     1     -12.252  12.237  65.769  1.00  0.00    -0.603 NA 
ENDBRANCH   5  29
ENDBRANCH   3   5
ENDBRANCH   2   3
TORSDOF 7
ENDMDL
MODEL       15
REMARK 921   NORMALIZED FREE ENERGY PREDICTED BY IDOCK:   -6.18 KCAL/MOL
REMARK 922        TOTAL FREE ENERGY PREDICTED BY IDOCK:   -9.83 KCAL/MOL
REMARK 923 INTER-LIGAND FREE ENERGY PREDICTED BY IDOCK:   -8.71 KCAL/MOL
REMARK 924 INTRA-LIGAND FREE ENERGY PREDICTED BY IDOCK:   -1.12 KCAL/MOL
REMARK 927      BINDING AFFINITY PREDICTED BY RF-SCORE:    0.00 PKD
ROOT
HETATM    1  C   UNL     1      -7.572   9.928  69.381  1.00  0.00    -0.113 C  
HETATM    2  O   UNL     1      -7.840   8.783  68.581  1.00  0.00    -0.099 OA 
ENDROOT
BRANCH   2   3
HETATM    3  N   UNL     1      -7.518   9.078  67.252  1.00  0.00    -0.084 NA 
HETATM    4  H   UNL     1      -6.638   9.504  66.962  1.00  0.00     0.000 HD 
BRANCH   3   5
HETATM    5  C   UNL     1      -8.472   8.748  66.422  1.00  0.00    -0.121 C  
BRANCH   5   6
HETATM    6  C   UNL     1      -9.878   9.391  66.413  1.00  0.00    -0.269 C  
HETATM    7  H   UNL     1      -9.239  10.812  65.031  1.00  0.00     0.000 HD 
HETATM    8  O   UNL     1     -10.796   8.942  67.085  1.00  0.00    -0.209 OA 
HETATM    9  N   UNL     1      -9.995  10.548  65.662  1.00  0.00    -0.254 N  
BRANCH   9  10
HETATM   10  CA  UNL     1     -11.204  11.419  65.756  1.00  0.00    -0.090 C  
HETATM   11  N   UNL     1     -11.228  13.489  65.585  1.00  0.00    -0.292 N  
HETATM   12  C   UNL     1     -11.321  12.524  64.644  1.00  0.00    -0.318 C  
HETATM   13  C   UNL     1     -11.179  12.621  66.739  1.00  0.00    -0.300 C  
HETATM   14  O   UNL     1     -11.304  12.517  63.439  1.00  0.00    -0.466 OA 
HETATM   15  S   UNL     1      -9.637  13.006  67.601  1.00  0.00    -0.214 SA 
HETATM   16  C   UNL     1     -10.161  14.699  67.932  1.00  0.00    -0.225 C  
HETATM   17  C   UNL     1     -10.686  15.479  66.748  1.00  0.00    -0.305 C  
HETATM   18  CA  UNL     1     -11.170  14.858  65.633  1.00  0.00    -0.347 C  
HETATM   19  O   UNL     1     -12.859  15.328  64.000  1.00  0.00    -0.613 OA 
HETATM   20  C   UNL     1     -11.726  15.692  64.415  1.00  0.00    -0.218 C  
HETATM   21  OXT UNL     1     -11.037  16.718  64.135  1.00  0.00    -1.061 OA 
BRANCH  17  22
HETATM   22  C   UNL     1     -10.776  16.988  66.978  1.00  0.00    -0.149 C  
BRANCH  22  23
HETATM   23  N   UNL     1      -9.469  17.860  67.071  1.00  0.00    -0.265 N  
HETATM   24  C   UNL     1      -9.025  18.317  68.448  1.00  0.00    -0.309 C  
HETATM   25  C   UNL     1      -8.357  17.118  66.341  1.00  0.00    -0.280 C  
HETATM   26  C   UNL     1     -10.036  19.379  68.810  1.00  0.00    -0.522 C  
HETATM   27  C   UNL     1     -10.106  20.188  67.526  1.00  0.00    -0.549 C  
HETATM   28  C   UNL     1      -9.748  19.221  66.388  1.00  0.00    -0.374 C  
ENDBRANCH  22  23
ENDBRANCH  17  22
ENDBRANCH   9  10
ENDBRANCH   5   6
BRANCH   5  29
HETATM   29  C   UNL     1      -8.133   7.706  65.447  1.00  0.00    -0.128 A  
HETATM   30  S   UNL     1      -7.364   6.468  63.356  1.00  0.00    -0.074 SA 
HETATM   31  C   UNL     1      -7.584   7.943  64.198  1.00  0.00    -0.112 A  
HETATM   32  H2  UNL     1      -7.811   3.758  63.867  1.00  0.00     0.000 HD 
HETATM   33  H1  UNL     1      -8.477   3.768  65.496  1.00  0.00     0.000 HD 
HETATM   34  C   UNL     1      -7.990   5.613  64.703  1.00  0.00    -0.120 A  
HETATM   35  N   UNL     1      -8.104   4.277  64.695  1.00  0.00    -0.090 NA 
HETATM   36  N   UNL     1      -8.339   6.353  65.726  1.00  0.00    -0.140 NA 
ENDBRANCH   5  29
ENDBRANCH   3   5
ENDBRANCH   2   3
TORSDOF 7
ENDMDL
MODEL       16
REMARK 921   NORMALIZED FREE ENERGY PREDICTED BY IDOCK:   -6.18 KCAL/MOL
REMARK 922        TOTAL FREE ENERGY PREDICTED BY IDOCK:   -9.82 KCAL/MOL
REMARK 923 INTER-LIGAND FREE ENERGY PREDICTED BY IDOCK:   -8.57 KCAL/MOL
REMARK 924 INTRA-LIGAND FREE ENERGY PREDICTED BY IDOCK:   -1.26 KCAL/MOL
REMARK 927      BINDING AFFINITY PREDICTED BY RF-SCORE:    0.00 PKD
ROOT
HETATM    1  C   UNL     1     -12.114  15.863  71.405  1.00  0.00    -0.452 C  
HETATM    2  O   UNL     1     -11.371  16.312  70.279  1.00  0.00    -0.355 OA 
ENDROOT
BRANCH   2   3
HETATM    3  N   UNL     1     -12.031  15.907  69.113  1.00  0.00    -0.471 NA 
HETATM    4  H   UNL     1     -12.919  16.300  68.799  1.00  0.00     0.000 HD 
BRANCH   3   5
HETATM    5  C   UNL     1     -11.385  14.970  68.472  1.00  0.00    -0.303 C  
BRANCH   5   6
HETATM    6  C   UNL     1     -11.904  13.526  68.287  1.00  0.00    -0.366 C  
HETATM    7  H   UNL     1     -11.914  13.246  70.351  1.00  0.00     0.000 HD 
HETATM    8  O   UNL     1     -12.137  13.062  67.179  1.00  0.00    -0.362 OA 
HETATM    9  N   UNL     1     -12.005  12.779  69.448  1.00  0.00    -0.291 N  
BRANCH   9  10
HETATM   10  CA  UNL     1     -12.243  11.306  69.410  1.00  0.00    -0.247 C  
HETATM   11  N   UNL     1     -11.204   9.876  70.501  1.00  0.00    -0.305 N  
HETATM   12  C   UNL     1     -12.302  10.600  70.812  1.00  0.00    -0.376 C  
HETATM   13  C   UNL     1     -11.036  10.365  69.151  1.00  0.00    -0.241 C  
HETATM   14  O   UNL     1     -12.940  10.771  71.821  1.00  0.00    -0.446 OA 
HETATM   15  S   UNL     1      -9.377  11.082  69.072  1.00  0.00    -0.023 SA 
HETATM   16  C   UNL     1      -8.596   9.494  69.420  1.00  0.00    -0.159 C  
HETATM   17  C   UNL     1      -9.133   8.734  70.611  1.00  0.00    -0.221 C  
HETATM   18  CA  UNL     1     -10.383   8.963  71.110  1.00  0.00    -0.268 C  
HETATM   19  O   UNL     1     -12.074   7.648  72.183  1.00  0.00    -0.297 OA 
HETATM   20  C   UNL     1     -10.928   8.147  72.345  1.00  0.00    -0.345 C  
HETATM   21  OXT UNL     1     -10.070   7.961  73.259  1.00  0.00    -0.313 OA 
BRANCH  17  22
HETATM   22  C   UNL     1      -8.232   7.594  71.089  1.00  0.00    -0.100 C  
BRANCH  22  23
HETATM   23  N   UNL     1      -8.051   6.300  70.211  1.00  0.00    -0.114 N  
HETATM   24  C   UNL     1      -9.163   5.947  69.241  1.00  0.00    -0.122 C  
HETATM   25  C   UNL     1      -6.703   6.393  69.509  1.00  0.00    -0.053 C  
HETATM   26  C   UNL     1     -10.274   5.461  70.141  1.00  0.00    -0.342 C  
HETATM   27  C   UNL     1      -9.525   4.542  71.089  1.00  0.00    -0.226 C  
HETATM   28  C   UNL     1      -8.084   5.072  71.153  1.00  0.00    -0.109 C  
ENDBRANCH  22  23
ENDBRANCH  17  22
ENDBRANCH   9  10
ENDBRANCH   5   6
BRANCH   5  29
HETATM   29  C   UNL     1     -10.096  15.368  67.896  1.00  0.00    -0.226 A  
HETATM   30  S   UNL     1      -7.622  15.513  67.300  1.00  0.00    -0.220 SA 
HETATM   31  C   UNL     1      -8.893  14.727  68.137  1.00  0.00    -0.170 A  
HETATM   32  H2  UNL     1      -7.378  17.711  65.592  1.00  0.00     0.000 HD 
HETATM   33  H1  UNL     1      -9.033  18.293  65.459  1.00  0.00     0.000 HD 
HETATM   34  C   UNL     1      -8.748  16.636  66.659  1.00  0.00    -0.246 A  
HETATM   35  N   UNL     1      -8.364  17.625  65.840  1.00  0.00    -0.546 NA 
HETATM   36  N   UNL     1      -9.993  16.453  67.023  1.00  0.00    -0.255 NA 
ENDBRANCH   5  29
ENDBRANCH   3   5
ENDBRANCH   2   3
TORSDOF 7
ENDMDL
MODEL       17
REMARK 921   NORMALIZED FREE ENERGY PREDICTED BY IDOCK:   -6.18 KCAL/MOL
REMARK 922        TOTAL FREE ENERGY PREDICTED BY IDOCK:   -9.82 KCAL/MOL
REMARK 923 INTER-LIGAND FREE ENERGY PREDICTED BY IDOCK:   -8.65 KCAL/MOL
REMARK 924 INTRA-LIGAND FREE ENERGY PREDICTED BY IDOCK:   -1.17 KCAL/MOL
REMARK 927      BINDING AFFINITY PREDICTED BY RF-SCORE:    0.00 PKD
ROOT
HETATM    1  C   UNL     1     -12.670  13.918  65.443  1.00  0.00    -0.490 C  
HETATM    2  O   UNL     1     -11.739  14.658  66.223  1.00  0.00    -0.370 OA 
ENDROOT
BRANCH   2   3
HETATM    3  N   UNL     1     -12.267  14.835  67.507  1.00  0.00    -0.514 NA 
HETATM    4  H   UNL     1     -13.150  15.309  67.696  1.00  0.00     0.000 HD 
BRANCH   3   5
HETATM    5  C   UNL     1     -11.503  14.325  68.436  1.00  0.00    -0.301 C  
BRANCH   5   6
HETATM    6  C   UNL     1     -10.309  13.383  68.160  1.00  0.00    -0.247 C  
HETATM    7  H   UNL     1     -11.611  11.776  67.914  1.00  0.00     0.000 HD 
HETATM    8  O   UNL     1      -9.155  13.791  68.149  1.00  0.00    -0.183 OA 
HETATM    9  N   UNL     1     -10.632  12.045  68.013  1.00  0.00    -0.201 N  
BRANCH   9  10
HETATM   10  CA  UNL     1      -9.580  10.986  67.998  1.00  0.00    -0.170 C  
HETATM   11  N   UNL     1      -9.916   8.936  68.029  1.00  0.00    -0.169 N  
HETATM   12  C   UNL     1      -9.835   9.803  66.995  1.00  0.00    -0.193 C  
HETATM   13  C   UNL     1      -9.625   9.879  69.085  1.00  0.00    -0.199 C  
HETATM   14  O   UNL     1     -10.060   9.728  65.813  1.00  0.00    -0.293 OA 
HETATM   15  S   UNL     1     -11.035   9.828  70.216  1.00  0.00    -0.319 SA 
HETATM   16  C   UNL     1     -10.738   8.097  70.623  1.00  0.00    -0.224 C  
HETATM   17  C   UNL     1     -10.558   7.157  69.453  1.00  0.00    -0.246 C  
HETATM   18  CA  UNL     1     -10.182   7.605  68.219  1.00  0.00    -0.195 C  
HETATM   19  O   UNL     1      -8.899   6.736  66.392  1.00  0.00    -0.135 OA 
HETATM   20  C   UNL     1      -9.986   6.604  67.016  1.00  0.00    -0.169 C  
HETATM   21  OXT UNL     1     -10.868   5.697  66.951  1.00  0.00    -0.286 OA 
BRANCH  17  22
HETATM   22  C   UNL     1     -10.671   5.674  69.812  1.00  0.00    -0.331 C  
BRANCH  22  23
HETATM   23  N   UNL     1      -9.595   4.995  70.740  1.00  0.00    -0.168 N  
HETATM   24  C   UNL     1      -8.165   5.492  70.639  1.00  0.00    -0.116 C  
HETATM   25  C   UNL     1     -10.108   5.053  72.173  1.00  0.00    -0.196 C  
HETATM   26  C   UNL     1      -7.697   4.949  69.309  1.00  0.00    -0.074 C  
HETATM   27  C   UNL     1      -8.195   3.516  69.369  1.00  0.00    -0.069 C  
HETATM   28  C   UNL     1      -9.427   3.526  70.286  1.00  0.00    -0.183 C  
ENDBRANCH  22  23
ENDBRANCH  17  22
ENDBRANCH   9  10
ENDBRANCH   5   6
BRANCH   5  29
HETATM   29  C   UNL     1     -11.830  14.715  69.812  1.00  0.00    -0.316 A  
HETATM   30  S   UNL     1     -11.997  15.963  72.028  1.00  0.00    -0.556 SA 
HETATM   31  C   UNL     1     -11.436  15.900  70.411  1.00  0.00    -0.378 A  
HETATM   32  H2  UNL     1     -13.489  14.313  73.720  1.00  0.00     0.000 HD 
HETATM   33  H1  UNL     1     -13.854  12.928  72.699  1.00  0.00     0.000 HD 
HETATM   34  C   UNL     1     -12.738  14.430  71.824  1.00  0.00    -0.351 A  
HETATM   35  N   UNL     1     -13.414  13.840  72.820  1.00  0.00    -0.666 NA 
HETATM   36  N   UNL     1     -12.598  13.892  70.638  1.00  0.00    -0.343 NA 
ENDBRANCH   5  29
ENDBRANCH   3   5
ENDBRANCH   2   3
TORSDOF 7
ENDMDL
MODEL       18
REMARK 921   NORMALIZED FREE ENERGY PREDICTED BY IDOCK:   -6.16 KCAL/MOL
REMARK 922        TOTAL FREE ENERGY PREDICTED BY IDOCK:   -9.80 KCAL/MOL
REMARK 923 INTER-LIGAND FREE ENERGY PREDICTED BY IDOCK:   -8.54 KCAL/MOL
REMARK 924 INTRA-LIGAND FREE ENERGY PREDICTED BY IDOCK:   -1.26 KCAL/MOL
REMARK 927      BINDING AFFINITY PREDICTED BY RF-SCORE:    0.00 PKD
ROOT
HETATM    1  C   UNL     1     -10.626  17.625  67.734  1.00  0.00    -0.378 C  
HETATM    2  O   UNL     1     -10.837  16.339  67.164  1.00  0.00    -0.290 OA 
ENDROOT
BRANCH   2   3
HETATM    3  N   UNL     1     -11.818  15.673  67.907  1.00  0.00    -0.277 NA 
HETATM    4  H   UNL     1     -12.820  15.809  67.774  1.00  0.00     0.000 HD 
BRANCH   3   5
HETATM    5  C   UNL     1     -11.307  14.857  68.791  1.00  0.00    -0.287 C  
BRANCH   5   6
HETATM    6  C   UNL     1     -10.159  13.865  68.497  1.00  0.00    -0.234 C  
HETATM    7  H   UNL     1     -11.535  12.424  67.890  1.00  0.00     0.000 HD 
HETATM    8  O   UNL     1      -8.985  14.171  68.658  1.00  0.00    -0.187 OA 
HETATM    9  N   UNL     1     -10.557  12.592  68.123  1.00  0.00    -0.221 N  
BRANCH   9  10
HETATM   10  CA  UNL     1      -9.586  11.460  68.054  1.00  0.00    -0.183 C  
HETATM   11  N   UNL     1     -10.072   9.442  68.017  1.00  0.00    -0.181 N  
HETATM   12  C   UNL     1      -9.940  10.337  67.014  1.00  0.00    -0.201 C  
HETATM   13  C   UNL     1      -9.699  10.321  69.101  1.00  0.00    -0.217 C  
HETATM   14  O   UNL     1     -10.185  10.322  65.833  1.00  0.00    -0.254 OA 
HETATM   15  S   UNL     1     -11.095  10.332  70.251  1.00  0.00    -0.317 SA 
HETATM   16  C   UNL     1     -10.922   8.570  70.592  1.00  0.00    -0.239 C  
HETATM   17  C   UNL     1     -10.826   7.663  69.386  1.00  0.00    -0.136 C  
HETATM   18  CA  UNL     1     -10.433   8.127  68.164  1.00  0.00    -0.170 C  
HETATM   19  O   UNL     1      -9.240   7.234  66.288  1.00  0.00    -0.168 OA 
HETATM   20  C   UNL     1     -10.326   7.160  66.923  1.00  0.00    -0.279 C  
HETATM   21  OXT UNL     1     -11.274   6.322  66.839  1.00  0.00    -0.335 OA 
BRANCH  17  22
HETATM   22  C   UNL     1     -11.043   6.181  69.694  1.00  0.00    -0.419 C  
BRANCH  22  23
HETATM   23  N   UNL     1     -10.005   5.389  70.574  1.00  0.00    -0.205 N  
HETATM   24  C   UNL     1      -8.582   5.912  70.623  1.00  0.00    -0.133 C  
HETATM   25  C   UNL     1     -10.594   5.235  71.970  1.00  0.00    -0.216 C  
HETATM   26  C   UNL     1      -8.034   5.570  69.258  1.00  0.00    -0.095 C  
HETATM   27  C   UNL     1      -8.505   4.138  69.086  1.00  0.00    -0.098 C  
HETATM   28  C   UNL     1      -9.784   4.002  69.926  1.00  0.00    -0.193 C  
ENDBRANCH  22  23
ENDBRANCH  17  22
ENDBRANCH   9  10
ENDBRANCH   5   6
BRANCH   5  29
HETATM   29  C   UNL     1     -11.883  14.938  70.137  1.00  0.00    -0.308 A  
HETATM   30  S   UNL     1     -12.459  15.656  72.514  1.00  0.00    -0.477 SA 
HETATM   31  C   UNL     1     -11.609  15.938  71.054  1.00  0.00    -0.424 A  
HETATM   32  H2  UNL     1     -14.236  13.729  73.482  1.00  0.00     0.000 HD 
HETATM   33  H1  UNL     1     -14.404  12.627  72.120  1.00  0.00     0.000 HD 
HETATM   34  C   UNL     1     -13.147  14.241  71.832  1.00  0.00    -0.365 A  
HETATM   35  N   UNL     1     -13.995  13.469  72.526  1.00  0.00    -0.766 NA 
HETATM   36  N   UNL     1     -12.790  13.981  70.599  1.00  0.00    -0.292 NA 
ENDBRANCH   5  29
ENDBRANCH   3   5
ENDBRANCH   2   3
TORSDOF 7
ENDMDL
MODEL       19
REMARK 921   NORMALIZED FREE ENERGY PREDICTED BY IDOCK:   -6.15 KCAL/MOL
REMARK 922        TOTAL FREE ENERGY PREDICTED BY IDOCK:   -9.79 KCAL/MOL
REMARK 923 INTER-LIGAND FREE ENERGY PREDICTED BY IDOCK:   -9.25 KCAL/MOL
REMARK 924 INTRA-LIGAND FREE ENERGY PREDICTED BY IDOCK:   -0.54 KCAL/MOL
REMARK 927      BINDING AFFINITY PREDICTED BY RF-SCORE:    0.00 PKD
ROOT
HETATM    1  C   UNL     1     -12.620  15.931  73.761  1.00  0.00    -0.609 C  
HETATM    2  O   UNL     1     -11.615  15.650  72.795  1.00  0.00    -0.444 OA 
ENDROOT
BRANCH   2   3
HETATM    3  N   UNL     1     -11.952  16.288  71.596  1.00  0.00    -0.656 NA 
HETATM    4  H   UNL     1     -12.175  17.281  71.526  1.00  0.00     0.000 HD 
BRANCH   3   5
HETATM    5  C   UNL     1     -11.951  15.471  70.577  1.00  0.00    -0.371 C  
BRANCH   5   6
HETATM    6  C   UNL     1     -12.602  14.069  70.586  1.00  0.00    -0.344 C  
HETATM    7  H   UNL     1     -10.846  13.229  69.845  1.00  0.00     0.000 HD 
HETATM    8  O   UNL     1     -13.748  13.893  70.977  1.00  0.00    -0.128 OA 
HETATM    9  N   UNL     1     -11.830  13.054  70.046  1.00  0.00    -0.314 N  
BRANCH   9  10
HETATM   10  CA  UNL     1     -12.407  11.709  69.751  1.00  0.00    -0.133 C  
HETATM   11  N   UNL     1     -11.612   9.886  70.350  1.00  0.00    -0.275 N  
HETATM   12  C   UNL     1     -12.470  10.724  70.974  1.00  0.00    -0.420 C  
HETATM   13  C   UNL     1     -11.489  10.630  69.118  1.00  0.00    -0.280 C  
HETATM   14  O   UNL     1     -12.933  10.782  72.086  1.00  0.00    -0.424 OA 
HETATM   15  S   UNL     1      -9.729  10.996  68.918  1.00  0.00    -0.132 SA 
HETATM   16  C   UNL     1      -9.304   9.247  68.810  1.00  0.00    -0.139 C  
HETATM   17  C   UNL     1      -9.865   8.355  69.894  1.00  0.00    -0.186 C  
HETATM   18  CA  UNL     1     -10.963   8.710  70.624  1.00  0.00    -0.240 C  
HETATM   19  O   UNL     1     -12.781   7.552  71.668  1.00  0.00    -0.331 OA 
HETATM   20  C   UNL     1     -11.540   7.757  71.740  1.00  0.00    -0.272 C  
HETATM   21  OXT UNL     1     -10.651   7.196  72.448  1.00  0.00    -0.210 OA 
BRANCH  17  22
HETATM   22  C   UNL     1      -9.205   6.978  69.981  1.00  0.00    -0.148 C  
BRANCH  22  23
HETATM   23  N   UNL     1      -9.829   5.746  69.225  1.00  0.00    -0.159 N  
HETATM   24  C   UNL     1      -9.073   5.200  68.028  1.00  0.00    -0.112 C  
HETATM   25  C   UNL     1     -10.111   4.658  70.253  1.00  0.00    -0.206 C  
HETATM   26  C   UNL     1      -9.287   6.254  66.967  1.00  0.00    -0.135 C  
HETATM   27  C   UNL     1     -10.775   6.526  67.097  1.00  0.00    -0.438 C  
HETATM   28  C   UNL     1     -11.144   6.209  68.554  1.00  0.00    -0.262 C  
ENDBRANCH  22  23
ENDBRANCH  17  22
ENDBRANCH   9  10
ENDBRANCH   5   6
BRANCH   5  29
HETATM   29  C   UNL     1     -11.290  15.967  69.365  1.00  0.00    -0.355 A  
HETATM   30  S   UNL     1     -10.482  16.268  66.967  1.00  0.00    -0.284 SA 
HETATM   31  C   UNL     1     -11.438  15.416  68.104  1.00  0.00    -0.343 A  
HETATM   32  H2  UNL     1      -8.745  18.457  67.017  1.00  0.00     0.000 HD 
HETATM   33  H1  UNL     1      -8.775  18.945  68.707  1.00  0.00     0.000 HD 
HETATM   34  C   UNL     1      -9.950  17.320  68.212  1.00  0.00    -0.313 A  
HETATM   35  N   UNL     1      -9.091  18.319  67.967  1.00  0.00    -0.283 NA 
HETATM   36  N   UNL     1     -10.444  17.078  69.400  1.00  0.00    -0.304 NA 
ENDBRANCH   5  29
ENDBRANCH   3   5
ENDBRANCH   2   3
TORSDOF 7
ENDMDL
MODEL       20
REMARK 921   NORMALIZED FREE ENERGY PREDICTED BY IDOCK:   -6.12 KCAL/MOL
REMARK 922        TOTAL FREE ENERGY PREDICTED BY IDOCK:   -9.74 KCAL/MOL
REMARK 923 INTER-LIGAND FREE ENERGY PREDICTED BY IDOCK:   -8.69 KCAL/MOL
REMARK 924 INTRA-LIGAND FREE ENERGY PREDICTED BY IDOCK:   -1.05 KCAL/MOL
REMARK 927      BINDING AFFINITY PREDICTED BY RF-SCORE:    0.00 PKD
ROOT
HETATM    1  C   UNL     1      -6.628  10.108  70.073  1.00  0.00    -0.117 C  
HETATM    2  O   UNL     1      -7.889  10.558  69.595  1.00  0.00    -0.149 OA 
ENDROOT
BRANCH   2   3
HETATM    3  N   UNL     1      -8.368   9.640  68.654  1.00  0.00    -0.112 NA 
HETATM    4  H   UNL     1      -7.833   9.326  67.844  1.00  0.00     0.000 HD 
BRANCH   3   5
HETATM    5  C   UNL     1      -9.578   9.229  68.927  1.00  0.00    -0.155 C  
BRANCH   5   6
HETATM    6  C   UNL     1     -10.860  10.036  68.621  1.00  0.00    -0.229 C  
HETATM    7  H   UNL     1     -10.118  10.536  66.740  1.00  0.00     0.000 HD 
HETATM    8  O   UNL     1     -11.781  10.113  69.423  1.00  0.00    -0.153 OA 
HETATM    9  N   UNL     1     -10.853  10.727  67.421  1.00  0.00    -0.272 N  
BRANCH   9  10
HETATM   10  CA  UNL     1     -11.897  11.745  67.101  1.00  0.00    -0.077 C  
HETATM   11  N   UNL     1     -11.550  13.653  66.360  1.00  0.00    -0.335 N  
HETATM   12  C   UNL     1     -11.720  12.475  65.721  1.00  0.00    -0.426 C  
HETATM   13  C   UNL     1     -11.757  13.168  67.704  1.00  0.00    -0.369 C  
HETATM   14  O   UNL     1     -11.594  12.109  64.579  1.00  0.00    -0.330 OA 
HETATM   15  S   UNL     1     -10.258  13.575  68.630  1.00  0.00    -0.140 SA 
HETATM   16  C   UNL     1     -10.510  15.345  68.401  1.00  0.00    -0.239 C  
HETATM   17  C   UNL     1     -10.782  15.804  66.987  1.00  0.00    -0.306 C  
HETATM   18  CA  UNL     1     -11.261  14.953  66.032  1.00  0.00    -0.327 C  
HETATM   19  O   UNL     1     -12.687  15.146  64.117  1.00  0.00    -0.694 OA 
HETATM   20  C   UNL     1     -11.551  15.457  64.567  1.00  0.00    -0.296 C  
HETATM   21  OXT UNL     1     -10.672  16.248  64.110  1.00  0.00    -0.320 OA 
BRANCH  17  22
HETATM   22  C   UNL     1     -10.632  17.311  66.773  1.00  0.00    -0.192 C  
BRANCH  22  23
HETATM   23  N   UNL     1      -9.241  18.013  66.998  1.00  0.00    -0.259 N  
HETATM   24  C   UNL     1      -8.908  18.480  68.403  1.00  0.00    -0.322 C  
HETATM   25  C   UNL     1      -8.158  17.099  66.440  1.00  0.00    -0.302 C  
HETATM   26  C   UNL     1      -9.805  19.680  68.596  1.00  0.00    -0.519 C  
HETATM   27  C   UNL     1      -9.614  20.423  67.286  1.00  0.00    -0.592 C  
HETATM   28  C   UNL     1      -9.254  19.361  66.237  1.00  0.00    -0.348 C  
ENDBRANCH  22  23
ENDBRANCH  17  22
ENDBRANCH   9  10
ENDBRANCH   5   6
BRANCH   5  29
HETATM   29  C   UNL     1      -9.674   7.905  69.550  1.00  0.00    -0.173 A  
HETATM   30  S   UNL     1     -10.210   5.460  70.034  1.00  0.00    -0.298 SA 
HETATM   31  C   UNL     1     -10.291   6.806  68.977  1.00  0.00    -0.195 A  
HETATM   32  H2  UNL     1      -9.153   4.935  72.567  1.00  0.00     0.000 HD 
HETATM   33  H1  UNL     1      -8.433   6.476  73.021  1.00  0.00     0.000 HD 
HETATM   34  C   UNL     1      -9.350   6.413  71.170  1.00  0.00    -0.160 A  
HETATM   35  N   UNL     1      -8.945   5.909  72.344  1.00  0.00    -0.138 NA 
HETATM   36  N   UNL     1      -9.119   7.650  70.806  1.00  0.00    -0.152 NA 
ENDBRANCH   5  29
ENDBRANCH   3   5
ENDBRANCH   2   3
TORSDOF 7
ENDMDL
MODEL       21
REMARK 921   NORMALIZED FREE ENERGY PREDICTED BY IDOCK:   -6.06 KCAL/MOL
REMARK 922        TOTAL FREE ENERGY PREDICTED BY IDOCK:   -9.65 KCAL/MOL
REMARK 923 INTER-LIGAND FREE ENERGY PREDICTED BY IDOCK:   -8.52 KCAL/MOL
REMARK 924 INTRA-LIGAND FREE ENERGY PREDICTED BY IDOCK:   -1.13 KCAL/MOL
REMARK 927      BINDING AFFINITY PREDICTED BY RF-SCORE:    0.00 PKD
ROOT
HETATM    1  C   UNL     1      -6.928  14.186  67.669  1.00  0.00    -0.184 C  
HETATM    2  O   UNL     1      -7.782  15.266  67.313  1.00  0.00    -0.181 OA 
ENDROOT
BRANCH   2   3
HETATM    3  N   UNL     1      -8.292  15.841  68.483  1.00  0.00    -0.167 NA 
HETATM    4  H   UNL     1      -7.754  15.949  69.343  1.00  0.00     0.000 HD 
BRANCH   3   5
HETATM    5  C   UNL     1      -9.534  16.223  68.351  1.00  0.00    -0.216 C  
BRANCH   5   6
HETATM    6  C   UNL     1     -10.756  15.338  68.686  1.00  0.00    -0.245 C  
HETATM    7  H   UNL     1      -9.607  13.620  68.426  1.00  0.00     0.000 HD 
HETATM    8  O   UNL     1     -11.842  15.822  68.975  1.00  0.00    -0.391 OA 
HETATM    9  N   UNL     1     -10.555  13.974  68.553  1.00  0.00    -0.249 N  
BRANCH   9  10
HETATM   10  CA  UNL     1     -11.695  13.011  68.591  1.00  0.00    -0.323 C  
HETATM   11  N   UNL     1     -11.714  11.188  69.587  1.00  0.00    -0.306 N  
HETATM   12  C   UNL     1     -12.034  12.431  70.011  1.00  0.00    -0.299 C  
HETATM   13  C   UNL     1     -11.427  11.529  68.213  1.00  0.00    -0.299 C  
HETATM   14  O   UNL     1     -12.286  12.916  71.086  1.00  0.00    -0.322 OA 
HETATM   15  S   UNL     1      -9.724  11.006  67.904  1.00  0.00    -0.176 SA 
HETATM   16  C   UNL     1     -10.126   9.273  68.202  1.00  0.00    -0.187 C  
HETATM   17  C   UNL     1     -10.885   8.973  69.474  1.00  0.00    -0.177 C  
HETATM   18  CA  UNL     1     -11.619   9.928  70.118  1.00  0.00    -0.218 C  
HETATM   19  O   UNL     1     -13.619   9.960  71.435  1.00  0.00    -0.324 OA 
HETATM   20  C   UNL     1     -12.415   9.588  71.436  1.00  0.00    -0.362 C  
HETATM   21  OXT UNL     1     -11.785   8.840  72.241  1.00  0.00    -0.363 OA 
BRANCH  17  22
HETATM   22  C   UNL     1     -10.891   7.496  69.871  1.00  0.00    -0.240 C  
BRANCH  22  23
HETATM   23  N   UNL     1      -9.565   6.793  70.345  1.00  0.00    -0.169 N  
HETATM   24  C   UNL     1      -8.733   6.080  69.294  1.00  0.00    -0.117 C  
HETATM   25  C   UNL     1      -8.740   7.817  71.113  1.00  0.00    -0.135 C  
HETATM   26  C   UNL     1      -9.547   4.847  68.979  1.00  0.00    -0.224 C  
HETATM   27  C   UNL     1      -9.927   4.364  70.367  1.00  0.00    -0.253 C  
HETATM   28  C   UNL     1      -9.951   5.610  71.265  1.00  0.00    -0.195 C  
ENDBRANCH  22  23
ENDBRANCH  17  22
ENDBRANCH   9  10
ENDBRANCH   5   6
BRANCH   5  29
HETATM   29  C   UNL     1      -9.729  17.593  67.865  1.00  0.00    -0.295 A  
HETATM   30  S   UNL     1      -9.773  20.133  67.655  1.00  0.00    -0.419 SA 
HETATM   31  C   UNL     1      -9.345  18.735  68.547  1.00  0.00    -0.350 A  
HETATM   32  H2  UNL     1     -11.015  20.674  65.211  1.00  0.00     0.000 HD 
HETATM   33  H1  UNL     1     -11.362  19.068  64.581  1.00  0.00     0.000 HD 
HETATM   34  C   UNL     1     -10.421  19.137  66.419  1.00  0.00    -0.463 A  
HETATM   35  N   UNL     1     -10.977  19.660  65.316  1.00  0.00    -0.309 NA 
HETATM   36  N   UNL     1     -10.329  17.848  66.629  1.00  0.00    -0.365 NA 
ENDBRANCH   5  29
ENDBRANCH   3   5
ENDBRANCH   2   3
TORSDOF 7
ENDMDL
MODEL       22
REMARK 921   NORMALIZED FREE ENERGY PREDICTED BY IDOCK:   -6.04 KCAL/MOL
REMARK 922        TOTAL FREE ENERGY PREDICTED BY IDOCK:   -9.63 KCAL/MOL
REMARK 923 INTER-LIGAND FREE ENERGY PREDICTED BY IDOCK:   -8.57 KCAL/MOL
REMARK 924 INTRA-LIGAND FREE ENERGY PREDICTED BY IDOCK:   -1.06 KCAL/MOL
REMARK 927      BINDING AFFINITY PREDICTED BY RF-SCORE:    0.00 PKD
ROOT
HETATM    1  C   UNL     1     -11.095   6.314  69.660  1.00  0.00    -0.412 C  
HETATM    2  O   UNL     1     -10.358   7.054  68.694  1.00  0.00    -0.173 OA 
ENDROOT
BRANCH   2   3
HETATM    3  N   UNL     1      -9.362   7.785  69.351  1.00  0.00    -0.153 NA 
HETATM    4  H   UNL     1      -8.675   7.370  69.980  1.00  0.00     0.000 HD 
BRANCH   3   5
HETATM    5  C   UNL     1      -9.411   9.060  69.069  1.00  0.00    -0.155 C  
BRANCH   5   6
HETATM    6  C   UNL     1     -10.714   9.835  68.766  1.00  0.00    -0.215 C  
HETATM    7  H   UNL     1      -9.950  10.439  66.926  1.00  0.00     0.000 HD 
HETATM    8  O   UNL     1     -11.654   9.845  69.550  1.00  0.00    -0.137 OA 
HETATM    9  N   UNL     1     -10.706  10.575  67.597  1.00  0.00    -0.254 N  
BRANCH   9  10
HETATM   10  CA  UNL     1     -11.778  11.569  67.295  1.00  0.00    -0.111 C  
HETATM   11  N   UNL     1     -11.486  13.488  66.558  1.00  0.00    -0.326 N  
HETATM   12  C   UNL     1     -11.637  12.309  65.916  1.00  0.00    -0.393 C  
HETATM   13  C   UNL     1     -11.664  12.993  67.903  1.00  0.00    -0.357 C  
HETATM   14  O   UNL     1     -11.517  11.951  64.771  1.00  0.00    -0.313 OA 
HETATM   15  S   UNL     1     -10.162  13.432  68.810  1.00  0.00    -0.048 SA 
HETATM   16  C   UNL     1     -10.460  15.197  68.592  1.00  0.00    -0.234 C  
HETATM   17  C   UNL     1     -10.761  15.654  67.183  1.00  0.00    -0.314 C  
HETATM   18  CA  UNL     1     -11.233  14.796  66.232  1.00  0.00    -0.343 C  
HETATM   19  O   UNL     1     -12.689  14.962  64.337  1.00  0.00    -0.566 OA 
HETATM   20  C   UNL     1     -11.555  15.298  64.772  1.00  0.00    -0.322 C  
HETATM   21  OXT UNL     1     -10.702  16.112  64.307  1.00  0.00    -0.383 OA 
BRANCH  17  22
HETATM   22  C   UNL     1     -10.650  17.165  66.974  1.00  0.00    -0.227 C  
BRANCH  22  23
HETATM   23  N   UNL     1      -9.279  17.903  67.206  1.00  0.00    -0.252 N  
HETATM   24  C   UNL     1      -8.950  18.347  68.619  1.00  0.00    -0.286 C  
HETATM   25  C   UNL     1      -8.174  17.035  66.619  1.00  0.00    -0.260 C  
HETATM   26  C   UNL     1      -9.881  19.515  68.847  1.00  0.00    -0.522 C  
HETATM   27  C   UNL     1      -9.722  20.294  67.554  1.00  0.00    -0.575 C  
HETATM   28  C   UNL     1      -9.338  19.267  66.477  1.00  0.00    -0.353 C  
ENDBRANCH  22  23
ENDBRANCH  17  22
ENDBRANCH   9  10
ENDBRANCH   5   6
BRANCH   5  29
HETATM   29  C   UNL     1      -8.122   9.760  69.067  1.00  0.00    -0.101 A  
HETATM   30  S   UNL     1      -5.921  10.833  68.360  1.00  0.00    -0.042 SA 
HETATM   31  C   UNL     1      -7.368  10.022  67.935  1.00  0.00    -0.088 A  
HETATM   32  H2  UNL     1      -4.732  11.755  70.715  1.00  0.00     0.000 HD 
HETATM   33  H1  UNL     1      -5.903  11.308  71.949  1.00  0.00     0.000 HD 
HETATM   34  C   UNL     1      -6.394  10.801  70.007  1.00  0.00    -0.137 A  
HETATM   35  N   UNL     1      -5.622  11.327  70.969  1.00  0.00    -0.321 NA 
HETATM   36  N   UNL     1      -7.552  10.238  70.248  1.00  0.00    -0.197 NA 
ENDBRANCH   5  29
ENDBRANCH   3   5
ENDBRANCH   2   3
TORSDOF 7
ENDMDL
MODEL       23
REMARK 921   NORMALIZED FREE ENERGY PREDICTED BY IDOCK:   -6.01 KCAL/MOL
REMARK 922        TOTAL FREE ENERGY PREDICTED BY IDOCK:   -9.59 KCAL/MOL
REMARK 923 INTER-LIGAND FREE ENERGY PREDICTED BY IDOCK:   -8.97 KCAL/MOL
REMARK 924 INTRA-LIGAND FREE ENERGY PREDICTED BY IDOCK:   -0.62 KCAL/MOL
REMARK 927      BINDING AFFINITY PREDICTED BY RF-SCORE:    0.00 PKD
ROOT
HETATM    1  C   UNL     1     -12.571  16.126  73.514  1.00  0.00    -0.569 C  
HETATM    2  O   UNL     1     -11.547  15.768  72.595  1.00  0.00    -0.435 OA 
ENDROOT
BRANCH   2   3
HETATM    3  N   UNL     1     -11.797  16.402  71.372  1.00  0.00    -0.648 NA 
HETATM    4  H   UNL     1     -11.923  17.409  71.271  1.00  0.00     0.000 HD 
BRANCH   3   5
HETATM    5  C   UNL     1     -11.853  15.559  70.375  1.00  0.00    -0.351 C  
BRANCH   5   6
HETATM    6  C   UNL     1     -12.514  14.164  70.452  1.00  0.00    -0.357 C  
HETATM    7  H   UNL     1     -10.768  13.278  69.742  1.00  0.00     0.000 HD 
HETATM    8  O   UNL     1     -13.659  14.014  70.857  1.00  0.00    -0.161 OA 
HETATM    9  N   UNL     1     -11.753  13.119  69.956  1.00  0.00    -0.264 N  
BRANCH   9  10
HETATM   10  CA  UNL     1     -12.340  11.766  69.726  1.00  0.00    -0.111 C  
HETATM   11  N   UNL     1     -11.676   9.991  70.575  1.00  0.00    -0.299 N  
HETATM   12  C   UNL     1     -12.566  10.905  71.021  1.00  0.00    -0.417 C  
HETATM   13  C   UNL     1     -11.397  10.610  69.300  1.00  0.00    -0.282 C  
HETATM   14  O   UNL     1     -13.142  11.081  72.065  1.00  0.00    -0.496 OA 
HETATM   15  S   UNL     1      -9.614  10.913  69.260  1.00  0.00     0.041 SA 
HETATM   16  C   UNL     1      -9.240   9.151  69.362  1.00  0.00    -0.156 C  
HETATM   17  C   UNL     1      -9.943   8.382  70.457  1.00  0.00    -0.205 C  
HETATM   18  CA  UNL     1     -11.100   8.832  71.026  1.00  0.00    -0.270 C  
HETATM   19  O   UNL     1     -13.057   7.823  71.969  1.00  0.00    -0.285 OA 
HETATM   20  C   UNL     1     -11.824   8.005  72.156  1.00  0.00    -0.349 C  
HETATM   21  OXT UNL     1     -11.036   7.493  73.007  1.00  0.00    -0.350 OA 
BRANCH  17  22
HETATM   22  C   UNL     1      -9.344   7.004  70.743  1.00  0.00    -0.161 C  
BRANCH  22  23
HETATM   23  N   UNL     1      -9.862   5.733  69.972  1.00  0.00    -0.171 N  
HETATM   24  C   UNL     1     -10.277   4.530  70.798  1.00  0.00    -0.094 C  
HETATM   25  C   UNL     1     -10.974   6.177  69.030  1.00  0.00    -0.367 C  
HETATM   26  C   UNL     1      -8.963   3.976  71.298  1.00  0.00    -0.159 C  
HETATM   27  C   UNL     1      -8.116   4.007  70.038  1.00  0.00    -0.063 C  
HETATM   28  C   UNL     1      -8.679   5.142  69.169  1.00  0.00    -0.092 C  
ENDBRANCH  22  23
ENDBRANCH  17  22
ENDBRANCH   9  10
ENDBRANCH   5   6
BRANCH   5  29
HETATM   29  C   UNL     1     -11.250  16.019  69.120  1.00  0.00    -0.342 A  
HETATM   30  S   UNL     1      -9.970  17.349  67.362  1.00  0.00    -0.317 SA 
HETATM   31  C   UNL     1     -10.452  17.143  68.993  1.00  0.00    -0.321 A  
HETATM   32  H2  UNL     1     -10.371  16.003  64.947  1.00  0.00     0.000 HD 
HETATM   33  H1  UNL     1     -11.381  14.641  65.417  1.00  0.00     0.000 HD 
HETATM   34  C   UNL     1     -10.832  15.930  66.935  1.00  0.00    -0.240 A  
HETATM   35  N   UNL     1     -10.868  15.485  65.671  1.00  0.00    -0.346 NA 
HETATM   36  N   UNL     1     -11.438  15.322  67.924  1.00  0.00    -0.332 NA 
ENDBRANCH   5  29
ENDBRANCH   3   5
ENDBRANCH   2   3
TORSDOF 7
ENDMDL
MODEL       24
REMARK 921   NORMALIZED FREE ENERGY PREDICTED BY IDOCK:   -5.99 KCAL/MOL
REMARK 922        TOTAL FREE ENERGY PREDICTED BY IDOCK:   -9.55 KCAL/MOL
REMARK 923 INTER-LIGAND FREE ENERGY PREDICTED BY IDOCK:   -8.63 KCAL/MOL
REMARK 924 INTRA-LIGAND FREE ENERGY PREDICTED BY IDOCK:   -0.92 KCAL/MOL
REMARK 927      BINDING AFFINITY PREDICTED BY RF-SCORE:    0.00 PKD
ROOT
HETATM    1  C   UNL     1      -9.384  10.386  63.732  1.00  0.00    -0.288 C  
HETATM    2  O   UNL     1     -10.385  10.266  64.735  1.00  0.00    -0.277 OA 
ENDROOT
BRANCH   2   3
HETATM    3  N   UNL     1      -9.987   9.288  65.653  1.00  0.00    -0.427 NA 
HETATM    4  H   UNL     1      -9.421   8.476  65.407  1.00  0.00     0.000 HD 
BRANCH   3   5
HETATM    5  C   UNL     1     -10.421   9.530  66.861  1.00  0.00    -0.208 C  
BRANCH   5   6
HETATM    6  C   UNL     1     -10.826  10.931  67.375  1.00  0.00    -0.279 C  
HETATM    7  H   UNL     1      -8.847  11.569  67.249  1.00  0.00     0.000 HD 
HETATM    8  O   UNL     1     -11.988  11.210  67.638  1.00  0.00    -0.613 OA 
HETATM    9  N   UNL     1      -9.777  11.808  67.593  1.00  0.00    -0.179 N  
BRANCH   9  10
HETATM   10  CA  UNL     1      -9.976  13.096  68.322  1.00  0.00    -0.236 C  
HETATM   11  N   UNL     1      -9.356  14.969  67.673  1.00  0.00    -0.192 N  
HETATM   12  C   UNL     1     -10.501  14.288  67.444  1.00  0.00    -0.264 C  
HETATM   13  C   UNL     1      -8.745  14.010  68.564  1.00  0.00    -0.156 C  
HETATM   14  O   UNL     1     -11.445  14.449  66.711  1.00  0.00    -0.343 OA 
HETATM   15  S   UNL     1      -7.164  13.554  67.813  1.00  0.00    -0.167 SA 
HETATM   16  C   UNL     1      -6.534  15.239  67.943  1.00  0.00    -0.156 C  
HETATM   17  C   UNL     1      -7.437  16.331  67.417  1.00  0.00    -0.190 C  
HETATM   18  CA  UNL     1      -8.784  16.152  67.284  1.00  0.00    -0.183 C  
HETATM   19  O   UNL     1     -10.727  17.543  67.452  1.00  0.00    -0.333 OA 
HETATM   20  C   UNL     1      -9.708  17.311  66.747  1.00  0.00    -0.281 C  
HETATM   21  OXT UNL     1      -9.210  17.962  65.780  1.00  0.00    -0.498 OA 
BRANCH  17  22
HETATM   22  C   UNL     1      -6.741  17.678  67.211  1.00  0.00    -0.161 C  
BRANCH  22  23
HETATM   23  N   UNL     1      -6.554  18.671  68.418  1.00  0.00    -0.226 N  
HETATM   24  C   UNL     1      -7.772  19.445  68.888  1.00  0.00    -0.347 C  
HETATM   25  C   UNL     1      -5.903  17.903  69.561  1.00  0.00    -0.238 C  
HETATM   26  C   UNL     1      -7.990  20.458  67.788  1.00  0.00    -0.227 C  
HETATM   27  C   UNL     1      -6.579  20.971  67.556  1.00  0.00    -0.438 C  
HETATM   28  C   UNL     1      -5.635  19.826  67.952  1.00  0.00    -0.201 C  
ENDBRANCH  22  23
ENDBRANCH  17  22
ENDBRANCH   9  10
ENDBRANCH   5   6
BRANCH   5  29
HETATM   29  C   UNL     1     -10.529   8.364  67.744  1.00  0.00    -0.220 A  
HETATM   30  S   UNL     1     -10.721   5.989  68.650  1.00  0.00    -0.297 SA 
HETATM   31  C   UNL     1     -10.563   7.048  67.313  1.00  0.00    -0.325 A  
HETATM   32  H2  UNL     1     -10.907   6.245  71.426  1.00  0.00     0.000 HD 
HETATM   33  H1  UNL     1     -10.818   7.986  71.669  1.00  0.00     0.000 HD 
HETATM   34  C   UNL     1     -10.715   7.336  69.710  1.00  0.00    -0.239 A  
HETATM   35  N   UNL     1     -10.821   7.184  71.038  1.00  0.00    -0.236 NA 
HETATM   36  N   UNL     1     -10.596   8.505  69.132  1.00  0.00    -0.207 NA 
ENDBRANCH   5  29
ENDBRANCH   3   5
ENDBRANCH   2   3
TORSDOF 7
ENDMDL
MODEL       25
REMARK 921   NORMALIZED FREE ENERGY PREDICTED BY IDOCK:   -5.99 KCAL/MOL
REMARK 922        TOTAL FREE ENERGY PREDICTED BY IDOCK:   -9.55 KCAL/MOL
REMARK 923 INTER-LIGAND FREE ENERGY PREDICTED BY IDOCK:   -8.65 KCAL/MOL
REMARK 924 INTRA-LIGAND FREE ENERGY PREDICTED BY IDOCK:   -0.90 KCAL/MOL
REMARK 927      BINDING AFFINITY PREDICTED BY RF-SCORE:    0.00 PKD
ROOT
HETATM    1  C   UNL     1     -10.881   6.828  69.336  1.00  0.00    -0.271 C  
HETATM    2  O   UNL     1     -10.580   8.154  68.919  1.00  0.00    -0.212 OA 
ENDROOT
BRANCH   2   3
HETATM    3  N   UNL     1     -11.096   8.349  67.633  1.00  0.00    -0.391 NA 
HETATM    4  H   UNL     1     -11.708   7.684  67.160  1.00  0.00     0.000 HD 
BRANCH   3   5
HETATM    5  C   UNL     1     -10.705   9.478  67.104  1.00  0.00    -0.182 C  
BRANCH   5   6
HETATM    6  C   UNL     1     -11.057  10.872  67.671  1.00  0.00    -0.313 C  
HETATM    7  H   UNL     1      -9.190  11.597  67.101  1.00  0.00     0.000 HD 
HETATM    8  O   UNL     1     -12.146  11.104  68.179  1.00  0.00    -0.633 OA 
HETATM    9  N   UNL     1     -10.032  11.802  67.638  1.00  0.00    -0.191 N  
BRANCH   9  10
HETATM   10  CA  UNL     1     -10.132  13.099  68.371  1.00  0.00    -0.231 C  
HETATM   11  N   UNL     1      -9.560  14.957  67.640  1.00  0.00    -0.200 N  
HETATM   12  C   UNL     1     -10.733  14.291  67.543  1.00  0.00    -0.270 C  
HETATM   13  C   UNL     1      -8.869  13.995  68.468  1.00  0.00    -0.160 C  
HETATM   14  O   UNL     1     -11.749  14.461  66.916  1.00  0.00    -0.372 OA 
HETATM   15  S   UNL     1      -7.386  13.509  67.554  1.00  0.00    -0.131 SA 
HETATM   16  C   UNL     1      -6.721  15.185  67.597  1.00  0.00    -0.176 C  
HETATM   17  C   UNL     1      -7.661  16.287  67.162  1.00  0.00    -0.230 C  
HETATM   18  CA  UNL     1      -9.017  16.128  67.179  1.00  0.00    -0.200 C  
HETATM   19  O   UNL     1     -10.910  17.549  67.543  1.00  0.00    -0.321 OA 
HETATM   20  C   UNL     1      -9.977  17.296  66.734  1.00  0.00    -0.301 C  
HETATM   21  OXT UNL     1      -9.579  17.931  65.711  1.00  0.00    -0.514 OA 
BRANCH  17  22
HETATM   22  C   UNL     1      -6.973  17.621  66.868  1.00  0.00    -0.185 C  
BRANCH  22  23
HETATM   23  N   UNL     1      -6.688  18.644  68.030  1.00  0.00    -0.218 N  
HETATM   24  C   UNL     1      -7.879  19.344  68.658  1.00  0.00    -0.364 C  
HETATM   25  C   UNL     1      -5.835  17.940  69.077  1.00  0.00    -0.210 C  
HETATM   26  C   UNL     1      -8.316  20.321  67.593  1.00  0.00    -0.322 C  
HETATM   27  C   UNL     1      -6.989  20.922  67.163  1.00  0.00    -0.426 C  
HETATM   28  C   UNL     1      -5.923  19.850  67.432  1.00  0.00    -0.183 C  
ENDBRANCH  22  23
ENDBRANCH  17  22
ENDBRANCH   9  10
ENDBRANCH   5   6
BRANCH   5  29
HETATM   29  C   UNL     1      -9.867   9.362  65.906  1.00  0.00    -0.291 A  
HETATM   30  S   UNL     1      -8.076   8.669  64.229  1.00  0.00    -0.153 SA 
HETATM   31  C   UNL     1      -8.816   8.472  65.761  1.00  0.00    -0.190 A  
HETATM   32  H2  UNL     1      -8.462  10.294  61.988  1.00  0.00     0.000 HD 
HETATM   33  H1  UNL     1      -9.844  11.280  62.450  1.00  0.00     0.000 HD 
HETATM   34  C   UNL     1      -9.204   9.904  63.851  1.00  0.00    -0.248 A  
HETATM   35  N   UNL     1      -9.173  10.546  62.674  1.00  0.00    -0.279 NA 
HETATM   36  N   UNL     1     -10.087  10.163  64.783  1.00  0.00    -0.284 NA 
ENDBRANCH   5  29
ENDBRANCH   3   5
ENDBRANCH   2   3
TORSDOF 7
ENDMDL
MODEL       26
REMARK 921   NORMALIZED FREE ENERGY PREDICTED BY IDOCK:   -5.90 KCAL/MOL
REMARK 922        TOTAL FREE ENERGY PREDICTED BY IDOCK:   -9.43 KCAL/MOL
REMARK 923 INTER-LIGAND FREE ENERGY PREDICTED BY IDOCK:   -8.23 KCAL/MOL
REMARK 924 INTRA-LIGAND FREE ENERGY PREDICTED BY IDOCK:   -1.20 KCAL/MOL
REMARK 927      BINDING AFFINITY PREDICTED BY RF-SCORE:    0.00 PKD
ROOT
HETATM    1  C   UNL     1     -12.756  15.341  70.580  1.00  0.00    -0.416 C  
HETATM    2  O   UNL     1     -12.284  14.314  69.717  1.00  0.00    -0.324 OA 
ENDROOT
BRANCH   2   3
HETATM    3  N   UNL     1     -12.219  14.816  68.413  1.00  0.00    -0.605 NA 
HETATM    4  H   UNL     1     -13.036  14.968  67.823  1.00  0.00     0.000 HD 
BRANCH   3   5
HETATM    5  C   UNL     1     -10.994  15.068  68.036  1.00  0.00    -0.284 C  
BRANCH   5   6
HETATM    6  C   UNL     1      -9.859  14.019  68.007  1.00  0.00    -0.228 C  
HETATM    7  H   UNL     1     -11.050  12.734  66.881  1.00  0.00     0.000 HD 
HETATM    8  O   UNL     1      -8.778  14.224  68.543  1.00  0.00    -0.176 OA 
HETATM    9  N   UNL     1     -10.183  12.812  67.412  1.00  0.00    -0.221 N  
BRANCH   9  10
HETATM   10  CA  UNL     1      -9.291  11.620  67.531  1.00  0.00    -0.168 C  
HETATM   11  N   UNL     1      -9.915   9.648  67.718  1.00  0.00    -0.162 N  
HETATM   12  C   UNL     1      -9.680  10.400  66.620  1.00  0.00    -0.190 C  
HETATM   13  C   UNL     1      -9.527  10.630  68.703  1.00  0.00    -0.176 C  
HETATM   14  O   UNL     1      -9.876  10.252  65.439  1.00  0.00    -0.255 OA 
HETATM   15  S   UNL     1     -10.965  10.876  69.772  1.00  0.00    -0.184 SA 
HETATM   16  C   UNL     1     -10.931   9.163  70.334  1.00  0.00    -0.248 C  
HETATM   17  C   UNL     1     -10.849   8.108  69.255  1.00  0.00    -0.064 C  
HETATM   18  CA  UNL     1     -10.374   8.389  68.006  1.00  0.00    -0.215 C  
HETATM   19  O   UNL     1      -9.170   7.192  66.316  1.00  0.00    -0.167 OA 
HETATM   20  C   UNL     1     -10.284   7.268  66.901  1.00  0.00    -0.269 C  
HETATM   21  OXT UNL     1     -11.284   6.489  66.873  1.00  0.00    -0.387 OA 
BRANCH  17  22
HETATM   22  C   UNL     1     -11.182   6.693  69.731  1.00  0.00    -0.356 C  
BRANCH  22  23
HETATM   23  N   UNL     1     -10.246   5.958  70.762  1.00  0.00    -0.201 N  
HETATM   24  C   UNL     1      -8.817   6.452  70.891  1.00  0.00    -0.136 C  
HETATM   25  C   UNL     1     -10.956   5.938  72.109  1.00  0.00    -0.266 C  
HETATM   26  C   UNL     1      -8.165   5.982  69.612  1.00  0.00    -0.115 C  
HETATM   27  C   UNL     1      -8.662   4.550  69.521  1.00  0.00    -0.114 C  
HETATM   28  C   UNL     1     -10.012   4.515  70.254  1.00  0.00    -0.218 C  
ENDBRANCH  22  23
ENDBRANCH  17  22
ENDBRANCH   9  10
ENDBRANCH   5   6
BRANCH   5  29
HETATM   29  C   UNL     1     -10.732  16.446  67.605  1.00  0.00    -0.312 A  
HETATM   30  S   UNL     1     -10.221  18.521  66.217  1.00  0.00    -0.406 SA 
HETATM   31  C   UNL     1     -10.513  16.836  66.295  1.00  0.00    -0.261 A  
HETATM   32  H2  UNL     1     -10.093  20.641  68.033  1.00  0.00     0.000 HD 
HETATM   33  H1  UNL     1     -10.424  19.860  69.575  1.00  0.00     0.000 HD 
HETATM   34  C   UNL     1     -10.421  18.628  67.916  1.00  0.00    -0.385 A  
HETATM   35  N   UNL     1     -10.306  19.796  68.564  1.00  0.00    -0.426 NA 
HETATM   36  N   UNL     1     -10.696  17.500  68.521  1.00  0.00    -0.295 NA 
ENDBRANCH   5  29
ENDBRANCH   3   5
ENDBRANCH   2   3
TORSDOF 7
ENDMDL
MODEL       27
REMARK 921   NORMALIZED FREE ENERGY PREDICTED BY IDOCK:   -5.88 KCAL/MOL
REMARK 922        TOTAL FREE ENERGY PREDICTED BY IDOCK:   -9.41 KCAL/MOL
REMARK 923 INTER-LIGAND FREE ENERGY PREDICTED BY IDOCK:   -8.29 KCAL/MOL
REMARK 924 INTRA-LIGAND FREE ENERGY PREDICTED BY IDOCK:   -1.12 KCAL/MOL
REMARK 927      BINDING AFFINITY PREDICTED BY RF-SCORE:    0.00 PKD
ROOT
HETATM    1  C   UNL     1     -11.789  15.616  72.213  1.00  0.00    -0.481 C  
HETATM    2  O   UNL     1     -11.511  16.125  70.915  1.00  0.00    -0.403 OA 
ENDROOT
BRANCH   2   3
HETATM    3  N   UNL     1     -10.410  15.439  70.389  1.00  0.00    -0.454 NA 
HETATM    4  H   UNL     1      -9.531  15.310  70.889  1.00  0.00     0.000 HD 
BRANCH   3   5
HETATM    5  C   UNL     1     -10.635  14.982  69.186  1.00  0.00    -0.251 C  
BRANCH   5   6
HETATM    6  C   UNL     1     -11.523  13.757  68.872  1.00  0.00    -0.304 C  
HETATM    7  H   UNL     1     -11.347  13.102  70.841  1.00  0.00     0.000 HD 
HETATM    8  O   UNL     1     -12.002  13.575  67.761  1.00  0.00    -0.354 OA 
HETATM    9  N   UNL     1     -11.665  12.847  69.906  1.00  0.00    -0.289 N  
BRANCH   9  10
HETATM   10  CA  UNL     1     -12.273  11.502  69.684  1.00  0.00    -0.229 C  
HETATM   11  N   UNL     1     -11.674   9.732  70.590  1.00  0.00    -0.286 N  
HETATM   12  C   UNL     1     -12.559  10.673  70.987  1.00  0.00    -0.416 C  
HETATM   13  C   UNL     1     -11.341  10.318  69.312  1.00  0.00    -0.196 C  
HETATM   14  O   UNL     1     -13.165  10.881  72.009  1.00  0.00    -0.492 OA 
HETATM   15  S   UNL     1      -9.552  10.584  69.325  1.00  0.00    -0.139 SA 
HETATM   16  C   UNL     1      -9.218   8.818  69.474  1.00  0.00    -0.149 C  
HETATM   17  C   UNL     1      -9.972   8.086  70.560  1.00  0.00    -0.193 C  
HETATM   18  CA  UNL     1     -11.137   8.570  71.082  1.00  0.00    -0.260 C  
HETATM   19  O   UNL     1     -13.145   7.621  71.980  1.00  0.00    -0.273 OA 
HETATM   20  C   UNL     1     -11.915   7.781  72.204  1.00  0.00    -0.317 C  
HETATM   21  OXT UNL     1     -11.165   7.271  73.090  1.00  0.00    -0.302 OA 
BRANCH  17  22
HETATM   22  C   UNL     1      -9.411   6.702  70.894  1.00  0.00    -0.164 C  
BRANCH  22  23
HETATM   23  N   UNL     1      -8.026   6.560  71.627  1.00  0.00    -0.104 N  
HETATM   24  C   UNL     1      -6.804   6.273  70.773  1.00  0.00    -0.063 C  
HETATM   25  C   UNL     1      -7.825   7.795  72.495  1.00  0.00    -0.108 C  
HETATM   26  C   UNL     1      -6.995   4.833  70.359  1.00  0.00    -0.045 C  
HETATM   27  C   UNL     1      -7.400   4.185  71.672  1.00  0.00    -0.059 C  
HETATM   28  C   UNL     1      -8.074   5.286  72.504  1.00  0.00    -0.103 C  
ENDBRANCH  22  23
ENDBRANCH  17  22
ENDBRANCH   9  10
ENDBRANCH   5   6
BRANCH   5  29
HETATM   29  C   UNL     1      -9.993  15.724  68.095  1.00  0.00    -0.214 A  
HETATM   30  S   UNL     1      -8.387  16.494  66.272  1.00  0.00    -0.282 SA 
HETATM   31  C   UNL     1      -8.812  15.352  67.475  1.00  0.00    -0.180 A  
HETATM   32  H2  UNL     1      -9.465  18.864  65.257  1.00  0.00     0.000 HD 
HETATM   33  H1  UNL     1     -10.936  19.064  66.202  1.00  0.00     0.000 HD 
HETATM   34  C   UNL     1      -9.800  17.394  66.636  1.00  0.00    -0.297 A  
HETATM   35  N   UNL     1     -10.096  18.528  65.985  1.00  0.00    -0.549 NA 
HETATM   36  N   UNL     1     -10.557  16.894  67.580  1.00  0.00    -0.335 NA 
ENDBRANCH   5  29
ENDBRANCH   3   5
ENDBRANCH   2   3
TORSDOF 7
ENDMDL
MODEL       28
REMARK 921   NORMALIZED FREE ENERGY PREDICTED BY IDOCK:   -5.88 KCAL/MOL
REMARK 922        TOTAL FREE ENERGY PREDICTED BY IDOCK:   -9.40 KCAL/MOL
REMARK 923 INTER-LIGAND FREE ENERGY PREDICTED BY IDOCK:   -8.67 KCAL/MOL
REMARK 924 INTRA-LIGAND FREE ENERGY PREDICTED BY IDOCK:   -0.73 KCAL/MOL
REMARK 927      BINDING AFFINITY PREDICTED BY RF-SCORE:    0.00 PKD
ROOT
HETATM    1  C   UNL     1     -12.294  14.257  65.158  1.00  0.00    -0.424 C  
HETATM    2  O   UNL     1     -12.594  13.726  66.442  1.00  0.00    -0.389 OA 
ENDROOT
BRANCH   2   3
HETATM    3  N   UNL     1     -12.295  14.692  67.410  1.00  0.00    -0.521 NA 
HETATM    4  H   UNL     1     -12.606  15.662  67.357  1.00  0.00     0.000 HD 
BRANCH   3   5
HETATM    5  C   UNL     1     -11.574  14.213  68.388  1.00  0.00    -0.318 C  
BRANCH   5   6
HETATM    6  C   UNL     1     -10.417  13.205  68.202  1.00  0.00    -0.248 C  
HETATM    7  H   UNL     1     -11.667  11.637  68.765  1.00  0.00     0.000 HD 
HETATM    8  O   UNL     1      -9.308  13.560  67.825  1.00  0.00    -0.197 OA 
HETATM    9  N   UNL     1     -10.701  11.902  68.571  1.00  0.00    -0.216 N  
BRANCH   9  10
HETATM   10  CA  UNL     1      -9.625  10.873  68.693  1.00  0.00    -0.190 C  
HETATM   11  N   UNL     1      -9.914   8.822  68.843  1.00  0.00    -0.186 N  
HETATM   12  C   UNL     1      -9.788   9.620  67.759  1.00  0.00    -0.159 C  
HETATM   13  C   UNL     1      -9.713   9.840  69.848  1.00  0.00    -0.238 C  
HETATM   14  O   UNL     1      -9.936   9.461  66.573  1.00  0.00    -0.231 OA 
HETATM   15  S   UNL     1     -11.190   9.826  70.891  1.00  0.00    -0.378 SA 
HETATM   16  C   UNL     1     -10.879   8.134  71.432  1.00  0.00    -0.234 C  
HETATM   17  C   UNL     1     -10.603   7.124  70.342  1.00  0.00    -0.242 C  
HETATM   18  CA  UNL     1     -10.161   7.500  69.106  1.00  0.00    -0.192 C  
HETATM   19  O   UNL     1      -8.744   6.547  67.425  1.00  0.00    -0.117 OA 
HETATM   20  C   UNL     1      -9.865   6.427  67.988  1.00  0.00    -0.123 C  
HETATM   21  OXT UNL     1     -10.720   5.493  67.931  1.00  0.00    -0.190 OA 
BRANCH  17  22
HETATM   22  C   UNL     1     -10.704   5.666  70.793  1.00  0.00    -0.250 C  
BRANCH  22  23
HETATM   23  N   UNL     1      -9.583   5.034  71.701  1.00  0.00    -0.151 N  
HETATM   24  C   UNL     1      -9.890   3.712  72.379  1.00  0.00    -0.160 C  
HETATM   25  C   UNL     1      -8.302   4.959  70.881  1.00  0.00    -0.107 C  
HETATM   26  C   UNL     1     -10.875   4.091  73.460  1.00  0.00    -0.336 C  
HETATM   27  C   UNL     1     -10.220   5.325  74.055  1.00  0.00    -0.273 C  
HETATM   28  C   UNL     1      -9.384   5.953  72.930  1.00  0.00    -0.147 C  
ENDBRANCH  22  23
ENDBRANCH  17  22
ENDBRANCH   9  10
ENDBRANCH   5   6
BRANCH   5  29
HETATM   29  C   UNL     1     -11.914  14.704  69.728  1.00  0.00    -0.329 A  
HETATM   30  S   UNL     1     -11.978  16.025  71.907  1.00  0.00    -0.528 SA 
HETATM   31  C   UNL     1     -11.322  15.795  70.342  1.00  0.00    -0.374 A  
HETATM   32  H2  UNL     1     -13.915  14.783  73.493  1.00  0.00     0.000 HD 
HETATM   33  H1  UNL     1     -14.490  13.477  72.463  1.00  0.00     0.000 HD 
HETATM   34  C   UNL     1     -13.013  14.680  71.663  1.00  0.00    -0.335 A  
HETATM   35  N   UNL     1     -13.875  14.278  72.608  1.00  0.00    -0.613 NA 
HETATM   36  N   UNL     1     -12.902  14.089  70.499  1.00  0.00    -0.275 NA 
ENDBRANCH   5  29
ENDBRANCH   3   5
ENDBRANCH   2   3
TORSDOF 7
ENDMDL
MODEL       29
REMARK 921   NORMALIZED FREE ENERGY PREDICTED BY IDOCK:   -5.85 KCAL/MOL
REMARK 922        TOTAL FREE ENERGY PREDICTED BY IDOCK:   -9.37 KCAL/MOL
REMARK 923 INTER-LIGAND FREE ENERGY PREDICTED BY IDOCK:   -8.26 KCAL/MOL
REMARK 924 INTRA-LIGAND FREE ENERGY PREDICTED BY IDOCK:   -1.11 KCAL/MOL
REMARK 927      BINDING AFFINITY PREDICTED BY RF-SCORE:    0.00 PKD
ROOT
HETATM    1  C   UNL     1     -10.573   5.377  66.917  1.00  0.00    -0.250 C  
HETATM    2  O   UNL     1     -10.695   5.769  68.278  1.00  0.00    -0.236 OA 
ENDROOT
BRANCH   2   3
HETATM    3  N   UNL     1     -11.294   7.032  68.331  1.00  0.00    -0.467 NA 
HETATM    4  H   UNL     1     -12.231   7.230  67.982  1.00  0.00     0.000 HD 
BRANCH   3   5
HETATM    5  C   UNL     1     -10.517   7.930  68.876  1.00  0.00    -0.190 C  
BRANCH   5   6
HETATM    6  C   UNL     1      -9.674   8.951  68.078  1.00  0.00    -0.156 C  
HETATM    7  H   UNL     1     -10.925  10.497  68.696  1.00  0.00     0.000 HD 
HETATM    8  O   UNL     1      -8.682   8.613  67.446  1.00  0.00    -0.132 OA 
HETATM    9  N   UNL     1     -10.167  10.244  68.062  1.00  0.00    -0.161 N  
BRANCH   9  10
HETATM   10  CA  UNL     1      -9.615  11.278  67.137  1.00  0.00    -0.177 C  
HETATM   11  N   UNL     1      -9.187  13.249  67.632  1.00  0.00    -0.200 N  
HETATM   12  C   UNL     1      -8.431  12.132  67.717  1.00  0.00    -0.160 C  
HETATM   13  C   UNL     1     -10.349  12.641  67.025  1.00  0.00    -0.232 C  
HETATM   14  O   UNL     1      -7.364  11.873  68.215  1.00  0.00    -0.080 OA 
HETATM   15  S   UNL     1     -11.737  12.975  68.135  1.00  0.00    -0.350 SA 
HETATM   16  C   UNL     1     -11.589  14.757  67.903  1.00  0.00    -0.351 C  
HETATM   17  C   UNL     1     -10.205  15.340  68.079  1.00  0.00    -0.230 C  
HETATM   18  CA  UNL     1      -9.080  14.576  67.961  1.00  0.00    -0.185 C  
HETATM   19  O   UNL     1      -6.831  14.930  67.213  1.00  0.00    -0.254 OA 
HETATM   20  C   UNL     1      -7.646  15.208  68.134  1.00  0.00    -0.112 C  
HETATM   21  OXT UNL     1      -7.563  16.046  69.083  1.00  0.00    -0.203 OA 
BRANCH  17  22
HETATM   22  C   UNL     1     -10.177  16.861  68.233  1.00  0.00    -0.318 C  
BRANCH  22  23
HETATM   23  N   UNL     1      -9.970  17.786  66.976  1.00  0.00    -0.309 N  
HETATM   24  C   UNL     1      -8.580  18.348  66.738  1.00  0.00    -0.276 C  
HETATM   25  C   UNL     1     -10.490  17.040  65.754  1.00  0.00    -0.251 C  
HETATM   26  C   UNL     1      -8.434  19.393  67.818  1.00  0.00    -0.345 C  
HETATM   27  C   UNL     1      -9.768  20.113  67.735  1.00  0.00    -0.529 C  
HETATM   28  C   UNL     1     -10.777  19.087  67.198  1.00  0.00    -0.456 C  
ENDBRANCH  22  23
ENDBRANCH  17  22
ENDBRANCH   9  10
ENDBRANCH   5   6
BRANCH   5  29
HETATM   29  C   UNL     1     -10.490   7.941  70.343  1.00  0.00    -0.218 A  
HETATM   30  S   UNL     1     -11.141   7.817  72.804  1.00  0.00    -0.393 SA 
HETATM   31  C   UNL     1     -11.580   7.678  71.154  1.00  0.00    -0.280 A  
HETATM   32  H2  UNL     1      -8.818   8.415  74.238  1.00  0.00     0.000 HD 
HETATM   33  H1  UNL     1      -7.628   8.676  72.968  1.00  0.00     0.000 HD 
HETATM   34  C   UNL     1      -9.536   8.197  72.337  1.00  0.00    -0.251 A  
HETATM   35  N   UNL     1      -8.583   8.449  73.246  1.00  0.00    -0.356 NA 
HETATM   36  N   UNL     1      -9.316   8.217  71.046  1.00  0.00    -0.148 NA 
ENDBRANCH   5  29
ENDBRANCH   3   5
ENDBRANCH   2   3
TORSDOF 7
ENDMDL
MODEL       30
REMARK 921   NORMALIZED FREE ENERGY PREDICTED BY IDOCK:   -5.80 KCAL/MOL
REMARK 922        TOTAL FREE ENERGY PREDICTED BY IDOCK:   -9.29 KCAL/MOL
REMARK 923 INTER-LIGAND FREE ENERGY PREDICTED BY IDOCK:   -8.37 KCAL/MOL
REMARK 924 INTRA-LIGAND FREE ENERGY PREDICTED BY IDOCK:   -0.92 KCAL/MOL
REMARK 927      BINDING AFFINITY PREDICTED BY RF-SCORE:    0.00 PKD
ROOT
HETATM    1  C   UNL     1     -13.612   9.010  72.019  1.00  0.00    -0.445 C  
HETATM    2  O   UNL     1     -13.200  10.348  71.771  1.00  0.00    -0.420 OA 
ENDROOT
BRANCH   2   3
HETATM    3  N   UNL     1     -13.251  10.588  70.394  1.00  0.00    -0.371 NA 
HETATM    4  H   UNL     1     -14.002  10.256  69.788  1.00  0.00     0.000 HD 
BRANCH   3   5
HETATM    5  C   UNL     1     -12.231  11.284  69.969  1.00  0.00    -0.314 C  
BRANCH   5   6
HETATM    6  C   UNL     1     -12.023  12.788  70.259  1.00  0.00    -0.280 C  
HETATM    7  H   UNL     1     -10.860  12.978  68.542  1.00  0.00     0.000 HD 
HETATM    8  O   UNL     1     -12.532  13.334  71.229  1.00  0.00    -0.343 OA 
HETATM    9  N   UNL     1     -11.162  13.445  69.397  1.00  0.00    -0.216 N  
BRANCH   9  10
HETATM   10  CA  UNL     1     -10.663  14.821  69.691  1.00  0.00    -0.189 C  
HETATM   11  N   UNL     1     -10.098  16.237  68.281  1.00  0.00    -0.237 N  
HETATM   12  C   UNL     1     -11.304  15.965  68.826  1.00  0.00    -0.378 C  
HETATM   13  C   UNL     1      -9.329  15.281  69.043  1.00  0.00    -0.231 C  
HETATM   14  O   UNL     1     -12.433  16.322  68.596  1.00  0.00     0.480 OA 
HETATM   15  S   UNL     1      -8.528  14.196  67.840  1.00  0.00    -0.182 SA 
HETATM   16  C   UNL     1      -7.582  15.558  67.132  1.00  0.00    -0.218 C  
HETATM   17  C   UNL     1      -8.368  16.796  66.764  1.00  0.00    -0.272 C  
HETATM   18  CA  UNL     1      -9.582  17.073  67.324  1.00  0.00    -0.244 C  
HETATM   19  O   UNL     1     -10.790  19.055  67.915  1.00  0.00    -0.348 OA 
HETATM   20  C   UNL     1     -10.377  18.378  66.936  1.00  0.00    -0.390 C  
HETATM   21  OXT UNL     1     -10.343  18.654  65.699  1.00  0.00    -0.572 OA 
BRANCH  17  22
HETATM   22  C   UNL     1      -7.619  17.770  65.853  1.00  0.00    -0.135 C  
BRANCH  22  23
HETATM   23  N   UNL     1      -6.406  18.606  66.406  1.00  0.00    -0.183 N  
HETATM   24  C   UNL     1      -6.138  18.553  67.899  1.00  0.00    -0.187 C  
HETATM   25  C   UNL     1      -5.169  18.229  65.601  1.00  0.00    -0.177 C  
HETATM   26  C   UNL     1      -7.266  19.367  68.488  1.00  0.00    -0.356 C  
HETATM   27  C   UNL     1      -7.280  20.581  67.577  1.00  0.00    -0.368 C  
HETATM   28  C   UNL     1      -6.733  20.108  66.222  1.00  0.00    -0.222 C  
ENDBRANCH  22  23
ENDBRANCH  17  22
ENDBRANCH   9  10
ENDBRANCH   5   6
BRANCH   5  29
HETATM   29  C   UNL     1     -11.238  10.543  69.185  1.00  0.00    -0.256 A  
HETATM   30  S   UNL     1      -9.237   9.132  68.474  1.00  0.00    -0.135 SA 
HETATM   31  C   UNL     1     -10.178   9.832  69.722  1.00  0.00    -0.242 A  
HETATM   32  H2  UNL     1      -9.312   9.056  65.682  1.00  0.00     0.000 HD 
HETATM   33  H1  UNL     1     -10.743  10.007  65.299  1.00  0.00     0.000 HD 
HETATM   34  C   UNL     1     -10.302   9.799  67.307  1.00  0.00    -0.248 A  
HETATM   35  N   UNL     1     -10.110   9.610  65.994  1.00  0.00    -0.276 NA 
HETATM   36  N   UNL     1     -11.302  10.493  67.791  1.00  0.00    -0.415 NA 
ENDBRANCH   5  29
ENDBRANCH   3   5
ENDBRANCH   2   3
TORSDOF 7
ENDMDL
MODEL       31
REMARK 921   NORMALIZED FREE ENERGY PREDICTED BY IDOCK:   -5.80 KCAL/MOL
REMARK 922        TOTAL FREE ENERGY PREDICTED BY IDOCK:   -9.29 KCAL/MOL
REMARK 923 INTER-LIGAND FREE ENERGY PREDICTED BY IDOCK:   -8.40 KCAL/MOL
REMARK 924 INTRA-LIGAND FREE ENERGY PREDICTED BY IDOCK:   -0.89 KCAL/MOL
REMARK 927      BINDING AFFINITY PREDICTED BY RF-SCORE:    0.00 PKD
ROOT
HETATM    1  C   UNL     1     -10.717   6.104  66.802  1.00  0.00    -0.299 C  
HETATM    2  O   UNL     1     -10.987   7.449  67.177  1.00  0.00    -0.312 OA 
ENDROOT
BRANCH   2   3
HETATM    3  N   UNL     1     -11.072   7.520  68.571  1.00  0.00    -0.421 NA 
HETATM    4  H   UNL     1     -11.391   6.751  69.160  1.00  0.00     0.000 HD 
BRANCH   3   5
HETATM    5  C   UNL     1     -10.698   8.683  69.036  1.00  0.00    -0.101 C  
BRANCH   5   6
HETATM    6  C   UNL     1      -9.503   9.495  68.487  1.00  0.00    -0.141 C  
HETATM    7  H   UNL     1     -10.789  11.027  67.903  1.00  0.00     0.000 HD 
HETATM    8  O   UNL     1      -8.354   9.082  68.562  1.00  0.00    -0.121 OA 
HETATM    9  N   UNL     1      -9.835  10.671  67.836  1.00  0.00    -0.159 N  
BRANCH   9  10
HETATM   10  CA  UNL     1      -8.829  11.430  67.036  1.00  0.00    -0.168 C  
HETATM   11  N   UNL     1      -8.332  13.431  67.289  1.00  0.00    -0.187 N  
HETATM   12  C   UNL     1      -7.839  12.317  67.873  1.00  0.00    -0.146 C  
HETATM   13  C   UNL     1      -9.256  12.776  66.391  1.00  0.00    -0.145 C  
HETATM   14  O   UNL     1      -7.089  12.111  68.795  1.00  0.00    -0.102 OA 
HETATM   15  S   UNL     1     -10.894  13.441  66.771  1.00  0.00    -0.283 SA 
HETATM   16  C   UNL     1     -10.407  15.110  66.294  1.00  0.00    -0.294 C  
HETATM   17  C   UNL     1      -9.122  15.629  66.899  1.00  0.00    -0.260 C  
HETATM   18  CA  UNL     1      -8.162  14.788  67.384  1.00  0.00    -0.196 C  
HETATM   19  O   UNL     1      -5.772  14.820  67.547  1.00  0.00    -0.332 OA 
HETATM   20  C   UNL     1      -6.823  15.351  67.997  1.00  0.00    -0.140 C  
HETATM   21  OXT UNL     1      -6.980  16.375  68.728  1.00  0.00    -0.151 OA 
BRANCH  17  22
HETATM   22  C   UNL     1      -8.930  17.141  66.769  1.00  0.00    -0.241 C  
BRANCH  22  23
HETATM   23  N   UNL     1      -9.777  18.131  67.652  1.00  0.00    -0.285 N  
HETATM   24  C   UNL     1     -10.872  18.925  66.965  1.00  0.00    -0.313 C  
HETATM   25  C   UNL     1     -10.314  17.353  68.846  1.00  0.00    -0.340 C  
HETATM   26  C   UNL     1     -10.110  19.941  66.147  1.00  0.00    -0.611 C  
HETATM   27  C   UNL     1      -9.077  20.430  67.147  1.00  0.00    -0.489 C  
HETATM   28  C   UNL     1      -8.843  19.270  68.127  1.00  0.00    -0.330 C  
ENDBRANCH  22  23
ENDBRANCH  17  22
ENDBRANCH   9  10
ENDBRANCH   5   6
BRANCH   5  29
HETATM   29  C   UNL     1     -11.505   9.216  70.139  1.00  0.00    -0.087 A  
HETATM   30  S   UNL     1     -12.920   9.450  72.246  1.00  0.00    -0.370 SA 
HETATM   31  C   UNL     1     -12.013   8.461  71.183  1.00  0.00    -0.272 A  
HETATM   32  H2  UNL     1     -13.606  12.154  72.406  1.00  0.00     0.000 HD 
HETATM   33  H1  UNL     1     -12.822  12.845  70.991  1.00  0.00     0.000 HD 
HETATM   34  C   UNL     1     -12.568  10.813  71.268  1.00  0.00    -0.426 A  
HETATM   35  N   UNL     1     -13.031  12.034  71.573  1.00  0.00    -0.369 NA 
HETATM   36  N   UNL     1     -11.820  10.574  70.220  1.00  0.00    -0.303 NA 
ENDBRANCH   5  29
ENDBRANCH   3   5
ENDBRANCH   2   3
TORSDOF 7
ENDMDL
MODEL       32
REMARK 921   NORMALIZED FREE ENERGY PREDICTED BY IDOCK:   -5.80 KCAL/MOL
REMARK 922        TOTAL FREE ENERGY PREDICTED BY IDOCK:   -9.28 KCAL/MOL
REMARK 923 INTER-LIGAND FREE ENERGY PREDICTED BY IDOCK:   -8.33 KCAL/MOL
REMARK 924 INTRA-LIGAND FREE ENERGY PREDICTED BY IDOCK:   -0.95 KCAL/MOL
REMARK 927      BINDING AFFINITY PREDICTED BY RF-SCORE:    0.00 PKD
ROOT
HETATM    1  C   UNL     1     -13.112  10.835  71.891  1.00  0.00    -0.451 C  
HETATM    2  O   UNL     1     -11.936  10.129  71.515  1.00  0.00    -0.374 OA 
ENDROOT
BRANCH   2   3
HETATM    3  N   UNL     1     -12.257   9.231  70.491  1.00  0.00    -0.483 NA 
HETATM    4  H   UNL     1     -13.209   8.933  70.277  1.00  0.00     0.000 HD 
BRANCH   3   5
HETATM    5  C   UNL     1     -11.203   8.816  69.842  1.00  0.00    -0.051 C  
BRANCH   5   6
HETATM    6  C   UNL     1     -10.597   9.537  68.616  1.00  0.00    -0.210 C  
HETATM    7  H   UNL     1      -9.795  11.007  69.854  1.00  0.00     0.000 HD 
HETATM    8  O   UNL     1     -10.725   9.097  67.481  1.00  0.00    -0.273 OA 
HETATM    9  N   UNL     1      -9.979  10.746  68.886  1.00  0.00    -0.196 N  
BRANCH   9  10
HETATM   10  CA  UNL     1      -9.574  11.676  67.790  1.00  0.00    -0.178 C  
HETATM   11  N   UNL     1      -9.056  13.674  68.020  1.00  0.00    -0.186 N  
HETATM   12  C   UNL     1      -8.305  12.553  68.091  1.00  0.00    -0.175 C  
HETATM   13  C   UNL     1     -10.305  13.040  67.666  1.00  0.00    -0.222 C  
HETATM   14  O   UNL     1      -7.174  12.317  68.435  1.00  0.00    -0.088 OA 
HETATM   15  S   UNL     1     -11.494  13.507  68.946  1.00  0.00    -0.328 SA 
HETATM   16  C   UNL     1     -11.371  15.256  68.524  1.00  0.00    -0.327 C  
HETATM   17  C   UNL     1      -9.972  15.821  68.421  1.00  0.00    -0.217 C  
HETATM   18  CA  UNL     1      -8.886  15.023  68.200  1.00  0.00    -0.167 C  
HETATM   19  O   UNL     1      -6.784  15.254  67.074  1.00  0.00    -0.251 OA 
HETATM   20  C   UNL     1      -7.438  15.636  68.082  1.00  0.00    -0.124 C  
HETATM   21  OXT UNL     1      -7.198  16.555  68.921  1.00  0.00    -0.183 OA 
BRANCH  17  22
HETATM   22  C   UNL     1      -9.908  17.349  68.423  1.00  0.00    -0.316 C  
BRANCH  22  23
HETATM   23  N   UNL     1      -9.834  18.145  67.067  1.00  0.00    -0.308 N  
HETATM   24  C   UNL     1      -8.507  18.780  66.695  1.00  0.00    -0.294 C  
HETATM   25  C   UNL     1     -10.349  17.234  65.960  1.00  0.00    -0.305 C  
HETATM   26  C   UNL     1      -8.394  19.944  67.652  1.00  0.00    -0.362 C  
HETATM   27  C   UNL     1      -9.784  20.549  67.567  1.00  0.00    -0.554 C  
HETATM   28  C   UNL     1     -10.732  19.399  67.196  1.00  0.00    -0.483 C  
ENDBRANCH  22  23
ENDBRANCH  17  22
ENDBRANCH   9  10
ENDBRANCH   5   6
BRANCH   5  29
HETATM   29  C   UNL     1     -10.581   7.591  70.357  1.00  0.00    -0.229 A  
HETATM   30  S   UNL     1     -10.038   5.158  70.886  1.00  0.00    -0.233 SA 
HETATM   31  C   UNL     1     -11.013   6.307  70.072  1.00  0.00    -0.358 A  
HETATM   32  H2  UNL     1      -7.829   5.225  72.597  1.00  0.00     0.000 HD 
HETATM   33  H1  UNL     1      -7.504   6.947  72.754  1.00  0.00     0.000 HD 
HETATM   34  C   UNL     1      -9.098   6.432  71.545  1.00  0.00    -0.144 A  
HETATM   35  N   UNL     1      -8.063   6.190  72.362  1.00  0.00    -0.105 NA 
HETATM   36  N   UNL     1      -9.461   7.639  71.191  1.00  0.00    -0.155 NA 
ENDBRANCH   5  29
ENDBRANCH   3   5
ENDBRANCH   2   3
TORSDOF 7
ENDMDL
MODEL       33
REMARK 921   NORMALIZED FREE ENERGY PREDICTED BY IDOCK:   -5.78 KCAL/MOL
REMARK 922        TOTAL FREE ENERGY PREDICTED BY IDOCK:   -9.26 KCAL/MOL
REMARK 923 INTER-LIGAND FREE ENERGY PREDICTED BY IDOCK:   -8.09 KCAL/MOL
REMARK 924 INTRA-LIGAND FREE ENERGY PREDICTED BY IDOCK:   -1.17 KCAL/MOL
REMARK 927      BINDING AFFINITY PREDICTED BY RF-SCORE:    0.00 PKD
ROOT
HETATM    1  C   UNL     1     -12.822  15.622  71.748  1.00  0.00    -0.458 C  
HETATM    2  O   UNL     1     -12.759  15.889  70.352  1.00  0.00    -0.372 OA 
ENDROOT
BRANCH   2   3
HETATM    3  N   UNL     1     -11.415  15.954  69.967  1.00  0.00    -0.337 NA 
HETATM    4  H   UNL     1     -10.691  16.421  70.512  1.00  0.00     0.000 HD 
BRANCH   3   5
HETATM    5  C   UNL     1     -11.192  15.348  68.831  1.00  0.00    -0.292 C  
BRANCH   5   6
HETATM    6  C   UNL     1     -11.858  14.019  68.409  1.00  0.00    -0.362 C  
HETATM    7  H   UNL     1     -11.398  13.179  70.258  1.00  0.00     0.000 HD 
HETATM    8  O   UNL     1     -12.386  13.882  67.313  1.00  0.00    -0.347 OA 
HETATM    9  N   UNL     1     -11.740  12.982  69.318  1.00  0.00    -0.304 N  
BRANCH   9  10
HETATM   10  CA  UNL     1     -12.101  11.580  68.953  1.00  0.00    -0.206 C  
HETATM   11  N   UNL     1     -11.019   9.877  69.444  1.00  0.00    -0.236 N  
HETATM   12  C   UNL     1     -11.988  10.533  70.119  1.00  0.00    -0.316 C  
HETATM   13  C   UNL     1     -11.034  10.696  68.254  1.00  0.00    -0.263 C  
HETATM   14  O   UNL     1     -12.436  10.458  71.236  1.00  0.00    -0.345 OA 
HETATM   15  S   UNL     1      -9.358  11.346  68.061  1.00  0.00    -0.177 SA 
HETATM   16  C   UNL     1      -8.663   9.695  67.853  1.00  0.00    -0.119 C  
HETATM   17  C   UNL     1      -9.059   8.669  68.890  1.00  0.00    -0.145 C  
HETATM   18  CA  UNL     1     -10.188   8.806  69.647  1.00  0.00    -0.210 C  
HETATM   19  O   UNL     1     -11.783   7.319  70.639  1.00  0.00    -0.303 OA 
HETATM   20  C   UNL     1     -10.588   7.715  70.713  1.00  0.00    -0.221 C  
HETATM   21  OXT UNL     1      -9.611   7.264  71.382  1.00  0.00    -0.161 OA 
BRANCH  17  22
HETATM   22  C   UNL     1      -8.188   7.411  68.896  1.00  0.00    -0.129 C  
BRANCH  22  23
HETATM   23  N   UNL     1      -8.212   6.420  67.674  1.00  0.00    -0.117 N  
HETATM   24  C   UNL     1      -9.478   6.364  66.838  1.00  0.00    -0.143 C  
HETATM   25  C   UNL     1      -6.986   6.703  66.816  1.00  0.00    -0.067 C  
HETATM   26  C   UNL     1     -10.460   5.648  67.735  1.00  0.00    -0.275 C  
HETATM   27  C   UNL     1      -9.621   4.493  68.251  1.00  0.00    -0.203 C  
HETATM   28  C   UNL     1      -8.163   4.975  68.226  1.00  0.00    -0.089 C  
ENDBRANCH  22  23
ENDBRANCH  17  22
ENDBRANCH   9  10
ENDBRANCH   5   6
BRANCH   5  29
HETATM   29  C   UNL     1     -10.253  16.021  67.927  1.00  0.00    -0.258 A  
HETATM   30  S   UNL     1      -8.267  16.568  66.425  1.00  0.00    -0.330 SA 
HETATM   31  C   UNL     1      -9.099  15.448  67.418  1.00  0.00    -0.197 A  
HETATM   32  H2  UNL     1      -8.655  19.202  65.579  1.00  0.00     0.000 HD 
HETATM   33  H1  UNL     1     -10.173  19.645  66.351  1.00  0.00     0.000 HD 
HETATM   34  C   UNL     1      -9.495  17.728  66.717  1.00  0.00    -0.285 A  
HETATM   35  N   UNL     1      -9.444  18.954  66.177  1.00  0.00    -0.471 NA 
HETATM   36  N   UNL     1     -10.473  17.329  67.492  1.00  0.00    -0.356 NA 
ENDBRANCH   5  29
ENDBRANCH   3   5
ENDBRANCH   2   3
TORSDOF 7
ENDMDL
MODEL       34
REMARK 921   NORMALIZED FREE ENERGY PREDICTED BY IDOCK:   -5.78 KCAL/MOL
REMARK 922        TOTAL FREE ENERGY PREDICTED BY IDOCK:   -9.26 KCAL/MOL
REMARK 923 INTER-LIGAND FREE ENERGY PREDICTED BY IDOCK:   -7.90 KCAL/MOL
REMARK 924 INTRA-LIGAND FREE ENERGY PREDICTED BY IDOCK:   -1.35 KCAL/MOL
REMARK 927      BINDING AFFINITY PREDICTED BY RF-SCORE:    0.00 PKD
ROOT
HETATM    1  C   UNL     1     -11.766  15.234  64.527  1.00  0.00    -0.305 C  
HETATM    2  O   UNL     1     -10.852  15.591  65.557  1.00  0.00    -0.337 OA 
ENDROOT
BRANCH   2   3
HETATM    3  N   UNL     1     -11.444  15.325  66.797  1.00  0.00    -0.199 NA 
HETATM    4  H   UNL     1     -12.210  15.873  67.188  1.00  0.00     0.000 HD 
BRANCH   3   5
HETATM    5  C   UNL     1     -10.907  14.297  67.397  1.00  0.00    -0.285 C  
BRANCH   5   6
HETATM    6  C   UNL     1     -11.607  12.931  67.577  1.00  0.00    -0.356 C  
HETATM    7  H   UNL     1     -11.159  12.948  69.610  1.00  0.00     0.000 HD 
HETATM    8  O   UNL     1     -12.143  12.353  66.640  1.00  0.00    -0.592 OA 
HETATM    9  N   UNL     1     -11.510  12.377  68.842  1.00  0.00    -0.284 N  
BRANCH   9  10
HETATM   10  CA  UNL     1     -11.907  10.962  69.106  1.00  0.00    -0.317 C  
HETATM   11  N   UNL     1     -10.937   9.645  70.386  1.00  0.00    -0.275 N  
HETATM   12  C   UNL     1     -11.920  10.542  70.620  1.00  0.00    -0.357 C  
HETATM   13  C   UNL     1     -10.834   9.850  68.960  1.00  0.00    -0.215 C  
HETATM   14  O   UNL     1     -12.447  10.975  71.615  1.00  0.00    -0.310 OA 
HETATM   15  S   UNL     1      -9.122  10.332  68.636  1.00  0.00    -0.159 SA 
HETATM   16  C   UNL     1      -8.488   8.754  69.237  1.00  0.00    -0.122 C  
HETATM   17  C   UNL     1      -8.999   8.299  70.585  1.00  0.00    -0.161 C  
HETATM   18  CA  UNL     1     -10.170   8.768  71.109  1.00  0.00    -0.246 C  
HETATM   19  O   UNL     1     -11.893   7.892  72.522  1.00  0.00    -0.354 OA 
HETATM   20  C   UNL     1     -10.691   8.269  72.510  1.00  0.00    -0.341 C  
HETATM   21  OXT UNL     1      -9.782   8.153  73.387  1.00  0.00    -0.248 OA 
BRANCH  17  22
HETATM   22  C   UNL     1      -8.187   7.168  71.217  1.00  0.00    -0.108 C  
BRANCH  22  23
HETATM   23  N   UNL     1      -8.198   5.728  70.581  1.00  0.00    -0.117 N  
HETATM   24  C   UNL     1      -9.351   5.375  69.659  1.00  0.00    -0.135 C  
HETATM   25  C   UNL     1      -6.852   5.503  69.906  1.00  0.00    -0.060 C  
HETATM   26  C   UNL     1     -10.521   5.218  70.602  1.00  0.00    -0.306 C  
HETATM   27  C   UNL     1      -9.912   4.381  71.713  1.00  0.00    -0.257 C  
HETATM   28  C   UNL     1      -8.409   4.701  71.719  1.00  0.00    -0.109 C  
ENDBRANCH  22  23
ENDBRANCH  17  22
ENDBRANCH   9  10
ENDBRANCH   5   6
BRANCH   5  29
HETATM   29  C   UNL     1      -9.544  14.497  67.902  1.00  0.00    -0.217 A  
HETATM   30  S   UNL     1      -7.521  15.265  69.249  1.00  0.00    -0.213 SA 
HETATM   31  C   UNL     1      -9.216  15.265  69.007  1.00  0.00    -0.223 A  
HETATM   32  H2  UNL     1      -5.298  14.115  68.008  1.00  0.00     0.000 HD 
HETATM   33  H1  UNL     1      -6.013  13.204  66.683  1.00  0.00     0.000 HD 
HETATM   34  C   UNL     1      -7.334  14.236  67.890  1.00  0.00    -0.156 A  
HETATM   35  N   UNL     1      -6.125  13.815  67.491  1.00  0.00    -0.340 NA 
HETATM   36  N   UNL     1      -8.444  13.896  67.286  1.00  0.00    -0.200 NA 
ENDBRANCH   5  29
ENDBRANCH   3   5
ENDBRANCH   2   3
TORSDOF 7
ENDMDL
MODEL       35
REMARK 921   NORMALIZED FREE ENERGY PREDICTED BY IDOCK:   -5.74 KCAL/MOL
REMARK 922        TOTAL FREE ENERGY PREDICTED BY IDOCK:   -9.21 KCAL/MOL
REMARK 923 INTER-LIGAND FREE ENERGY PREDICTED BY IDOCK:   -8.40 KCAL/MOL
REMARK 924 INTRA-LIGAND FREE ENERGY PREDICTED BY IDOCK:   -0.81 KCAL/MOL
REMARK 927      BINDING AFFINITY PREDICTED BY RF-SCORE:    0.00 PKD
ROOT
HETATM    1  C   UNL     1     -13.235   8.388  71.773  1.00  0.00    -0.355 C  
HETATM    2  O   UNL     1     -11.885   8.201  71.367  1.00  0.00    -0.283 OA 
ENDROOT
BRANCH   2   3
HETATM    3  N   UNL     1     -11.195   9.407  71.527  1.00  0.00    -0.378 NA 
HETATM    4  H   UNL     1     -11.200   9.954  72.388  1.00  0.00     0.000 HD 
BRANCH   3   5
HETATM    5  C   UNL     1     -10.543   9.756  70.450  1.00  0.00    -0.304 C  
BRANCH   5   6
HETATM    6  C   UNL     1     -11.166  10.539  69.272  1.00  0.00    -0.262 C  
HETATM    7  H   UNL     1     -10.765  12.342  70.232  1.00  0.00     0.000 HD 
HETATM    8  O   UNL     1     -11.614   9.969  68.285  1.00  0.00    -0.110 OA 
HETATM    9  N   UNL     1     -11.256  11.908  69.451  1.00  0.00    -0.236 N  
BRANCH   9  10
HETATM   10  CA  UNL     1     -12.056  12.765  68.526  1.00  0.00    -0.100 C  
HETATM   11  N   UNL     1     -11.357  14.429  67.498  1.00  0.00    -0.312 N  
HETATM   12  C   UNL     1     -11.355  13.119  67.166  1.00  0.00    -0.316 C  
HETATM   13  C   UNL     1     -12.060  14.301  68.754  1.00  0.00    -0.265 C  
HETATM   14  O   UNL     1     -10.848  12.475  66.281  1.00  0.00    -0.258 OA 
HETATM   15  S   UNL     1     -10.972  14.994  70.020  1.00  0.00    -0.219 SA 
HETATM   16  C   UNL     1     -11.024  16.633  69.271  1.00  0.00    -0.261 C  
HETATM   17  C   UNL     1     -10.744  16.697  67.786  1.00  0.00    -0.327 C  
HETATM   18  CA  UNL     1     -10.897  15.610  66.976  1.00  0.00    -0.294 C  
HETATM   19  O   UNL     1     -11.528  15.242  64.694  1.00  0.00    -0.406 OA 
HETATM   20  C   UNL     1     -10.613  15.704  65.427  1.00  0.00    -0.415 C  
HETATM   21  OXT UNL     1      -9.585  16.385  65.132  1.00  0.00    -0.245 OA 
BRANCH  17  22
HETATM   22  C   UNL     1     -10.441  18.102  67.263  1.00  0.00    -0.393 C  
BRANCH  22  23
HETATM   23  N   UNL     1      -9.271  18.951  67.888  1.00  0.00    -0.296 N  
HETATM   24  C   UNL     1      -8.546  19.925  66.978  1.00  0.00    -0.330 C  
HETATM   25  C   UNL     1      -9.807  19.642  69.135  1.00  0.00    -0.333 C  
HETATM   26  C   UNL     1      -7.725  19.026  66.083  1.00  0.00    -0.291 C  
HETATM   27  C   UNL     1      -7.132  18.052  67.085  1.00  0.00    -0.212 C  
HETATM   28  C   UNL     1      -8.121  17.985  68.258  1.00  0.00    -0.291 C  
ENDBRANCH  22  23
ENDBRANCH  17  22
ENDBRANCH   9  10
ENDBRANCH   5   6
BRANCH   5  29
HETATM   29  C   UNL     1      -9.128   9.372  70.411  1.00  0.00    -0.256 A  
HETATM   30  S   UNL     1      -6.778   8.761  69.635  1.00  0.00    -0.039 SA 
HETATM   31  C   UNL     1      -8.373   9.255  69.256  1.00  0.00    -0.124 A  
HETATM   32  H2  UNL     1      -5.342   8.158  71.955  1.00  0.00     0.000 HD 
HETATM   33  H1  UNL     1      -6.529   8.410  73.230  1.00  0.00     0.000 HD 
HETATM   34  C   UNL     1      -7.184   8.752  71.301  1.00  0.00    -0.095 A  
HETATM   35  N   UNL     1      -6.288   8.415  72.239  1.00  0.00    -0.065 NA 
HETATM   36  N   UNL     1      -8.416   9.098  71.581  1.00  0.00    -0.322 NA 
ENDBRANCH   5  29
ENDBRANCH   3   5
ENDBRANCH   2   3
TORSDOF 7
ENDMDL
MODEL       36
REMARK 921   NORMALIZED FREE ENERGY PREDICTED BY IDOCK:   -5.66 KCAL/MOL
REMARK 922        TOTAL FREE ENERGY PREDICTED BY IDOCK:   -9.09 KCAL/MOL
REMARK 923 INTER-LIGAND FREE ENERGY PREDICTED BY IDOCK:   -8.08 KCAL/MOL
REMARK 924 INTRA-LIGAND FREE ENERGY PREDICTED BY IDOCK:   -1.01 KCAL/MOL
REMARK 927      BINDING AFFINITY PREDICTED BY RF-SCORE:    0.00 PKD
ROOT
HETATM    1  C   UNL     1     -12.552  15.664  74.076  1.00  0.00    -0.628 C  
HETATM    2  O   UNL     1     -11.554  15.520  73.073  1.00  0.00    -0.439 OA 
ENDROOT
BRANCH   2   3
HETATM    3  N   UNL     1     -12.009  16.124  71.895  1.00  0.00    -0.558 NA 
HETATM    4  H   UNL     1     -12.384  17.071  71.852  1.00  0.00     0.000 HD 
BRANCH   3   5
HETATM    5  C   UNL     1     -11.900  15.338  70.857  1.00  0.00    -0.341 C  
BRANCH   5   6
HETATM    6  C   UNL     1     -12.499  13.915  70.777  1.00  0.00    -0.375 C  
HETATM    7  H   UNL     1     -10.818  13.246  69.745  1.00  0.00     0.000 HD 
HETATM    8  O   UNL     1     -13.584  13.644  71.274  1.00  0.00    -0.206 OA 
HETATM    9  N   UNL     1     -11.766  13.004  70.037  1.00  0.00    -0.262 N  
BRANCH   9  10
HETATM   10  CA  UNL     1     -12.329  11.676  69.654  1.00  0.00    -0.108 C  
HETATM   11  N   UNL     1     -11.345   9.852  69.790  1.00  0.00    -0.223 N  
HETATM   12  C   UNL     1     -12.092  10.523  70.695  1.00  0.00    -0.356 C  
HETATM   13  C   UNL     1     -11.514  10.773  68.690  1.00  0.00    -0.295 C  
HETATM   14  O   UNL     1     -12.316  10.384  71.872  1.00  0.00    -0.308 OA 
HETATM   15  S   UNL     1      -9.853  11.297  68.205  1.00  0.00    -0.203 SA 
HETATM   16  C   UNL     1      -9.380   9.620  67.742  1.00  0.00    -0.127 C  
HETATM   17  C   UNL     1      -9.663   8.541  68.762  1.00  0.00    -0.168 C  
HETATM   18  CA  UNL     1     -10.601   8.702  69.742  1.00  0.00    -0.224 C  
HETATM   19  O   UNL     1     -12.108   7.269  70.931  1.00  0.00    -0.320 OA 
HETATM   20  C   UNL     1     -10.889   7.556  70.786  1.00  0.00    -0.242 C  
HETATM   21  OXT UNL     1      -9.848   6.968  71.207  1.00  0.00    -0.176 OA 
BRANCH  17  22
HETATM   22  C   UNL     1      -8.937   7.220  68.500  1.00  0.00    -0.130 C  
BRANCH  22  23
HETATM   23  N   UNL     1      -9.425   6.257  67.354  1.00  0.00    -0.114 N  
HETATM   24  C   UNL     1      -9.083   4.784  67.481  1.00  0.00    -0.118 C  
HETATM   25  C   UNL     1     -10.921   6.470  67.166  1.00  0.00    -0.408 C  
HETATM   26  C   UNL     1      -7.599   4.742  67.200  1.00  0.00    -0.087 C  
HETATM   27  C   UNL     1      -7.491   5.632  65.975  1.00  0.00    -0.082 C  
HETATM   28  C   UNL     1      -8.661   6.624  66.059  1.00  0.00    -0.148 C  
ENDBRANCH  22  23
ENDBRANCH  17  22
ENDBRANCH   9  10
ENDBRANCH   5   6
BRANCH   5  29
HETATM   29  C   UNL     1     -11.167  15.893  69.714  1.00  0.00    -0.339 A  
HETATM   30  S   UNL     1     -10.530  16.771  67.408  1.00  0.00    -0.288 SA 
HETATM   31  C   UNL     1     -11.721  16.155  68.473  1.00  0.00    -0.170 A  
HETATM   32  H2  UNL     1      -7.807  17.381  67.550  1.00  0.00     0.000 HD 
HETATM   33  H1  UNL     1      -7.398  16.973  69.212  1.00  0.00     0.000 HD 
HETATM   34  C   UNL     1      -9.366  16.668  68.662  1.00  0.00    -0.247 A  
HETATM   35  N   UNL     1      -8.091  17.034  68.467  1.00  0.00    -0.241 NA 
HETATM   36  N   UNL     1      -9.812  16.217  69.807  1.00  0.00    -0.150 NA 
ENDBRANCH   5  29
ENDBRANCH   3   5
ENDBRANCH   2   3
TORSDOF 7
ENDMDL
MODEL       37
REMARK 921   NORMALIZED FREE ENERGY PREDICTED BY IDOCK:   -5.65 KCAL/MOL
REMARK 922        TOTAL FREE ENERGY PREDICTED BY IDOCK:   -9.07 KCAL/MOL
REMARK 923 INTER-LIGAND FREE ENERGY PREDICTED BY IDOCK:   -8.68 KCAL/MOL
REMARK 924 INTRA-LIGAND FREE ENERGY PREDICTED BY IDOCK:   -0.39 KCAL/MOL
REMARK 927      BINDING AFFINITY PREDICTED BY RF-SCORE:    0.00 PKD
ROOT
HETATM    1  C   UNL     1     -13.856   9.041  72.167  1.00  0.00    -0.466 C  
HETATM    2  O   UNL     1     -12.449   9.136  72.350  1.00  0.00    -0.352 OA 
ENDROOT
BRANCH   2   3
HETATM    3  N   UNL     1     -12.003  10.340  71.794  1.00  0.00    -0.160 NA 
HETATM    4  H   UNL     1     -12.076  11.243  72.263  1.00  0.00     0.000 HD 
BRANCH   3   5
HETATM    5  C   UNL     1     -11.483  10.179  70.607  1.00  0.00    -0.349 C  
BRANCH   5   6
HETATM    6  C   UNL     1     -11.798  11.080  69.390  1.00  0.00    -0.335 C  
HETATM    7  H   UNL     1     -11.307  12.776  70.495  1.00  0.00     0.000 HD 
HETATM    8  O   UNL     1     -12.158  10.612  68.318  1.00  0.00    -0.423 OA 
HETATM    9  N   UNL     1     -11.724  12.442  69.626  1.00  0.00    -0.313 N  
BRANCH   9  10
HETATM   10  CA  UNL     1     -12.242  13.434  68.638  1.00  0.00    -0.108 C  
HETATM   11  N   UNL     1     -11.117  14.889  67.672  1.00  0.00    -0.301 N  
HETATM   12  C   UNL     1     -11.371  13.603  67.341  1.00  0.00    -0.315 C  
HETATM   13  C   UNL     1     -11.932  14.938  68.864  1.00  0.00    -0.260 C  
HETATM   14  O   UNL     1     -10.945  12.849  66.502  1.00  0.00    -0.267 OA 
HETATM   15  S   UNL     1     -10.827  15.404  70.217  1.00  0.00    -0.298 SA 
HETATM   16  C   UNL     1     -10.461  17.001  69.466  1.00  0.00    -0.182 C  
HETATM   17  C   UNL     1     -10.053  16.977  68.010  1.00  0.00    -0.305 C  
HETATM   18  CA  UNL     1     -10.371  15.933  67.189  1.00  0.00    -0.300 C  
HETATM   19  O   UNL     1     -10.878  15.668  64.863  1.00  0.00    -0.426 OA 
HETATM   20  C   UNL     1      -9.948  15.935  65.670  1.00  0.00    -0.334 C  
HETATM   21  OXT UNL     1      -8.776  16.373  65.462  1.00  0.00    -0.244 OA 
BRANCH  17  22
HETATM   22  C   UNL     1      -9.412  18.273  67.513  1.00  0.00    -0.266 C  
BRANCH  22  23
HETATM   23  N   UNL     1      -7.904  18.591  67.835  1.00  0.00    -0.248 N  
HETATM   24  C   UNL     1      -7.587  19.936  68.462  1.00  0.00    -0.250 C  
HETATM   25  C   UNL     1      -7.349  17.441  68.666  1.00  0.00    -0.244 C  
HETATM   26  C   UNL     1      -7.790  20.911  67.326  1.00  0.00    -0.233 C  
HETATM   27  C   UNL     1      -7.072  20.210  66.186  1.00  0.00    -0.303 C  
HETATM   28  C   UNL     1      -7.140  18.706  66.494  1.00  0.00    -0.220 C  
ENDBRANCH  22  23
ENDBRANCH  17  22
ENDBRANCH   9  10
ENDBRANCH   5   6
BRANCH   5  29
HETATM   29  C   UNL     1     -10.534   9.069  70.473  1.00  0.00    -0.223 A  
HETATM   30  S   UNL     1      -8.437   7.621  70.531  1.00  0.00    -0.129 SA 
HETATM   31  C   UNL     1      -9.213   9.106  70.888  1.00  0.00    -0.261 A  
HETATM   32  H2  UNL     1      -9.158   5.189  69.360  1.00  0.00     0.000 HD 
HETATM   33  H1  UNL     1     -10.856   5.430  68.963  1.00  0.00     0.000 HD 
HETATM   34  C   UNL     1      -9.901   7.022  69.870  1.00  0.00    -0.170 A  
HETATM   35  N   UNL     1      -9.985   5.786  69.357  1.00  0.00    -0.172 NA 
HETATM   36  N   UNL     1     -10.915   7.850  69.909  1.00  0.00    -0.220 NA 
ENDBRANCH   5  29
ENDBRANCH   3   5
ENDBRANCH   2   3
TORSDOF 7
ENDMDL
MODEL       38
REMARK 921   NORMALIZED FREE ENERGY PREDICTED BY IDOCK:   -5.64 KCAL/MOL
REMARK 922        TOTAL FREE ENERGY PREDICTED BY IDOCK:   -9.07 KCAL/MOL
REMARK 923 INTER-LIGAND FREE ENERGY PREDICTED BY IDOCK:   -8.61 KCAL/MOL
REMARK 924 INTRA-LIGAND FREE ENERGY PREDICTED BY IDOCK:   -0.46 KCAL/MOL
REMARK 927      BINDING AFFINITY PREDICTED BY RF-SCORE:    0.00 PKD
ROOT
HETATM    1  C   UNL     1      -7.088  14.884  69.644  1.00  0.00    -0.179 C  
HETATM    2  O   UNL     1      -8.124  14.131  69.026  1.00  0.00    -0.078 OA 
ENDROOT
BRANCH   2   3
HETATM    3  N   UNL     1      -9.350  14.755  69.285  1.00  0.00    -0.393 NA 
HETATM    4  H   UNL     1      -9.544  15.295  70.128  1.00  0.00     0.000 HD 
BRANCH   3   5
HETATM    5  C   UNL     1     -10.218  14.567  68.326  1.00  0.00    -0.234 C  
BRANCH   5   6
HETATM    6  C   UNL     1     -11.071  13.289  68.164  1.00  0.00    -0.259 C  
HETATM    7  H   UNL     1     -11.339  13.183  70.226  1.00  0.00     0.000 HD 
HETATM    8  O   UNL     1     -11.314  12.812  67.063  1.00  0.00    -0.281 OA 
HETATM    9  N   UNL     1     -11.465  12.685  69.346  1.00  0.00    -0.279 N  
BRANCH   9  10
HETATM   10  CA  UNL     1     -12.068  11.319  69.360  1.00  0.00    -0.315 C  
HETATM   11  N   UNL     1     -11.450   9.728  70.542  1.00  0.00    -0.281 N  
HETATM   12  C   UNL     1     -12.334  10.720  70.788  1.00  0.00    -0.383 C  
HETATM   13  C   UNL     1     -11.135  10.092  69.180  1.00  0.00    -0.212 C  
HETATM   14  O   UNL     1     -12.929  11.095  71.767  1.00  0.00    -0.451 OA 
HETATM   15  S   UNL     1      -9.347  10.362  69.126  1.00  0.00    -0.184 SA 
HETATM   16  C   UNL     1      -9.002   8.647  69.565  1.00  0.00    -0.145 C  
HETATM   17  C   UNL     1      -9.740   8.105  70.768  1.00  0.00    -0.189 C  
HETATM   18  CA  UNL     1     -10.901   8.667  71.216  1.00  0.00    -0.260 C  
HETATM   19  O   UNL     1     -12.893   7.876  72.286  1.00  0.00    -0.234 OA 
HETATM   20  C   UNL     1     -11.662   8.076  72.464  1.00  0.00    -0.387 C  
HETATM   21  OXT UNL     1     -10.899   7.723  73.414  1.00  0.00    -0.341 OA 
BRANCH  17  22
HETATM   22  C   UNL     1      -9.168   6.799  71.322  1.00  0.00    -0.154 C  
BRANCH  22  23
HETATM   23  N   UNL     1      -9.742   5.413  70.845  1.00  0.00    -0.172 N  
HETATM   24  C   UNL     1      -8.822   4.510  70.044  1.00  0.00    -0.082 C  
HETATM   25  C   UNL     1     -10.309   4.695  72.063  1.00  0.00    -0.164 C  
HETATM   26  C   UNL     1      -8.736   5.197  68.702  1.00  0.00    -0.098 C  
HETATM   27  C   UNL     1     -10.192   5.535  68.434  1.00  0.00    -0.242 C  
HETATM   28  C   UNL     1     -10.859   5.685  69.810  1.00  0.00    -0.300 C  
ENDBRANCH  22  23
ENDBRANCH  17  22
ENDBRANCH   9  10
ENDBRANCH   5   6
BRANCH   5  29
HETATM   29  C   UNL     1     -10.366  15.676  67.378  1.00  0.00    -0.275 A  
HETATM   30  S   UNL     1     -10.342  17.975  66.276  1.00  0.00    -0.334 SA 
HETATM   31  C   UNL     1      -9.973  16.981  67.621  1.00  0.00    -0.280 A  
HETATM   32  H2  UNL     1     -11.504  17.625  63.759  1.00  0.00     0.000 HD 
HETATM   33  H1  UNL     1     -11.873  15.905  63.730  1.00  0.00     0.000 HD 
HETATM   34  C   UNL     1     -10.981  16.613  65.454  1.00  0.00    -0.091 A  
HETATM   35  N   UNL     1     -11.493  16.715  64.220  1.00  0.00    -1.044 NA 
HETATM   36  N   UNL     1     -10.926  15.482  66.113  1.00  0.00    -0.290 NA 
ENDBRANCH   5  29
ENDBRANCH   3   5
ENDBRANCH   2   3
TORSDOF 7
ENDMDL
MODEL       39
REMARK 921   NORMALIZED FREE ENERGY PREDICTED BY IDOCK:   -5.63 KCAL/MOL
REMARK 922        TOTAL FREE ENERGY PREDICTED BY IDOCK:   -9.05 KCAL/MOL
REMARK 923 INTER-LIGAND FREE ENERGY PREDICTED BY IDOCK:   -7.88 KCAL/MOL
REMARK 924 INTRA-LIGAND FREE ENERGY PREDICTED BY IDOCK:   -1.18 KCAL/MOL
REMARK 927      BINDING AFFINITY PREDICTED BY RF-SCORE:    0.00 PKD
ROOT
HETATM    1  C   UNL     1      -9.203   4.161  72.628  1.00  0.00    -0.113 C  
HETATM    2  O   UNL     1     -10.436   4.821  72.370  1.00  0.00    -0.196 OA 
ENDROOT
BRANCH   2   3
HETATM    3  N   UNL     1     -10.325   6.157  72.773  1.00  0.00    -0.192 NA 
HETATM    4  H   UNL     1     -10.116   6.445  73.728  1.00  0.00     0.000 HD 
BRANCH   3   5
HETATM    5  C   UNL     1     -10.520   6.993  71.788  1.00  0.00    -0.202 C  
BRANCH   5   6
HETATM    6  C   UNL     1      -9.519   7.224  70.633  1.00  0.00    -0.164 C  
HETATM    7  H   UNL     1      -9.021   9.090  71.412  1.00  0.00     0.000 HD 
HETATM    8  O   UNL     1      -9.332   6.382  69.765  1.00  0.00    -0.146 OA 
HETATM    9  N   UNL     1      -8.922   8.473  70.606  1.00  0.00    -0.150 N  
BRANCH   9  10
HETATM   10  CA  UNL     1      -8.137   8.937  69.424  1.00  0.00    -0.105 C  
HETATM   11  N   UNL     1      -8.295  10.796  68.512  1.00  0.00    -0.131 N  
HETATM   12  C   UNL     1      -7.531  10.381  69.548  1.00  0.00    -0.148 C  
HETATM   13  C   UNL     1      -8.902   9.521  68.207  1.00  0.00    -0.124 C  
HETATM   14  O   UNL     1      -6.828  10.939  70.352  1.00  0.00    -0.257 OA 
HETATM   15  S   UNL     1     -10.689   9.764  68.340  1.00  0.00    -0.199 SA 
HETATM   16  C   UNL     1     -10.699  10.966  66.995  1.00  0.00    -0.271 C  
HETATM   17  C   UNL     1      -9.684  12.082  67.090  1.00  0.00    -0.203 C  
HETATM   18  CA  UNL     1      -8.553  11.966  67.847  1.00  0.00    -0.162 C  
HETATM   19  O   UNL     1      -6.307  12.788  67.718  1.00  0.00    -0.104 OA 
HETATM   20  C   UNL     1      -7.501  13.138  67.919  1.00  0.00    -0.136 C  
HETATM   21  OXT UNL     1      -8.019  14.293  67.999  1.00  0.00    -0.120 OA 
BRANCH  17  22
HETATM   22  C   UNL     1      -9.952  13.258  66.150  1.00  0.00    -0.293 C  
BRANCH  22  23
HETATM   23  N   UNL     1     -11.200  14.191  66.377  1.00  0.00    -0.321 N  
HETATM   24  C   UNL     1     -12.483  13.837  65.648  1.00  0.00    -0.503 C  
HETATM   25  C   UNL     1     -11.425  14.318  67.878  1.00  0.00    -0.315 C  
HETATM   26  C   UNL     1     -12.184  14.199  64.213  1.00  0.00    -0.449 C  
HETATM   27  C   UNL     1     -11.533  15.562  64.367  1.00  0.00    -0.264 C  
HETATM   28  C   UNL     1     -10.885  15.574  65.760  1.00  0.00    -0.331 C  
ENDBRANCH  22  23
ENDBRANCH  17  22
ENDBRANCH   9  10
ENDBRANCH   5   6
BRANCH   5  29
HETATM   29  C   UNL     1     -11.791   7.725  71.818  1.00  0.00    -0.290 A  
HETATM   30  S   UNL     1     -14.263   8.341  71.742  1.00  0.00    -0.470 SA 
HETATM   31  C   UNL     1     -13.040   7.144  71.676  1.00  0.00    -0.361 A  
HETATM   32  H2  UNL     1     -14.368  11.114  72.074  1.00  0.00     0.000 HD 
HETATM   33  H1  UNL     1     -12.673  11.555  72.245  1.00  0.00     0.000 HD 
HETATM   34  C   UNL     1     -13.064   9.545  71.973  1.00  0.00    -0.438 A  
HETATM   35  N   UNL     1     -13.386  10.839  72.109  1.00  0.00    -0.356 NA 
HETATM   36  N   UNL     1     -11.829   9.108  72.010  1.00  0.00    -0.360 NA 
ENDBRANCH   5  29
ENDBRANCH   3   5
ENDBRANCH   2   3
TORSDOF 7
ENDMDL
MODEL       40
REMARK 921   NORMALIZED FREE ENERGY PREDICTED BY IDOCK:   -5.56 KCAL/MOL
REMARK 922        TOTAL FREE ENERGY PREDICTED BY IDOCK:   -8.96 KCAL/MOL
REMARK 923 INTER-LIGAND FREE ENERGY PREDICTED BY IDOCK:   -8.02 KCAL/MOL
REMARK 924 INTRA-LIGAND FREE ENERGY PREDICTED BY IDOCK:   -0.94 KCAL/MOL
REMARK 927      BINDING AFFINITY PREDICTED BY RF-SCORE:    0.00 PKD
ROOT
HETATM    1  C   UNL     1     -14.388   8.622  71.948  1.00  0.00    -0.405 C  
HETATM    2  O   UNL     1     -13.916   7.453  71.289  1.00  0.00    -0.376 OA 
ENDROOT
BRANCH   2   3
HETATM    3  N   UNL     1     -13.120   6.724  72.180  1.00  0.00    -0.549 NA 
HETATM    4  H   UNL     1     -13.447   6.382  73.083  1.00  0.00     0.000 HD 
BRANCH   3   5
HETATM    5  C   UNL     1     -11.910   6.532  71.726  1.00  0.00    -0.335 C  
BRANCH   5   6
HETATM    6  C   UNL     1     -11.428   6.970  70.324  1.00  0.00    -0.287 C  
HETATM    7  H   UNL     1     -10.816   8.808  71.089  1.00  0.00     0.000 HD 
HETATM    8  O   UNL     1     -11.512   6.230  69.353  1.00  0.00    -0.427 OA 
HETATM    9  N   UNL     1     -10.976   8.276  70.234  1.00  0.00    -0.241 N  
BRANCH   9  10
HETATM   10  CA  UNL     1     -10.720   8.923  68.913  1.00  0.00    -0.106 C  
HETATM   11  N   UNL     1      -9.887  10.803  68.621  1.00  0.00    -0.176 N  
HETATM   12  C   UNL     1      -9.306   9.590  68.758  1.00  0.00    -0.146 C  
HETATM   13  C   UNL     1     -11.261  10.357  68.672  1.00  0.00    -0.248 C  
HETATM   14  O   UNL     1      -8.170   9.212  68.898  1.00  0.00    -0.108 OA 
HETATM   15  S   UNL     1     -12.031  11.239  70.050  1.00  0.00    -0.384 SA 
HETATM   16  C   UNL     1     -11.768  12.842  69.267  1.00  0.00    -0.319 C  
HETATM   17  C   UNL     1     -10.370  13.117  68.762  1.00  0.00    -0.146 C  
HETATM   18  CA  UNL     1      -9.492  12.108  68.484  1.00  0.00    -0.122 C  
HETATM   19  O   UNL     1      -7.710  11.763  66.921  1.00  0.00    -0.156 OA 
HETATM   20  C   UNL     1      -8.043  12.419  67.945  1.00  0.00    -0.161 C  
HETATM   21  OXT UNL     1      -7.482  13.404  68.511  1.00  0.00    -0.111 OA 
BRANCH  17  22
HETATM   22  C   UNL     1     -10.094  14.586  68.441  1.00  0.00    -0.241 C  
BRANCH  22  23
HETATM   23  N   UNL     1     -10.418  15.165  67.013  1.00  0.00    -0.276 N  
HETATM   24  C   UNL     1      -9.307  15.147  65.979  1.00  0.00    -0.291 C  
HETATM   25  C   UNL     1     -11.673  14.471  66.499  1.00  0.00    -0.368 C  
HETATM   26  C   UNL     1      -8.365  16.226  66.456  1.00  0.00    -0.343 C  
HETATM   27  C   UNL     1      -9.327  17.353  66.785  1.00  0.00    -0.279 C  
HETATM   28  C   UNL     1     -10.661  16.686  67.155  1.00  0.00    -0.264 C  
ENDBRANCH  22  23
ENDBRANCH  17  22
ENDBRANCH   9  10
ENDBRANCH   5   6
BRANCH   5  29
HETATM   29  C   UNL     1     -10.983   5.867  72.648  1.00  0.00    -0.264 A  
HETATM   30  S   UNL     1      -9.958   4.321  74.397  1.00  0.00    -0.198 SA 
HETATM   31  C   UNL     1     -11.307   4.784  73.449  1.00  0.00    -0.312 A  
HETATM   32  H2  UNL     1      -7.317   5.177  74.715  1.00  0.00     0.000 HD 
HETATM   33  H1  UNL     1      -7.198   6.518  73.582  1.00  0.00     0.000 HD 
HETATM   34  C   UNL     1      -9.030   5.569  73.674  1.00  0.00    -0.124 A  
HETATM   35  N   UNL     1      -7.749   5.776  74.011  1.00  0.00    -0.099 NA 
HETATM   36  N   UNL     1      -9.658   6.289  72.778  1.00  0.00    -0.155 NA 
ENDBRANCH   5  29
ENDBRANCH   3   5
ENDBRANCH   2   3
TORSDOF 7
ENDMDL
MODEL       41
REMARK 921   NORMALIZED FREE ENERGY PREDICTED BY IDOCK:   -5.55 KCAL/MOL
REMARK 922        TOTAL FREE ENERGY PREDICTED BY IDOCK:   -8.94 KCAL/MOL
REMARK 923 INTER-LIGAND FREE ENERGY PREDICTED BY IDOCK:   -7.82 KCAL/MOL
REMARK 924 INTRA-LIGAND FREE ENERGY PREDICTED BY IDOCK:   -1.12 KCAL/MOL
REMARK 927      BINDING AFFINITY PREDICTED BY RF-SCORE:    0.00 PKD
ROOT
HETATM    1  C   UNL     1     -12.061  15.798  71.507  1.00  0.00    -0.454 C  
HETATM    2  O   UNL     1     -11.471  15.539  70.239  1.00  0.00    -0.275 OA 
ENDROOT
BRANCH   2   3
HETATM    3  N   UNL     1     -12.456  15.044  69.377  1.00  0.00    -0.589 NA 
HETATM    4  H   UNL     1     -13.413  15.395  69.349  1.00  0.00     0.000 HD 
BRANCH   3   5
HETATM    5  C   UNL     1     -12.013  14.082  68.612  1.00  0.00    -0.354 C  
BRANCH   5   6
HETATM    6  C   UNL     1     -11.820  12.620  69.076  1.00  0.00    -0.294 C  
HETATM    7  H   UNL     1     -10.882  12.153  67.277  1.00  0.00     0.000 HD 
HETATM    8  O   UNL     1     -12.191  12.240  70.179  1.00  0.00    -0.292 OA 
HETATM    9  N   UNL     1     -11.281  11.764  68.132  1.00  0.00    -0.239 N  
BRANCH   9  10
HETATM   10  CA  UNL     1     -11.269  10.285  68.335  1.00  0.00    -0.224 C  
HETATM   11  N   UNL     1      -9.611   9.046  68.164  1.00  0.00    -0.146 N  
HETATM   12  C   UNL     1     -10.091   9.740  69.219  1.00  0.00    -0.198 C  
HETATM   13  C   UNL     1     -10.656   9.388  67.226  1.00  0.00    -0.244 C  
HETATM   14  O   UNL     1      -9.674   9.989  70.323  1.00  0.00    -0.212 OA 
HETATM   15  S   UNL     1      -9.841  10.180  65.820  1.00  0.00    -0.276 SA 
HETATM   16  C   UNL     1      -8.910   8.686  65.427  1.00  0.00    -0.155 C  
HETATM   17  C   UNL     1      -8.173   8.037  66.576  1.00  0.00    -0.115 C  
HETATM   18  CA  UNL     1      -8.530   8.253  67.876  1.00  0.00    -0.132 C  
HETATM   19  O   UNL     1      -8.494   6.978  69.904  1.00  0.00    -0.137 OA 
HETATM   20  C   UNL     1      -7.757   7.553  69.058  1.00  0.00    -0.117 C  
HETATM   21  OXT UNL     1      -6.499   7.519  68.903  1.00  0.00    -0.041 OA 
BRANCH  17  22
HETATM   22  C   UNL     1      -7.124   7.009  66.151  1.00  0.00    -0.073 C  
BRANCH  22  23
HETATM   23  N   UNL     1      -7.563   5.633  65.524  1.00  0.00    -0.081 N  
HETATM   24  C   UNL     1      -8.830   4.990  66.058  1.00  0.00    -0.130 C  
HETATM   25  C   UNL     1      -7.616   5.802  64.011  1.00  0.00    -0.080 C  
HETATM   26  C   UNL     1      -8.425   4.499  67.428  1.00  0.00    -0.104 C  
HETATM   27  C   UNL     1      -7.086   3.845  67.138  1.00  0.00    -0.063 C  
HETATM   28  C   UNL     1      -6.509   4.569  65.912  1.00  0.00    -0.037 C  
ENDBRANCH  22  23
ENDBRANCH  17  22
ENDBRANCH   9  10
ENDBRANCH   5   6
BRANCH   5  29
HETATM   29  C   UNL     1     -11.707  14.460  67.228  1.00  0.00    -0.404 A  
HETATM   30  S   UNL     1     -10.658  15.495  65.148  1.00  0.00    -0.411 SA 
HETATM   31  C   UNL     1     -10.655  15.275  66.847  1.00  0.00    -0.304 A  
HETATM   32  H2  UNL     1     -12.215  14.626  62.997  1.00  0.00     0.000 HD 
HETATM   33  H1  UNL     1     -13.430  13.617  63.772  1.00  0.00     0.000 HD 
HETATM   34  C   UNL     1     -12.038  14.485  65.027  1.00  0.00    -0.389 A  
HETATM   35  N   UNL     1     -12.609  14.218  63.844  1.00  0.00    -0.787 NA 
HETATM   36  N   UNL     1     -12.479  13.998  66.160  1.00  0.00    -0.466 NA 
ENDBRANCH   5  29
ENDBRANCH   3   5
ENDBRANCH   2   3
TORSDOF 7
ENDMDL
MODEL       42
REMARK 921   NORMALIZED FREE ENERGY PREDICTED BY IDOCK:   -5.54 KCAL/MOL
REMARK 922        TOTAL FREE ENERGY PREDICTED BY IDOCK:   -8.92 KCAL/MOL
REMARK 923 INTER-LIGAND FREE ENERGY PREDICTED BY IDOCK:   -7.98 KCAL/MOL
REMARK 924 INTRA-LIGAND FREE ENERGY PREDICTED BY IDOCK:   -0.94 KCAL/MOL
REMARK 927      BINDING AFFINITY PREDICTED BY RF-SCORE:    0.00 PKD
ROOT
HETATM    1  C   UNL     1     -12.273  15.022  64.298  1.00  0.00    -0.293 C  
HETATM    2  O   UNL     1     -12.798  13.879  64.961  1.00  0.00    -0.693 OA 
ENDROOT
BRANCH   2   3
HETATM    3  N   UNL     1     -12.860  14.145  66.334  1.00  0.00    -0.396 NA 
HETATM    4  H   UNL     1     -13.714  14.417  66.820  1.00  0.00     0.000 HD 
BRANCH   3   5
HETATM    5  C   UNL     1     -11.702  14.005  66.922  1.00  0.00    -0.410 C  
BRANCH   5   6
HETATM    6  C   UNL     1     -10.736  12.826  66.671  1.00  0.00    -0.261 C  
HETATM    7  H   UNL     1     -11.398  11.889  68.409  1.00  0.00     0.000 HD 
HETATM    8  O   UNL     1     -10.009  12.786  65.688  1.00  0.00    -0.269 OA 
HETATM    9  N   UNL     1     -10.693  11.871  67.673  1.00  0.00    -0.208 N  
BRANCH   9  10
HETATM   10  CA  UNL     1      -9.636  10.816  67.701  1.00  0.00    -0.158 C  
HETATM   11  N   UNL     1      -9.965   8.769  67.810  1.00  0.00    -0.182 N  
HETATM   12  C   UNL     1      -9.884   9.595  66.744  1.00  0.00    -0.211 C  
HETATM   13  C   UNL     1      -9.680   9.752  68.830  1.00  0.00    -0.161 C  
HETATM   14  O   UNL     1     -10.106   9.474  65.565  1.00  0.00    -0.260 OA 
HETATM   15  S   UNL     1     -11.093   9.739  69.958  1.00  0.00    -0.271 SA 
HETATM   16  C   UNL     1     -10.791   8.026  70.433  1.00  0.00    -0.247 C  
HETATM   17  C   UNL     1     -10.604   7.043  69.299  1.00  0.00    -0.240 C  
HETATM   18  CA  UNL     1     -10.226   7.444  68.050  1.00  0.00    -0.191 C  
HETATM   19  O   UNL     1      -8.935   6.511  66.262  1.00  0.00    -0.151 OA 
HETATM   20  C   UNL     1     -10.023   6.399  66.887  1.00  0.00    -0.167 C  
HETATM   21  OXT UNL     1     -10.902   5.486  66.855  1.00  0.00    -0.266 OA 
BRANCH  17  22
HETATM   22  C   UNL     1     -10.712   5.575  69.715  1.00  0.00    -0.285 C  
BRANCH  22  23
HETATM   23  N   UNL     1      -9.559   4.894  70.543  1.00  0.00    -0.169 N  
HETATM   24  C   UNL     1      -8.129   5.195  70.134  1.00  0.00    -0.083 C  
HETATM   25  C   UNL     1      -9.796   5.196  72.016  1.00  0.00    -0.171 C  
HETATM   26  C   UNL     1      -7.964   4.433  68.840  1.00  0.00    -0.073 C  
HETATM   27  C   UNL     1      -8.581   3.090  69.192  1.00  0.00    -0.116 C  
HETATM   28  C   UNL     1      -9.621   3.368  70.288  1.00  0.00    -0.145 C  
ENDBRANCH  22  23
ENDBRANCH  17  22
ENDBRANCH   9  10
ENDBRANCH   5   6
BRANCH   5  29
HETATM   29  C   UNL     1     -11.334  15.071  67.861  1.00  0.00    -0.333 A  
HETATM   30  S   UNL     1     -10.918  16.437  69.972  1.00  0.00    -0.225 SA 
HETATM   31  C   UNL     1     -11.413  14.970  69.240  1.00  0.00    -0.307 A  
HETATM   32  H2  UNL     1      -9.998  18.927  69.100  1.00  0.00     0.000 HD 
HETATM   33  H1  UNL     1      -9.985  18.751  67.349  1.00  0.00     0.000 HD 
HETATM   34  C   UNL     1     -10.616  17.102  68.421  1.00  0.00    -0.371 A  
HETATM   35  N   UNL     1     -10.165  18.355  68.271  1.00  0.00    -0.380 NA 
HETATM   36  N   UNL     1     -10.852  16.302  67.411  1.00  0.00    -0.286 NA 
ENDBRANCH   5  29
ENDBRANCH   3   5
ENDBRANCH   2   3
TORSDOF 7
ENDMDL
MODEL       43
REMARK 921   NORMALIZED FREE ENERGY PREDICTED BY IDOCK:   -5.53 KCAL/MOL
REMARK 922        TOTAL FREE ENERGY PREDICTED BY IDOCK:   -8.91 KCAL/MOL
REMARK 923 INTER-LIGAND FREE ENERGY PREDICTED BY IDOCK:   -7.62 KCAL/MOL
REMARK 924 INTRA-LIGAND FREE ENERGY PREDICTED BY IDOCK:   -1.29 KCAL/MOL
REMARK 927      BINDING AFFINITY PREDICTED BY RF-SCORE:    0.00 PKD
ROOT
HETATM    1  C   UNL     1     -14.136  14.653  71.871  1.00  0.00    -0.516 C  
HETATM    2  O   UNL     1     -13.545  13.372  72.053  1.00  0.00    -0.441 OA 
ENDROOT
BRANCH   2   3
HETATM    3  N   UNL     1     -12.313  13.346  71.390  1.00  0.00    -0.294 NA 
HETATM    4  H   UNL     1     -11.547  13.989  71.591  1.00  0.00     0.000 HD 
BRANCH   3   5
HETATM    5  C   UNL     1     -12.253  12.406  70.485  1.00  0.00    -0.295 C  
BRANCH   5   6
HETATM    6  C   UNL     1     -12.412  10.898  70.784  1.00  0.00    -0.394 C  
HETATM    7  H   UNL     1     -10.373  10.743  71.181  1.00  0.00     0.000 HD 
HETATM    8  O   UNL     1     -13.500  10.342  70.731  1.00  0.00    -0.278 OA 
HETATM    9  N   UNL     1     -11.233  10.215  71.032  1.00  0.00    -0.315 N  
BRANCH   9  10
HETATM   10  CA  UNL     1     -11.192   8.724  71.085  1.00  0.00    -0.277 C  
HETATM   11  N   UNL     1      -9.585   7.531  70.533  1.00  0.00    -0.168 N  
HETATM   12  C   UNL     1      -9.889   8.112  71.714  1.00  0.00    -0.194 C  
HETATM   13  C   UNL     1     -10.765   7.947  69.811  1.00  0.00    -0.233 C  
HETATM   14  O   UNL     1      -9.302   8.258  72.757  1.00  0.00    -0.249 OA 
HETATM   15  S   UNL     1     -10.181   8.883  68.378  1.00  0.00    -0.201 SA 
HETATM   16  C   UNL     1      -9.327   7.448  67.697  1.00  0.00    -0.133 C  
HETATM   17  C   UNL     1      -8.419   6.700  68.647  1.00  0.00    -0.122 C  
HETATM   18  CA  UNL     1      -8.564   6.784  70.002  1.00  0.00    -0.141 C  
HETATM   19  O   UNL     1      -8.209   5.319  71.863  1.00  0.00    -0.114 OA 
HETATM   20  C   UNL     1      -7.614   5.984  70.972  1.00  0.00    -0.097 C  
HETATM   21  OXT UNL     1      -6.397   5.982  70.617  1.00  0.00    -0.036 OA 
BRANCH  17  22
HETATM   22  C   UNL     1      -7.452   5.733  67.962  1.00  0.00    -0.077 C  
BRANCH  22  23
HETATM   23  N   UNL     1      -7.997   4.473  67.191  1.00  0.00    -0.101 N  
HETATM   24  C   UNL     1      -9.327   3.897  67.639  1.00  0.00    -0.189 C  
HETATM   25  C   UNL     1      -7.999   4.797  65.703  1.00  0.00    -0.099 C  
HETATM   26  C   UNL     1      -8.999   3.236  68.957  1.00  0.00    -0.187 C  
HETATM   27  C   UNL     1      -7.717   2.495  68.620  1.00  0.00    -0.051 C  
HETATM   28  C   UNL     1      -7.050   3.284  67.483  1.00  0.00    -0.054 C  
ENDBRANCH  22  23
ENDBRANCH  17  22
ENDBRANCH   9  10
ENDBRANCH   5   6
BRANCH   5  29
HETATM   29  C   UNL     1     -12.034  12.863  69.108  1.00  0.00    -0.259 A  
HETATM   30  S   UNL     1     -11.629  14.298  67.040  1.00  0.00    -0.402 SA 
HETATM   31  C   UNL     1     -11.810  14.179  68.739  1.00  0.00    -0.349 A  
HETATM   32  H2  UNL     1     -11.658  12.535  64.872  1.00  0.00     0.000 HD 
HETATM   33  H1  UNL     1     -11.936  10.974  65.637  1.00  0.00     0.000 HD 
HETATM   34  C   UNL     1     -11.840  12.601  66.906  1.00  0.00    -0.355 A  
HETATM   35  N   UNL     1     -11.810  11.983  65.717  1.00  0.00    -0.480 NA 
HETATM   36  N   UNL     1     -12.026  11.967  68.037  1.00  0.00    -0.521 NA 
ENDBRANCH   5  29
ENDBRANCH   3   5
ENDBRANCH   2   3
TORSDOF 7
ENDMDL
MODEL       44
REMARK 921   NORMALIZED FREE ENERGY PREDICTED BY IDOCK:   -5.50 KCAL/MOL
REMARK 922        TOTAL FREE ENERGY PREDICTED BY IDOCK:   -8.87 KCAL/MOL
REMARK 923 INTER-LIGAND FREE ENERGY PREDICTED BY IDOCK:   -7.58 KCAL/MOL
REMARK 924 INTRA-LIGAND FREE ENERGY PREDICTED BY IDOCK:   -1.29 KCAL/MOL
REMARK 927      BINDING AFFINITY PREDICTED BY RF-SCORE:    0.00 PKD
ROOT
HETATM    1  C   UNL     1     -10.188  18.506  67.455  1.00  0.00    -0.385 C  
HETATM    2  O   UNL     1     -10.548  17.157  67.181  1.00  0.00    -0.313 OA 
ENDROOT
BRANCH   2   3
HETATM    3  N   UNL     1     -10.881  16.527  68.385  1.00  0.00    -0.335 NA 
HETATM    4  H   UNL     1     -11.332  17.001  69.168  1.00  0.00     0.000 HD 
BRANCH   3   5
HETATM    5  C   UNL     1     -10.548  15.264  68.396  1.00  0.00    -0.246 C  
BRANCH   5   6
HETATM    6  C   UNL     1     -11.557  14.098  68.297  1.00  0.00    -0.321 C  
HETATM    7  H   UNL     1     -10.987  13.419  70.182  1.00  0.00     0.000 HD 
HETATM    8  O   UNL     1     -12.282  13.953  67.322  1.00  0.00    -0.394 OA 
HETATM    9  N   UNL     1     -11.521  13.191  69.343  1.00  0.00    -0.272 N  
BRANCH   9  10
HETATM   10  CA  UNL     1     -12.245  11.888  69.272  1.00  0.00    -0.109 C  
HETATM   11  N   UNL     1     -11.742  10.158  70.306  1.00  0.00    -0.277 N  
HETATM   12  C   UNL     1     -12.527  11.201  70.656  1.00  0.00    -0.356 C  
HETATM   13  C   UNL     1     -11.430  10.602  68.967  1.00  0.00    -0.274 C  
HETATM   14  O   UNL     1     -13.061  11.548  71.681  1.00  0.00    -0.452 OA 
HETATM   15  S   UNL     1      -9.628  10.717  68.876  1.00  0.00    -0.190 SA 
HETATM   16  C   UNL     1      -9.428   8.949  69.169  1.00  0.00    -0.157 C  
HETATM   17  C   UNL     1     -10.181   8.379  70.350  1.00  0.00    -0.212 C  
HETATM   18  CA  UNL     1     -11.275   9.003  70.877  1.00  0.00    -0.287 C  
HETATM   19  O   UNL     1     -13.302   8.307  71.947  1.00  0.00    -0.333 OA 
HETATM   20  C   UNL     1     -12.053   8.383  72.100  1.00  0.00    -0.373 C  
HETATM   21  OXT UNL     1     -11.301   7.890  72.994  1.00  0.00    -0.408 OA 
BRANCH  17  22
HETATM   22  C   UNL     1      -9.715   6.988  70.782  1.00  0.00    -0.168 C  
BRANCH  22  23
HETATM   23  N   UNL     1      -8.275   6.780  71.383  1.00  0.00    -0.111 N  
HETATM   24  C   UNL     1      -7.183   6.305  70.443  1.00  0.00    -0.083 C  
HETATM   25  C   UNL     1      -7.876   8.063  72.101  1.00  0.00    -0.115 C  
HETATM   26  C   UNL     1      -7.538   4.858  70.193  1.00  0.00    -0.059 C  
HETATM   27  C   UNL     1      -7.851   4.371  71.597  1.00  0.00    -0.080 C  
HETATM   28  C   UNL     1      -8.336   5.600  72.381  1.00  0.00    -0.115 C  
ENDBRANCH  22  23
ENDBRANCH  17  22
ENDBRANCH   9  10
ENDBRANCH   5   6
BRANCH   5  29
HETATM   29  C   UNL     1      -9.111  14.986  68.495  1.00  0.00    -0.188 A  
HETATM   30  S   UNL     1      -6.650  15.024  69.160  1.00  0.00    -0.131 SA 
HETATM   31  C   UNL     1      -8.245  15.608  69.379  1.00  0.00    -0.236 A  
HETATM   32  H2  UNL     1      -5.386  13.157  67.509  1.00  0.00     0.000 HD 
HETATM   33  H1  UNL     1      -6.711  12.533  66.533  1.00  0.00     0.000 HD 
HETATM   34  C   UNL     1      -7.211  13.975  67.925  1.00  0.00    -0.159 A  
HETATM   35  N   UNL     1      -6.377  13.156  67.269  1.00  0.00    -0.266 NA 
HETATM   36  N   UNL     1      -8.496  14.032  67.680  1.00  0.00    -0.177 NA 
ENDBRANCH   5  29
ENDBRANCH   3   5
ENDBRANCH   2   3
TORSDOF 7
ENDMDL
MODEL       45
REMARK 921   NORMALIZED FREE ENERGY PREDICTED BY IDOCK:   -5.47 KCAL/MOL
REMARK 922        TOTAL FREE ENERGY PREDICTED BY IDOCK:   -8.82 KCAL/MOL
REMARK 923 INTER-LIGAND FREE ENERGY PREDICTED BY IDOCK:   -7.88 KCAL/MOL
REMARK 924 INTRA-LIGAND FREE ENERGY PREDICTED BY IDOCK:   -0.94 KCAL/MOL
REMARK 927      BINDING AFFINITY PREDICTED BY RF-SCORE:    0.00 PKD
ROOT
HETATM    1  C   UNL     1     -10.664  19.463  67.557  1.00  0.00    -0.453 C  
HETATM    2  O   UNL     1      -9.299  19.370  67.170  1.00  0.00    -0.305 OA 
ENDROOT
BRANCH   2   3
HETATM    3  N   UNL     1      -9.205  18.542  66.046  1.00  0.00    -0.493 NA 
HETATM    4  H   UNL     1      -9.300  18.875  65.087  1.00  0.00     0.000 HD 
BRANCH   3   5
HETATM    5  C   UNL     1      -8.983  17.294  66.363  1.00  0.00    -0.252 C  
BRANCH   5   6
HETATM    6  C   UNL     1      -9.953  16.132  66.051  1.00  0.00    -0.348 C  
HETATM    7  H   UNL     1     -10.120  15.702  68.082  1.00  0.00     0.000 HD 
HETATM    8  O   UNL     1     -10.295  15.867  64.907  1.00  0.00    -0.517 OA 
HETATM    9  N   UNL     1     -10.335  15.370  67.142  1.00  0.00    -0.266 N  
BRANCH   9  10
HETATM   10  CA  UNL     1     -11.055  14.073  66.974  1.00  0.00    -0.304 C  
HETATM   11  N   UNL     1     -10.877  12.413  68.210  1.00  0.00    -0.226 N  
HETATM   12  C   UNL     1     -11.694  13.487  68.285  1.00  0.00    -0.359 C  
HETATM   13  C   UNL     1     -10.228  12.760  66.967  1.00  0.00    -0.241 C  
HETATM   14  O   UNL     1     -12.456  13.910  69.118  1.00  0.00    -0.231 OA 
HETATM   15  S   UNL     1      -8.457  12.847  67.324  1.00  0.00    -0.186 SA 
HETATM   16  C   UNL     1      -8.388  11.101  67.770  1.00  0.00    -0.123 C  
HETATM   17  C   UNL     1      -9.428  10.623  68.758  1.00  0.00    -0.186 C  
HETATM   18  CA  UNL     1     -10.600  11.295  68.953  1.00  0.00    -0.207 C  
HETATM   19  O   UNL     1     -12.849  10.698  69.521  1.00  0.00    -0.170 OA 
HETATM   20  C   UNL     1     -11.677  10.769  69.978  1.00  0.00    -0.336 C  
HETATM   21  OXT UNL     1     -11.186  10.330  71.061  1.00  0.00    -0.315 OA 
BRANCH  17  22
HETATM   22  C   UNL     1      -9.125   9.259  69.381  1.00  0.00    -0.152 C  
BRANCH  22  23
HETATM   23  N   UNL     1      -9.736   7.947  68.762  1.00  0.00    -0.156 N  
HETATM   24  C   UNL     1      -8.770   6.891  68.258  1.00  0.00    -0.123 C  
HETATM   25  C   UNL     1     -10.723   7.369  69.768  1.00  0.00    -0.241 C  
HETATM   26  C   UNL     1      -8.210   7.501  66.995  1.00  0.00    -0.124 C  
HETATM   27  C   UNL     1      -9.465   8.027  66.322  1.00  0.00    -0.241 C  
HETATM   28  C   UNL     1     -10.464   8.328  67.450  1.00  0.00    -0.283 C  
ENDBRANCH  22  23
ENDBRANCH  17  22
ENDBRANCH   9  10
ENDBRANCH   5   6
BRANCH   5  29
HETATM   29  C   UNL     1      -7.710  17.028  67.042  1.00  0.00    -0.186 A  
HETATM   30  S   UNL     1      -5.234  16.756  67.583  1.00  0.00    -0.136 SA 
HETATM   31  C   UNL     1      -6.460  17.202  66.473  1.00  0.00    -0.233 A  
HETATM   32  H2  UNL     1      -5.128  15.801  70.207  1.00  0.00     0.000 HD 
HETATM   33  H1  UNL     1      -6.825  15.703  70.660  1.00  0.00     0.000 HD 
HETATM   34  C   UNL     1      -6.435  16.381  68.748  1.00  0.00    -0.142 A  
HETATM   35  N   UNL     1      -6.111  15.927  69.967  1.00  0.00    -0.163 NA 
HETATM   36  N   UNL     1      -7.672  16.574  68.363  1.00  0.00    -0.180 NA 
ENDBRANCH   5  29
ENDBRANCH   3   5
ENDBRANCH   2   3
TORSDOF 7
ENDMDL
MODEL       46
REMARK 921   NORMALIZED FREE ENERGY PREDICTED BY IDOCK:   -5.44 KCAL/MOL
REMARK 922        TOTAL FREE ENERGY PREDICTED BY IDOCK:   -8.79 KCAL/MOL
REMARK 923 INTER-LIGAND FREE ENERGY PREDICTED BY IDOCK:   -7.52 KCAL/MOL
REMARK 924 INTRA-LIGAND FREE ENERGY PREDICTED BY IDOCK:   -1.27 KCAL/MOL
REMARK 927      BINDING AFFINITY PREDICTED BY RF-SCORE:    0.00 PKD
ROOT
HETATM    1  C   UNL     1     -12.031  13.085  63.330  1.00  0.00    -0.520 C  
HETATM    2  O   UNL     1     -12.453  12.021  64.175  1.00  0.00    -0.387 OA 
ENDROOT
BRANCH   2   3
HETATM    3  N   UNL     1     -12.726  12.537  65.447  1.00  0.00    -0.528 NA 
HETATM    4  H   UNL     1     -13.631  12.918  65.721  1.00  0.00     0.000 HD 
BRANCH   3   5
HETATM    5  C   UNL     1     -11.692  12.477  66.243  1.00  0.00    -0.404 C  
BRANCH   5   6
HETATM    6  C   UNL     1     -10.600  11.385  66.168  1.00  0.00    -0.265 C  
HETATM    7  H   UNL     1     -11.902   9.998  67.015  1.00  0.00     0.000 HD 
HETATM    8  O   UNL     1      -9.493  11.612  65.696  1.00  0.00    -0.226 OA 
HETATM    9  N   UNL     1     -10.934  10.172  66.744  1.00  0.00    -0.061 N  
BRANCH   9  10
HETATM   10  CA  UNL     1      -9.910   9.111  66.979  1.00  0.00    -0.207 C  
HETATM   11  N   UNL     1      -9.881   7.779  68.572  1.00  0.00    -0.167 N  
HETATM   12  C   UNL     1     -10.483   7.700  67.364  1.00  0.00    -0.297 C  
HETATM   13  C   UNL     1      -9.215   9.044  68.365  1.00  0.00    -0.136 C  
HETATM   14  O   UNL     1     -11.285   6.947  66.870  1.00  0.00    -0.353 OA 
HETATM   15  S   UNL     1      -9.791  10.144  69.680  1.00  0.00    -0.198 SA 
HETATM   16  C   UNL     1      -9.079   9.098  70.965  1.00  0.00    -0.237 C  
HETATM   17  C   UNL     1      -9.412   7.625  70.887  1.00  0.00    -0.166 C  
HETATM   18  CA  UNL     1      -9.813   7.037  69.722  1.00  0.00    -0.169 C  
HETATM   19  O   UNL     1      -9.578   4.874  68.720  1.00  0.00    -0.136 OA 
HETATM   20  C   UNL     1     -10.140   5.495  69.661  1.00  0.00    -0.239 C  
HETATM   21  OXT UNL     1     -10.783   5.065  70.666  1.00  0.00    -0.147 OA 
BRANCH  17  22
HETATM   22  C   UNL     1      -9.104   6.842  72.164  1.00  0.00    -0.137 C  
BRANCH  22  23
HETATM   23  N   UNL     1      -7.617   6.655  72.646  1.00  0.00    -0.093 N  
HETATM   24  C   UNL     1      -6.548   6.490  71.581  1.00  0.00    -0.057 C  
HETATM   25  C   UNL     1      -7.286   7.796  73.600  1.00  0.00    -0.120 C  
HETATM   26  C   UNL     1      -6.794   5.098  71.049  1.00  0.00    -0.047 C  
HETATM   27  C   UNL     1      -6.977   4.305  72.331  1.00  0.00    -0.056 C  
HETATM   28  C   UNL     1      -7.515   5.294  73.376  1.00  0.00    -0.095 C  
ENDBRANCH  22  23
ENDBRANCH  17  22
ENDBRANCH   9  10
ENDBRANCH   5   6
BRANCH   5  29
HETATM   29  C   UNL     1     -11.598  13.544  67.244  1.00  0.00    -0.362 A  
HETATM   30  S   UNL     1     -11.687  14.880  69.413  1.00  0.00    -0.336 SA 
HETATM   31  C   UNL     1     -11.901  13.395  68.587  1.00  0.00    -0.362 A  
HETATM   32  H2  UNL     1     -10.881  17.471  68.746  1.00  0.00     0.000 HD 
HETATM   33  H1  UNL     1     -10.551  17.349  67.022  1.00  0.00     0.000 HD 
HETATM   34  C   UNL     1     -11.190  15.616  67.947  1.00  0.00    -0.328 A  
HETATM   35  N   UNL     1     -10.846  16.911  67.894  1.00  0.00    -0.342 NA 
HETATM   36  N   UNL     1     -11.169  14.828  66.901  1.00  0.00    -0.340 NA 
ENDBRANCH   5  29
ENDBRANCH   3   5
ENDBRANCH   2   3
TORSDOF 7
ENDMDL
MODEL       47
REMARK 921   NORMALIZED FREE ENERGY PREDICTED BY IDOCK:   -5.43 KCAL/MOL
REMARK 922        TOTAL FREE ENERGY PREDICTED BY IDOCK:   -8.77 KCAL/MOL
REMARK 923 INTER-LIGAND FREE ENERGY PREDICTED BY IDOCK:   -7.90 KCAL/MOL
REMARK 924 INTRA-LIGAND FREE ENERGY PREDICTED BY IDOCK:   -0.88 KCAL/MOL
REMARK 927      BINDING AFFINITY PREDICTED BY RF-SCORE:    0.00 PKD
ROOT
HETATM    1  C   UNL     1      -6.511  13.009  69.094  1.00  0.00    -0.108 C  
HETATM    2  O   UNL     1      -7.484  13.595  68.238  1.00  0.00    -0.103 OA 
ENDROOT
BRANCH   2   3
HETATM    3  N   UNL     1      -8.219  14.534  68.968  1.00  0.00    -0.296 NA 
HETATM    4  H   UNL     1      -7.945  14.879  69.888  1.00  0.00     0.000 HD 
BRANCH   3   5
HETATM    5  C   UNL     1      -9.298  14.921  68.340  1.00  0.00    -0.197 C  
BRANCH   5   6
HETATM    6  C   UNL     1     -10.553  14.041  68.145  1.00  0.00    -0.248 C  
HETATM    7  H   UNL     1     -10.513  13.505  70.158  1.00  0.00     0.000 HD 
HETATM    8  O   UNL     1     -11.115  13.951  67.062  1.00  0.00    -0.291 OA 
HETATM    9  N   UNL     1     -10.940  13.306  69.253  1.00  0.00    -0.150 N  
BRANCH   9  10
HETATM   10  CA  UNL     1     -11.966  12.226  69.153  1.00  0.00    -0.249 C  
HETATM   11  N   UNL     1     -11.997  10.470  70.262  1.00  0.00    -0.301 N  
HETATM   12  C   UNL     1     -12.511  11.692  70.526  1.00  0.00    -0.257 C  
HETATM   13  C   UNL     1     -11.488  10.765  68.942  1.00  0.00    -0.293 C  
HETATM   14  O   UNL     1     -13.009  12.204  71.498  1.00  0.00    -0.391 OA 
HETATM   15  S   UNL     1      -9.715  10.415  68.990  1.00  0.00    -0.213 SA 
HETATM   16  C   UNL     1      -9.995   8.668  69.337  1.00  0.00    -0.197 C  
HETATM   17  C   UNL     1     -10.950   8.357  70.467  1.00  0.00    -0.258 C  
HETATM   18  CA  UNL     1     -11.882   9.259  70.893  1.00  0.00    -0.282 C  
HETATM   19  O   UNL     1     -14.090   9.144  71.815  1.00  0.00    -0.337 OA 
HETATM   20  C   UNL     1     -12.877   8.907  72.065  1.00  0.00    -0.397 C  
HETATM   21  OXT UNL     1     -12.341   8.277  73.025  1.00  0.00    -0.205 OA 
BRANCH  17  22
HETATM   22  C   UNL     1     -10.887   6.912  70.965  1.00  0.00    -0.241 C  
BRANCH  22  23
HETATM   23  N   UNL     1      -9.556   6.337  71.579  1.00  0.00    -0.156 N  
HETATM   24  C   UNL     1      -9.679   5.357  72.731  1.00  0.00    -0.149 C  
HETATM   25  C   UNL     1      -8.723   5.763  70.441  1.00  0.00    -0.134 C  
HETATM   26  C   UNL     1     -10.111   6.227  73.889  1.00  0.00    -0.283 C  
HETATM   27  C   UNL     1      -9.168   7.409  73.755  1.00  0.00    -0.305 C  
HETATM   28  C   UNL     1      -8.802   7.502  72.266  1.00  0.00    -0.129 C  
ENDBRANCH  22  23
ENDBRANCH  17  22
ENDBRANCH   9  10
ENDBRANCH   5   6
BRANCH   5  29
HETATM   29  C   UNL     1      -9.273  16.292  67.819  1.00  0.00    -0.203 A  
HETATM   30  S   UNL     1      -8.676  18.412  66.536  1.00  0.00    -0.255 SA 
HETATM   31  C   UNL     1      -8.400  16.751  66.847  1.00  0.00    -0.209 A  
HETATM   32  H2  UNL     1     -10.421  20.385  67.470  1.00  0.00     0.000 HD 
HETATM   33  H1  UNL     1     -11.397  19.520  68.652  1.00  0.00     0.000 HD 
HETATM   34  C   UNL     1      -9.942  18.411  67.693  1.00  0.00    -0.338 A  
HETATM   35  N   UNL     1     -10.645  19.520  67.964  1.00  0.00    -0.394 NA 
HETATM   36  N   UNL     1     -10.167  17.261  68.277  1.00  0.00    -0.326 NA 
ENDBRANCH   5  29
ENDBRANCH   3   5
ENDBRANCH   2   3
TORSDOF 7
ENDMDL
MODEL       48
REMARK 921   NORMALIZED FREE ENERGY PREDICTED BY IDOCK:   -5.42 KCAL/MOL
REMARK 922        TOTAL FREE ENERGY PREDICTED BY IDOCK:   -8.75 KCAL/MOL
REMARK 923 INTER-LIGAND FREE ENERGY PREDICTED BY IDOCK:   -7.55 KCAL/MOL
REMARK 924 INTRA-LIGAND FREE ENERGY PREDICTED BY IDOCK:   -1.20 KCAL/MOL
REMARK 927      BINDING AFFINITY PREDICTED BY RF-SCORE:    0.00 PKD
ROOT
HETATM    1  C   UNL     1     -11.904  15.775  70.879  1.00  0.00    -0.414 C  
HETATM    2  O   UNL     1     -11.688  15.537  69.494  1.00  0.00    -0.320 OA 
ENDROOT
BRANCH   2   3
HETATM    3  N   UNL     1     -10.634  14.628  69.352  1.00  0.00    -0.343 NA 
HETATM    4  H   UNL     1      -9.683  14.808  69.675  1.00  0.00     0.000 HD 
BRANCH   3   5
HETATM    5  C   UNL     1     -11.002  13.524  68.759  1.00  0.00    -0.261 C  
BRANCH   5   6
HETATM    6  C   UNL     1     -11.203  12.173  69.483  1.00  0.00    -0.131 C  
HETATM    7  H   UNL     1      -9.535  11.386  68.516  1.00  0.00     0.000 HD 
HETATM    8  O   UNL     1     -12.110  12.001  70.286  1.00  0.00    -0.337 OA 
HETATM    9  N   UNL     1     -10.342  11.160  69.097  1.00  0.00    -0.195 N  
BRANCH   9  10
HETATM   10  CA  UNL     1     -10.569   9.744  69.510  1.00  0.00    -0.233 C  
HETATM   11  N   UNL     1      -9.258   8.162  69.205  1.00  0.00    -0.151 N  
HETATM   12  C   UNL     1      -9.350   9.050  70.219  1.00  0.00    -0.198 C  
HETATM   13  C   UNL     1     -10.399   8.624  68.449  1.00  0.00    -0.201 C  
HETATM   14  O   UNL     1      -8.661   9.316  71.172  1.00  0.00    -0.281 OA 
HETATM   15  S   UNL     1      -9.779   9.068  66.809  1.00  0.00    -0.238 SA 
HETATM   16  C   UNL     1      -9.260   7.375  66.468  1.00  0.00    -0.165 C  
HETATM   17  C   UNL     1      -8.426   6.704  67.535  1.00  0.00    -0.121 C  
HETATM   18  CA  UNL     1      -8.439   7.127  68.833  1.00  0.00    -0.126 C  
HETATM   19  O   UNL     1      -8.200   6.093  70.981  1.00  0.00    -0.119 OA 
HETATM   20  C   UNL     1      -7.572   6.402  69.933  1.00  0.00    -0.100 C  
HETATM   21  OXT UNL     1      -6.410   6.078  69.542  1.00  0.00    -0.037 OA 
BRANCH  17  22
HETATM   22  C   UNL     1      -7.713   5.433  67.070  1.00  0.00    -0.100 C  
BRANCH  22  23
HETATM   23  N   UNL     1      -8.536   4.134  66.734  1.00  0.00    -0.107 N  
HETATM   24  C   UNL     1      -9.775   3.853  67.564  1.00  0.00    -0.112 C  
HETATM   25  C   UNL     1      -8.852   4.151  65.244  1.00  0.00    -0.129 C  
HETATM   26  C   UNL     1      -9.214   3.430  68.901  1.00  0.00    -0.229 C  
HETATM   27  C   UNL     1      -8.120   2.463  68.485  1.00  0.00    -0.069 C  
HETATM   28  C   UNL     1      -7.663   2.906  67.087  1.00  0.00    -0.074 C  
ENDBRANCH  22  23
ENDBRANCH  17  22
ENDBRANCH   9  10
ENDBRANCH   5   6
BRANCH   5  29
HETATM   29  C   UNL     1     -11.244  13.628  67.316  1.00  0.00    -0.309 A  
HETATM   30  S   UNL     1     -11.148  14.305  64.860  1.00  0.00    -0.402 SA 
HETATM   31  C   UNL     1     -10.545  14.458  66.456  1.00  0.00    -0.296 A  
HETATM   32  H2  UNL     1     -13.138  12.818  63.581  1.00  0.00     0.000 HD 
HETATM   33  H1  UNL     1     -13.823  11.866  64.893  1.00  0.00     0.000 HD 
HETATM   34  C   UNL     1     -12.280  13.139  65.407  1.00  0.00    -0.461 A  
HETATM   35  N   UNL     1     -13.150  12.559  64.568  1.00  0.00    -0.839 NA 
HETATM   36  N   UNL     1     -12.226  12.860  66.686  1.00  0.00    -0.447 NA 
ENDBRANCH   5  29
ENDBRANCH   3   5
ENDBRANCH   2   3
TORSDOF 7
ENDMDL
MODEL       49
REMARK 921   NORMALIZED FREE ENERGY PREDICTED BY IDOCK:   -5.39 KCAL/MOL
REMARK 922        TOTAL FREE ENERGY PREDICTED BY IDOCK:   -8.71 KCAL/MOL
REMARK 923 INTER-LIGAND FREE ENERGY PREDICTED BY IDOCK:   -7.69 KCAL/MOL
REMARK 924 INTRA-LIGAND FREE ENERGY PREDICTED BY IDOCK:   -1.01 KCAL/MOL
REMARK 927      BINDING AFFINITY PREDICTED BY RF-SCORE:    0.00 PKD
ROOT
HETATM    1  C   UNL     1      -8.592  15.739  69.093  1.00  0.00    -0.256 C  
HETATM    2  O   UNL     1      -9.605  14.742  69.042  1.00  0.00    -0.213 OA 
ENDROOT
BRANCH   2   3
HETATM    3  N   UNL     1      -9.314  13.858  67.997  1.00  0.00    -0.197 NA 
HETATM    4  H   UNL     1      -8.377  13.714  67.621  1.00  0.00     0.000 HD 
BRANCH   3   5
HETATM    5  C   UNL     1     -10.376  13.238  67.557  1.00  0.00    -0.229 C  
BRANCH   5   6
HETATM    6  C   UNL     1     -11.038  12.035  68.267  1.00  0.00    -0.243 C  
HETATM    7  H   UNL     1      -9.170  11.172  68.586  1.00  0.00     0.000 HD 
HETATM    8  O   UNL     1     -12.250  11.967  68.425  1.00  0.00    -0.425 OA 
HETATM    9  N   UNL     1     -10.177  11.015  68.632  1.00  0.00    -0.191 N  
BRANCH   9  10
HETATM   10  CA  UNL     1     -10.688   9.689  69.091  1.00  0.00    -0.217 C  
HETATM   11  N   UNL     1     -10.003   8.625  70.738  1.00  0.00    -0.187 N  
HETATM   12  C   UNL     1     -10.960   9.574  70.634  1.00  0.00    -0.306 C  
HETATM   13  C   UNL     1      -9.668   8.544  69.335  1.00  0.00    -0.177 C  
HETATM   14  O   UNL     1     -11.611  10.205  71.429  1.00  0.00    -0.348 OA 
HETATM   15  S   UNL     1      -7.902   8.913  69.211  1.00  0.00    -0.098 SA 
HETATM   16  C   UNL     1      -7.458   7.469  70.195  1.00  0.00    -0.086 C  
HETATM   17  C   UNL     1      -8.197   7.299  71.502  1.00  0.00    -0.105 C  
HETATM   18  CA  UNL     1      -9.407   7.888  71.729  1.00  0.00    -0.150 C  
HETATM   19  O   UNL     1     -11.376   7.347  72.981  1.00  0.00    -0.311 OA 
HETATM   20  C   UNL     1     -10.168   7.685  73.095  1.00  0.00    -0.342 C  
HETATM   21  OXT UNL     1      -9.415   7.722  74.115  1.00  0.00    -0.123 OA 
BRANCH  17  22
HETATM   22  C   UNL     1      -7.558   6.293  72.461  1.00  0.00    -0.101 C  
BRANCH  22  23
HETATM   23  N   UNL     1      -7.596   4.752  72.142  1.00  0.00    -0.082 N  
HETATM   24  C   UNL     1      -8.782   4.226  71.356  1.00  0.00    -0.111 C  
HETATM   25  C   UNL     1      -6.275   4.376  71.483  1.00  0.00    -0.018 C  
HETATM   26  C   UNL     1      -9.917   4.283  72.351  1.00  0.00    -0.229 C  
HETATM   27  C   UNL     1      -9.271   3.690  73.591  1.00  0.00    -0.102 C  
HETATM   28  C   UNL     1      -7.768   3.989  73.477  1.00  0.00    -0.080 C  
ENDBRANCH  22  23
ENDBRANCH  17  22
ENDBRANCH   9  10
ENDBRANCH   5   6
BRANCH   5  29
HETATM   29  C   UNL     1     -10.950  13.764  66.314  1.00  0.00    -0.297 A  
HETATM   30  S   UNL     1     -12.159  13.996  64.082  1.00  0.00    -0.347 SA 
HETATM   31  C   UNL     1     -11.698  13.024  65.414  1.00  0.00    -0.364 A  
HETATM   32  H2  UNL     1     -11.799  16.653  63.293  1.00  0.00     0.000 HD 
HETATM   33  H1  UNL     1     -10.852  17.331  64.611  1.00  0.00     0.000 HD 
HETATM   34  C   UNL     1     -11.356  15.335  64.790  1.00  0.00    -0.391 A  
HETATM   35  N   UNL     1     -11.330  16.534  64.191  1.00  0.00    -1.047 NA 
HETATM   36  N   UNL     1     -10.783  15.101  65.944  1.00  0.00    -0.321 NA 
ENDBRANCH   5  29
ENDBRANCH   3   5
ENDBRANCH   2   3
TORSDOF 7
ENDMDL
MODEL       50
REMARK 921   NORMALIZED FREE ENERGY PREDICTED BY IDOCK:   -5.36 KCAL/MOL
REMARK 922        TOTAL FREE ENERGY PREDICTED BY IDOCK:   -8.68 KCAL/MOL
REMARK 923 INTER-LIGAND FREE ENERGY PREDICTED BY IDOCK:   -7.98 KCAL/MOL
REMARK 924 INTRA-LIGAND FREE ENERGY PREDICTED BY IDOCK:   -0.70 KCAL/MOL
REMARK 927      BINDING AFFINITY PREDICTED BY RF-SCORE:    0.00 PKD
ROOT
HETATM    1  C   UNL     1     -12.393  10.966  70.124  1.00  0.00    -0.322 C  
HETATM    2  O   UNL     1     -11.631   9.795  70.392  1.00  0.00    -0.258 OA 
ENDROOT
BRANCH   2   3
HETATM    3  N   UNL     1     -10.274  10.095  70.233  1.00  0.00    -0.411 NA 
HETATM    4  H   UNL     1      -9.691  10.493  70.970  1.00  0.00     0.000 HD 
BRANCH   3   5
HETATM    5  C   UNL     1      -9.836   9.810  69.036  1.00  0.00    -0.181 C  
BRANCH   5   6
HETATM    6  C   UNL     1      -9.075  10.804  68.129  1.00  0.00    -0.151 C  
HETATM    7  H   UNL     1     -10.128  12.398  68.960  1.00  0.00     0.000 HD 
HETATM    8  O   UNL     1      -8.215  10.431  67.343  1.00  0.00    -0.117 OA 
HETATM    9  N   UNL     1      -9.494  12.121  68.210  1.00  0.00    -0.207 N  
BRANCH   9  10
HETATM   10  CA  UNL     1      -9.040  13.146  67.225  1.00  0.00    -0.217 C  
HETATM   11  N   UNL     1      -8.209  14.993  67.686  1.00  0.00    -0.156 N  
HETATM   12  C   UNL     1      -7.634  13.781  67.519  1.00  0.00    -0.173 C  
HETATM   13  C   UNL     1      -9.563  14.600  67.372  1.00  0.00    -0.215 C  
HETATM   14  O   UNL     1      -6.528  13.340  67.710  1.00  0.00    -0.129 OA 
HETATM   15  S   UNL     1     -10.564  15.022  68.818  1.00  0.00    -0.248 SA 
HETATM   16  C   UNL     1     -10.209  16.781  68.641  1.00  0.00    -0.298 C  
HETATM   17  C   UNL     1      -8.753  17.156  68.481  1.00  0.00    -0.261 C  
HETATM   18  CA  UNL     1      -7.822  16.260  68.039  1.00  0.00    -0.149 C  
HETATM   19  O   UNL     1      -5.804  16.372  66.753  1.00  0.00    -0.336 OA 
HETATM   20  C   UNL     1      -6.312  16.677  67.865  1.00  0.00    -0.134 C  
HETATM   21  OXT UNL     1      -5.869  17.412  68.799  1.00  0.00    -0.164 OA 
BRANCH  17  22
HETATM   22  C   UNL     1      -8.458  18.641  68.695  1.00  0.00    -0.306 C  
BRANCH  22  23
HETATM   23  N   UNL     1      -8.475  19.640  67.479  1.00  0.00    -0.298 N  
HETATM   24  C   UNL     1      -9.549  20.713  67.465  1.00  0.00    -0.366 C  
HETATM   25  C   UNL     1      -7.082  20.241  67.345  1.00  0.00    -0.283 C  
HETATM   26  C   UNL     1     -10.810  19.944  67.149  1.00  0.00    -0.381 C  
HETATM   27  C   UNL     1     -10.352  19.055  66.006  1.00  0.00    -0.512 C  
HETATM   28  C   UNL     1      -8.843  18.842  66.205  1.00  0.00    -0.233 C  
ENDBRANCH  22  23
ENDBRANCH  17  22
ENDBRANCH   9  10
ENDBRANCH   5   6
BRANCH   5  29
HETATM   29  C   UNL     1     -10.094   8.442  68.574  1.00  0.00    -0.197 A  
HETATM   30  S   UNL     1     -10.718   6.411  67.166  1.00  0.00    -0.395 SA 
HETATM   31  C   UNL     1     -10.501   8.105  67.294  1.00  0.00    -0.309 A  
HETATM   32  H2  UNL     1     -10.448   4.202  68.855  1.00  0.00     0.000 HD 
HETATM   33  H1  UNL     1      -9.914   4.924  70.368  1.00  0.00     0.000 HD 
HETATM   34  C   UNL     1     -10.243   6.233  68.804  1.00  0.00    -0.178 A  
HETATM   35  N   UNL     1     -10.196   5.030  69.394  1.00  0.00    -0.224 NA 
HETATM   36  N   UNL     1      -9.931   7.345  69.422  1.00  0.00    -0.173 NA 
ENDBRANCH   5  29
ENDBRANCH   3   5
ENDBRANCH   2   3
TORSDOF 7
ENDMDL
MODEL       51
REMARK 921   NORMALIZED FREE ENERGY PREDICTED BY IDOCK:   -5.35 KCAL/MOL
REMARK 922        TOTAL FREE ENERGY PREDICTED BY IDOCK:   -8.66 KCAL/MOL
REMARK 923 INTER-LIGAND FREE ENERGY PREDICTED BY IDOCK:   -7.44 KCAL/MOL
REMARK 924 INTRA-LIGAND FREE ENERGY PREDICTED BY IDOCK:   -1.22 KCAL/MOL
REMARK 927      BINDING AFFINITY PREDICTED BY RF-SCORE:    0.00 PKD
ROOT
HETATM    1  C   UNL     1     -12.782  15.497  71.348  1.00  0.00    -0.451 C  
HETATM    2  O   UNL     1     -12.909  14.326  70.551  1.00  0.00    -0.345 OA 
ENDROOT
BRANCH   2   3
HETATM    3  N   UNL     1     -11.701  13.621  70.591  1.00  0.00    -0.521 NA 
HETATM    4  H   UNL     1     -10.896  13.907  71.148  1.00  0.00     0.000 HD 
BRANCH   3   5
HETATM    5  C   UNL     1     -11.719  12.557  69.833  1.00  0.00    -0.255 C  
BRANCH   5   6
HETATM    6  C   UNL     1     -12.065  11.137  70.337  1.00  0.00    -0.385 C  
HETATM    7  H   UNL     1     -10.298  10.396  69.520  1.00  0.00     0.000 HD 
HETATM    8  O   UNL     1     -13.085  10.910  70.974  1.00  0.00    -0.331 OA 
HETATM    9  N   UNL     1     -11.189  10.139  69.946  1.00  0.00    -0.270 N  
BRANCH   9  10
HETATM   10  CA  UNL     1     -11.518   8.695  70.133  1.00  0.00    -0.005 C  
HETATM   11  N   UNL     1     -10.292   7.273  71.022  1.00  0.00    -0.200 N  
HETATM   12  C   UNL     1     -11.203   8.115  71.559  1.00  0.00    -0.259 C  
HETATM   13  C   UNL     1     -10.500   7.632  69.638  1.00  0.00    -0.235 C  
HETATM   14  O   UNL     1     -11.503   8.426  72.685  1.00  0.00    -0.380 OA 
HETATM   15  S   UNL     1      -8.898   8.188  69.010  1.00  0.00    -0.144 SA 
HETATM   16  C   UNL     1      -8.148   6.572  69.284  1.00  0.00    -0.112 C  
HETATM   17  C   UNL     1      -8.355   5.963  70.652  1.00  0.00    -0.124 C  
HETATM   18  CA  UNL     1      -9.386   6.344  71.463  1.00  0.00    -0.148 C  
HETATM   19  O   UNL     1     -10.763   5.279  73.109  1.00  0.00    -0.220 OA 
HETATM   20  C   UNL     1      -9.591   5.684  72.880  1.00  0.00    -0.155 C  
HETATM   21  OXT UNL     1      -8.515   5.499  73.524  1.00  0.00    -0.113 OA 
BRANCH  17  22
HETATM   22  C   UNL     1      -7.425   4.791  70.968  1.00  0.00    -0.068 C  
BRANCH  22  23
HETATM   23  N   UNL     1      -7.574   3.425  70.198  1.00  0.00    -0.044 N  
HETATM   24  C   UNL     1      -8.965   3.023  69.743  1.00  0.00    -0.107 C  
HETATM   25  C   UNL     1      -6.584   3.429  69.040  1.00  0.00    -0.037 C  
HETATM   26  C   UNL     1      -9.659   2.640  71.029  1.00  0.00    -0.210 C  
HETATM   27  C   UNL     1      -8.604   1.782  71.705  1.00  0.00    -0.079 C  
HETATM   28  C   UNL     1      -7.247   2.279  71.185  1.00  0.00    -0.033 C  
ENDBRANCH  22  23
ENDBRANCH  17  22
ENDBRANCH   9  10
ENDBRANCH   5   6
BRANCH   5  29
HETATM   29  C   UNL     1     -11.398  12.777  68.419  1.00  0.00    -0.295 A  
HETATM   30  S   UNL     1     -10.264  13.483  66.248  1.00  0.00    -0.305 SA 
HETATM   31  C   UNL     1     -10.249  13.398  67.958  1.00  0.00    -0.243 A  
HETATM   32  H2  UNL     1     -11.986  12.685  64.196  1.00  0.00     0.000 HD 
HETATM   33  H1  UNL     1     -13.313  11.927  65.068  1.00  0.00     0.000 HD 
HETATM   34  C   UNL     1     -11.778  12.678  66.229  1.00  0.00    -0.402 A  
HETATM   35  N   UNL     1     -12.413  12.406  65.080  1.00  0.00    -0.584 NA 
HETATM   36  N   UNL     1     -12.255  12.351  67.403  1.00  0.00    -0.384 NA 
ENDBRANCH   5  29
ENDBRANCH   3   5
ENDBRANCH   2   3
TORSDOF 7
ENDMDL
MODEL       52
REMARK 921   NORMALIZED FREE ENERGY PREDICTED BY IDOCK:   -5.32 KCAL/MOL
REMARK 922        TOTAL FREE ENERGY PREDICTED BY IDOCK:   -8.61 KCAL/MOL
REMARK 923 INTER-LIGAND FREE ENERGY PREDICTED BY IDOCK:   -7.55 KCAL/MOL
REMARK 924 INTRA-LIGAND FREE ENERGY PREDICTED BY IDOCK:   -1.06 KCAL/MOL
REMARK 927      BINDING AFFINITY PREDICTED BY RF-SCORE:    0.00 PKD
ROOT
HETATM    1  C   UNL     1      -8.607   7.601  73.103  1.00  0.00    -0.165 C  
HETATM    2  O   UNL     1      -8.624   8.509  72.008  1.00  0.00    -0.176 OA 
ENDROOT
BRANCH   2   3
HETATM    3  N   UNL     1      -9.293   7.909  70.936  1.00  0.00    -0.152 NA 
HETATM    4  H   UNL     1      -9.194   6.925  70.685  1.00  0.00     0.000 HD 
BRANCH   3   5
HETATM    5  C   UNL     1     -10.058   8.749  70.291  1.00  0.00    -0.191 C  
BRANCH   5   6
HETATM    6  C   UNL     1      -9.651   9.473  68.988  1.00  0.00    -0.166 C  
HETATM    7  H   UNL     1      -8.461  10.794  70.071  1.00  0.00     0.000 HD 
HETATM    8  O   UNL     1     -10.058   9.107  67.893  1.00  0.00    -0.177 OA 
HETATM    9  N   UNL     1      -8.868  10.602  69.156  1.00  0.00    -0.152 N  
BRANCH   9  10
HETATM   10  CA  UNL     1      -8.607  11.546  68.029  1.00  0.00    -0.150 C  
HETATM   11  N   UNL     1      -8.403  13.606  68.190  1.00  0.00    -0.158 N  
HETATM   12  C   UNL     1      -7.489  12.617  68.297  1.00  0.00    -0.123 C  
HETATM   13  C   UNL     1      -9.539  12.776  67.861  1.00  0.00    -0.211 C  
HETATM   14  O   UNL     1      -6.336  12.568  68.647  1.00  0.00    -0.064 OA 
HETATM   15  S   UNL     1     -10.790  13.099  69.126  1.00  0.00    -0.018 SA 
HETATM   16  C   UNL     1     -10.934  14.831  68.645  1.00  0.00    -0.255 C  
HETATM   17  C   UNL     1      -9.638  15.599  68.521  1.00  0.00    -0.199 C  
HETATM   18  CA  UNL     1      -8.443  14.970  68.324  1.00  0.00    -0.147 C  
HETATM   19  O   UNL     1      -6.397  15.483  67.187  1.00  0.00    -0.311 OA 
HETATM   20  C   UNL     1      -7.105  15.794  68.183  1.00  0.00    -0.116 C  
HETATM   21  OXT UNL     1      -7.011  16.767  68.989  1.00  0.00    -0.196 OA 
BRANCH  17  22
HETATM   22  C   UNL     1      -9.809  17.118  68.470  1.00  0.00    -0.297 C  
BRANCH  22  23
HETATM   23  N   UNL     1      -9.943  17.860  67.088  1.00  0.00    -0.313 N  
HETATM   24  C   UNL     1      -8.713  18.568  66.549  1.00  0.00    -0.286 C  
HETATM   25  C   UNL     1     -10.508  16.871  66.077  1.00  0.00    -0.290 C  
HETATM   26  C   UNL     1      -8.581  19.776  67.446  1.00  0.00    -0.374 C  
HETATM   27  C   UNL     1     -10.011  20.281  67.497  1.00  0.00    -0.557 C  
HETATM   28  C   UNL     1     -10.909  19.054  67.274  1.00  0.00    -0.408 C  
ENDBRANCH  22  23
ENDBRANCH  17  22
ENDBRANCH   9  10
ENDBRANCH   5   6
BRANCH   5  29
HETATM   29  C   UNL     1     -11.386   8.975  70.873  1.00  0.00    -0.293 A  
HETATM   30  S   UNL     1     -13.464  10.049  71.885  1.00  0.00    -0.292 SA 
HETATM   31  C   UNL     1     -11.899  10.216  71.211  1.00  0.00    -0.360 A  
HETATM   32  H2  UNL     1     -15.212   7.943  72.449  1.00  0.00     0.000 HD 
HETATM   33  H1  UNL     1     -14.315   6.530  71.906  1.00  0.00     0.000 HD 
HETATM   34  C   UNL     1     -13.368   8.351  71.670  1.00  0.00    -0.338 A  
HETATM   35  N   UNL     1     -14.372   7.540  72.034  1.00  0.00    -0.327 NA 
HETATM   36  N   UNL     1     -12.259   7.915  71.127  1.00  0.00    -0.288 NA 
ENDBRANCH   5  29
ENDBRANCH   3   5
ENDBRANCH   2   3
TORSDOF 7
ENDMDL
MODEL       53
REMARK 921   NORMALIZED FREE ENERGY PREDICTED BY IDOCK:   -5.28 KCAL/MOL
REMARK 922        TOTAL FREE ENERGY PREDICTED BY IDOCK:   -8.55 KCAL/MOL
REMARK 923 INTER-LIGAND FREE ENERGY PREDICTED BY IDOCK:   -7.57 KCAL/MOL
REMARK 924 INTRA-LIGAND FREE ENERGY PREDICTED BY IDOCK:   -0.98 KCAL/MOL
REMARK 927      BINDING AFFINITY PREDICTED BY RF-SCORE:    0.00 PKD
ROOT
HETATM    1  C   UNL     1      -8.251   7.772  74.491  1.00  0.00    -0.213 C  
HETATM    2  O   UNL     1      -7.925   8.379  73.246  1.00  0.00    -0.299 OA 
ENDROOT
BRANCH   2   3
HETATM    3  N   UNL     1      -8.095   7.435  72.227  1.00  0.00    -0.099 NA 
HETATM    4  H   UNL     1      -7.683   6.503  72.244  1.00  0.00     0.000 HD 
BRANCH   3   5
HETATM    5  C   UNL     1      -8.840   7.883  71.252  1.00  0.00    -0.135 C  
BRANCH   5   6
HETATM    6  C   UNL     1      -8.287   8.478  69.937  1.00  0.00    -0.123 C  
HETATM    7  H   UNL     1      -8.120  10.350  70.834  1.00  0.00     0.000 HD 
HETATM    8  O   UNL     1      -8.119   7.791  68.939  1.00  0.00    -0.122 OA 
HETATM    9  N   UNL     1      -8.078   9.847  69.948  1.00  0.00    -0.180 N  
BRANCH   9  10
HETATM   10  CA  UNL     1      -7.793  10.602  68.693  1.00  0.00    -0.121 C  
HETATM   11  N   UNL     1      -8.624  12.428  68.156  1.00  0.00    -0.180 N  
HETATM   12  C   UNL     1      -7.522  12.138  68.882  1.00  0.00    -0.027 C  
HETATM   13  C   UNL     1      -8.988  11.071  67.821  1.00  0.00    -0.140 C  
HETATM   14  O   UNL     1      -6.762  12.788  69.556  1.00  0.00    -0.072 OA 
HETATM   15  S   UNL     1     -10.668  10.825  68.445  1.00  0.00    -0.238 SA 
HETATM   16  C   UNL     1     -11.337  12.095  67.354  1.00  0.00    -0.326 C  
HETATM   17  C   UNL     1     -10.619  13.426  67.359  1.00  0.00    -0.254 C  
HETATM   18  CA  UNL     1      -9.323  13.544  67.772  1.00  0.00    -0.213 C  
HETATM   19  O   UNL     1      -7.457  14.934  67.201  1.00  0.00    -0.195 OA 
HETATM   20  C   UNL     1      -8.589  14.940  67.755  1.00  0.00    -0.167 C  
HETATM   21  OXT UNL     1      -9.310  15.906  68.146  1.00  0.00    -0.196 OA 
BRANCH  17  22
HETATM   22  C   UNL     1     -11.406  14.569  66.717  1.00  0.00    -0.352 C  
BRANCH  22  23
HETATM   23  N   UNL     1     -11.226  14.901  65.189  1.00  0.00    -0.369 N  
HETATM   24  C   UNL     1     -12.398  14.620  64.266  1.00  0.00    -0.349 C  
HETATM   25  C   UNL     1     -10.756  16.345  65.074  1.00  0.00    -0.259 C  
HETATM   26  C   UNL     1     -12.420  13.113  64.174  1.00  0.00    -0.348 C  
HETATM   27  C   UNL     1     -10.952  12.795  63.954  1.00  0.00    -0.458 C  
HETATM   28  C   UNL     1     -10.162  13.938  64.610  1.00  0.00    -0.247 C  
ENDBRANCH  22  23
ENDBRANCH  17  22
ENDBRANCH   9  10
ENDBRANCH   5   6
BRANCH   5  29
HETATM   29  C   UNL     1     -10.289   7.777  71.459  1.00  0.00    -0.193 A  
HETATM   30  S   UNL     1     -12.682   6.914  71.616  1.00  0.00    -0.294 SA 
HETATM   31  C   UNL     1     -11.024   6.613  71.311  1.00  0.00    -0.253 A  
HETATM   32  H2  UNL     1     -14.240   9.119  72.338  1.00  0.00     0.000 HD 
HETATM   33  H1  UNL     1     -13.055  10.413  72.469  1.00  0.00     0.000 HD 
HETATM   34  C   UNL     1     -12.316   8.558  71.941  1.00  0.00    -0.352 A  
HETATM   35  N   UNL     1     -13.272   9.436  72.276  1.00  0.00    -0.444 NA 
HETATM   36  N   UNL     1     -11.051   8.881  71.844  1.00  0.00    -0.358 NA 
ENDBRANCH   5  29
ENDBRANCH   3   5
ENDBRANCH   2   3
TORSDOF 7
ENDMDL
MODEL       54
REMARK 921   NORMALIZED FREE ENERGY PREDICTED BY IDOCK:   -5.26 KCAL/MOL
REMARK 922        TOTAL FREE ENERGY PREDICTED BY IDOCK:   -8.52 KCAL/MOL
REMARK 923 INTER-LIGAND FREE ENERGY PREDICTED BY IDOCK:   -7.72 KCAL/MOL
REMARK 924 INTRA-LIGAND FREE ENERGY PREDICTED BY IDOCK:   -0.81 KCAL/MOL
REMARK 927      BINDING AFFINITY PREDICTED BY RF-SCORE:    0.00 PKD
ROOT
HETATM    1  C   UNL     1     -11.785   8.833  71.202  1.00  0.00    -0.291 C  
HETATM    2  O   UNL     1     -10.967   9.735  70.466  1.00  0.00    -0.271 OA 
ENDROOT
BRANCH   2   3
HETATM    3  N   UNL     1     -11.380   9.727  69.129  1.00  0.00    -0.451 NA 
HETATM    4  H   UNL     1     -11.979   9.007  68.724  1.00  0.00     0.000 HD 
BRANCH   3   5
HETATM    5  C   UNL     1     -10.911  10.744  68.456  1.00  0.00    -0.243 C  
BRANCH   5   6
HETATM    6  C   UNL     1     -11.444  12.190  68.582  1.00  0.00    -0.296 C  
HETATM    7  H   UNL     1     -10.675  12.657  66.704  1.00  0.00     0.000 HD 
HETATM    8  O   UNL     1     -12.070  12.562  69.565  1.00  0.00    -0.267 OA 
HETATM    9  N   UNL     1     -11.092  13.043  67.551  1.00  0.00    -0.258 N  
BRANCH   9  10
HETATM   10  CA  UNL     1     -11.309  14.517  67.649  1.00  0.00    -0.337 C  
HETATM   11  N   UNL     1      -9.880  15.983  67.300  1.00  0.00    -0.233 N  
HETATM   12  C   UNL     1     -10.732  15.361  66.456  1.00  0.00    -0.308 C  
HETATM   13  C   UNL     1     -10.333  15.355  68.519  1.00  0.00    -0.226 C  
HETATM   14  O   UNL     1     -10.858  15.328  65.257  1.00  0.00    -0.351 OA 
HETATM   15  S   UNL     1      -8.889  14.536  69.237  1.00  0.00     0.216 SA 
HETATM   16  C   UNL     1      -8.020  16.102  69.453  1.00  0.00    -0.107 C  
HETATM   17  C   UNL     1      -7.965  17.007  68.244  1.00  0.00    -0.222 C  
HETATM   18  CA  UNL     1      -8.866  16.902  67.223  1.00  0.00    -0.195 C  
HETATM   19  O   UNL     1      -9.893  18.415  65.675  1.00  0.00    -0.440 OA 
HETATM   20  C   UNL     1      -8.798  17.868  65.978  1.00  0.00     0.027 C  
HETATM   21  OXT UNL     1      -7.622  18.092  65.562  1.00  0.00    -0.530 OA 
BRANCH  17  22
HETATM   22  C   UNL     1      -6.935  18.133  68.346  1.00  0.00    -0.241 C  
BRANCH  22  23
HETATM   23  N   UNL     1      -7.387  19.596  68.711  1.00  0.00    -0.342 N  
HETATM   24  C   UNL     1      -7.058  20.701  67.724  1.00  0.00    -0.282 C  
HETATM   25  C   UNL     1      -8.874  19.560  69.037  1.00  0.00    -0.181 C  
HETATM   26  C   UNL     1      -5.566  20.876  67.876  1.00  0.00    -0.338 C  
HETATM   27  C   UNL     1      -5.408  20.885  69.386  1.00  0.00    -0.403 C  
HETATM   28  C   UNL     1      -6.574  20.056  69.945  1.00  0.00    -0.281 C  
ENDBRANCH  22  23
ENDBRANCH  17  22
ENDBRANCH   9  10
ENDBRANCH   5   6
BRANCH   5  29
HETATM   29  C   UNL     1      -9.799  10.447  67.547  1.00  0.00    -0.172 A  
HETATM   30  S   UNL     1      -8.387   9.596  65.602  1.00  0.00    -0.134 SA 
HETATM   31  C   UNL     1      -9.918   9.756  66.353  1.00  0.00    -0.247 A  
HETATM   32  H2  UNL     1      -5.764  10.378  66.166  1.00  0.00     0.000 HD 
HETATM   33  H1  UNL     1      -5.927  11.232  67.697  1.00  0.00     0.000 HD 
HETATM   34  C   UNL     1      -7.671  10.466  66.895  1.00  0.00    -0.111 A  
HETATM   35  N   UNL     1      -6.354  10.715  66.928  1.00  0.00    -0.076 NA 
HETATM   36  N   UNL     1      -8.497  10.866  67.829  1.00  0.00    -0.122 NA 
ENDBRANCH   5  29
ENDBRANCH   3   5
ENDBRANCH   2   3
TORSDOF 7
ENDMDL
MODEL       55
REMARK 921   NORMALIZED FREE ENERGY PREDICTED BY IDOCK:   -5.24 KCAL/MOL
REMARK 922        TOTAL FREE ENERGY PREDICTED BY IDOCK:   -8.50 KCAL/MOL
REMARK 923 INTER-LIGAND FREE ENERGY PREDICTED BY IDOCK:   -7.48 KCAL/MOL
REMARK 924 INTRA-LIGAND FREE ENERGY PREDICTED BY IDOCK:   -1.01 KCAL/MOL
REMARK 927      BINDING AFFINITY PREDICTED BY RF-SCORE:    0.00 PKD
ROOT
HETATM    1  C   UNL     1     -10.242  18.522  68.278  1.00  0.00    -0.376 C  
HETATM    2  O   UNL     1     -10.963  17.296  68.281  1.00  0.00    -0.336 OA 
ENDROOT
BRANCH   2   3
HETATM    3  N   UNL     1     -10.404  16.448  69.243  1.00  0.00    -0.274 NA 
HETATM    4  H   UNL     1      -9.544  16.656  69.751  1.00  0.00     0.000 HD 
BRANCH   3   5
HETATM    5  C   UNL     1     -11.106  15.361  69.419  1.00  0.00    -0.282 C  
BRANCH   5   6
HETATM    6  C   UNL     1     -11.193  14.207  68.394  1.00  0.00    -0.265 C  
HETATM    7  H   UNL     1      -9.758  13.132  69.454  1.00  0.00     0.000 HD 
HETATM    8  O   UNL     1     -11.960  14.247  67.441  1.00  0.00    -0.395 OA 
HETATM    9  N   UNL     1     -10.290  13.175  68.585  1.00  0.00    -0.229 N  
BRANCH   9  10
HETATM   10  CA  UNL     1     -10.076  12.124  67.547  1.00  0.00    -0.196 C  
HETATM   11  N   UNL     1      -9.666  10.121  67.910  1.00  0.00    -0.145 N  
HETATM   12  C   UNL     1     -10.842  10.774  67.792  1.00  0.00    -0.269 C  
HETATM   13  C   UNL     1      -8.800  11.244  67.633  1.00  0.00    -0.138 C  
HETATM   14  O   UNL     1     -11.995  10.478  67.989  1.00  0.00    -0.350 OA 
HETATM   15  S   UNL     1      -7.719  11.421  69.072  1.00  0.00    -0.009 SA 
HETATM   16  C   UNL     1      -6.983   9.796  68.809  1.00  0.00    -0.066 C  
HETATM   17  C   UNL     1      -7.948   8.649  68.612  1.00  0.00    -0.115 C  
HETATM   18  CA  UNL     1      -9.234   8.852  68.199  1.00  0.00    -0.139 C  
HETATM   19  O   UNL     1     -10.827   7.642  66.882  1.00  0.00    -0.328 OA 
HETATM   20  C   UNL     1     -10.219   7.639  67.986  1.00  0.00    -0.202 C  
HETATM   21  OXT UNL     1     -10.135   6.743  68.878  1.00  0.00    -0.154 OA 
BRANCH  17  22
HETATM   22  C   UNL     1      -7.318   7.263  68.753  1.00  0.00    -0.096 C  
BRANCH  22  23
HETATM   23  N   UNL     1      -6.759   6.509  67.489  1.00  0.00    -0.064 N  
HETATM   24  C   UNL     1      -7.650   5.465  66.842  1.00  0.00    -0.089 C  
HETATM   25  C   UNL     1      -6.301   7.556  66.482  1.00  0.00    -0.045 C  
HETATM   26  C   UNL     1      -7.620   4.319  67.826  1.00  0.00    -0.069 C  
HETATM   27  C   UNL     1      -6.139   4.225  68.146  1.00  0.00    -0.031 C  
HETATM   28  C   UNL     1      -5.564   5.635  67.939  1.00  0.00    -0.012 C  
ENDBRANCH  22  23
ENDBRANCH  17  22
ENDBRANCH   9  10
ENDBRANCH   5   6
BRANCH   5  29
HETATM   29  C   UNL     1     -11.829  15.269  70.692  1.00  0.00    -0.335 A  
HETATM   30  S   UNL     1     -12.688  15.692  73.054  1.00  0.00    -0.533 SA 
HETATM   31  C   UNL     1     -11.697  16.164  71.741  1.00  0.00    -0.488 A  
HETATM   32  H2  UNL     1     -14.481  13.617  73.595  1.00  0.00     0.000 HD 
HETATM   33  H1  UNL     1     -14.454  12.675  72.109  1.00  0.00     0.000 HD 
HETATM   34  C   UNL     1     -13.240  14.347  72.145  1.00  0.00    -0.384 A  
HETATM   35  N   UNL     1     -14.126  13.476  72.649  1.00  0.00    -0.729 NA 
HETATM   36  N   UNL     1     -12.740  14.241  70.939  1.00  0.00    -0.340 NA 
ENDBRANCH   5  29
ENDBRANCH   3   5
ENDBRANCH   2   3
TORSDOF 7
ENDMDL
MODEL       56
REMARK 921   NORMALIZED FREE ENERGY PREDICTED BY IDOCK:   -5.23 KCAL/MOL
REMARK 922        TOTAL FREE ENERGY PREDICTED BY IDOCK:   -8.48 KCAL/MOL
REMARK 923 INTER-LIGAND FREE ENERGY PREDICTED BY IDOCK:   -7.78 KCAL/MOL
REMARK 924 INTRA-LIGAND FREE ENERGY PREDICTED BY IDOCK:   -0.71 KCAL/MOL
REMARK 927      BINDING AFFINITY PREDICTED BY RF-SCORE:    0.00 PKD
ROOT
HETATM    1  C   UNL     1     -12.725  15.126  70.586  1.00  0.00    -0.398 C  
HETATM    2  O   UNL     1     -11.523  14.627  70.013  1.00  0.00    -0.254 OA 
ENDROOT
BRANCH   2   3
HETATM    3  N   UNL     1     -11.837  13.948  68.830  1.00  0.00    -0.344 NA 
HETATM    4  H   UNL     1     -12.754  13.548  68.632  1.00  0.00     0.000 HD 
BRANCH   3   5
HETATM    5  C   UNL     1     -10.823  13.882  68.008  1.00  0.00    -0.246 C  
BRANCH   5   6
HETATM    6  C   UNL     1      -9.793  12.730  67.989  1.00  0.00    -0.226 C  
HETATM    7  H   UNL     1     -11.046  11.565  69.177  1.00  0.00     0.000 HD 
HETATM    8  O   UNL     1      -8.740  12.817  67.372  1.00  0.00    -0.176 OA 
HETATM    9  N   UNL     1     -10.109  11.639  68.780  1.00  0.00    -0.191 N  
BRANCH   9  10
HETATM   10  CA  UNL     1      -9.110  10.567  69.066  1.00  0.00    -0.181 C  
HETATM   11  N   UNL     1      -9.503   8.530  69.163  1.00  0.00    -0.154 N  
HETATM   12  C   UNL     1      -9.175   9.318  68.116  1.00  0.00    -0.130 C  
HETATM   13  C   UNL     1      -9.421   9.543  70.191  1.00  0.00    -0.246 C  
HETATM   14  O   UNL     1      -9.141   9.160  66.921  1.00  0.00    -0.130 OA 
HETATM   15  S   UNL     1     -11.043   9.594  70.988  1.00  0.00    -0.376 SA 
HETATM   16  C   UNL     1     -10.892   7.893  71.567  1.00  0.00    -0.229 C  
HETATM   17  C   UNL     1     -10.490   6.868  70.531  1.00  0.00    -0.234 C  
HETATM   18  CA  UNL     1      -9.843   7.220  69.381  1.00  0.00    -0.163 C  
HETATM   19  O   UNL     1      -8.220   6.204  67.942  1.00  0.00    -0.115 OA 
HETATM   20  C   UNL     1      -9.420   6.132  68.321  1.00  0.00    -0.117 C  
HETATM   21  OXT UNL     1     -10.293   5.234  68.127  1.00  0.00    -0.169 OA 
BRANCH  17  22
HETATM   22  C   UNL     1     -10.721   5.418  70.957  1.00  0.00    -0.169 C  
BRANCH  22  23
HETATM   23  N   UNL     1      -9.730   4.714  71.959  1.00  0.00    -0.161 N  
HETATM   24  C   UNL     1     -10.219   3.466  72.670  1.00  0.00    -0.159 C  
HETATM   25  C   UNL     1      -8.419   4.464  71.225  1.00  0.00    -0.098 C  
HETATM   26  C   UNL     1     -11.217   3.999  73.671  1.00  0.00    -0.305 C  
HETATM   27  C   UNL     1     -10.467   5.184  74.254  1.00  0.00    -0.315 C  
HETATM   28  C   UNL     1      -9.504   5.665  73.158  1.00  0.00    -0.146 C  
ENDBRANCH  22  23
ENDBRANCH  17  22
ENDBRANCH   9  10
ENDBRANCH   5   6
BRANCH   5  29
HETATM   29  C   UNL     1     -10.707  14.989  67.052  1.00  0.00    -0.304 A  
HETATM   30  S   UNL     1     -10.120  17.198  65.925  1.00  0.00    -0.183 SA 
HETATM   31  C   UNL     1      -9.980  16.147  67.270  1.00  0.00    -0.248 A  
HETATM   32  H2  UNL     1     -11.411  17.155  63.447  1.00  0.00     0.000 HD 
HETATM   33  H1  UNL     1     -12.216  15.591  63.448  1.00  0.00     0.000 HD 
HETATM   34  C   UNL     1     -11.117  16.046  65.137  1.00  0.00    -0.283 A  
HETATM   35  N   UNL     1     -11.623  16.275  63.917  1.00  0.00    -0.988 NA 
HETATM   36  N   UNL     1     -11.337  14.943  65.807  1.00  0.00    -0.337 NA 
ENDBRANCH   5  29
ENDBRANCH   3   5
ENDBRANCH   2   3
TORSDOF 7
ENDMDL
MODEL       57
REMARK 921   NORMALIZED FREE ENERGY PREDICTED BY IDOCK:   -5.23 KCAL/MOL
REMARK 922        TOTAL FREE ENERGY PREDICTED BY IDOCK:   -8.48 KCAL/MOL
REMARK 923 INTER-LIGAND FREE ENERGY PREDICTED BY IDOCK:   -7.66 KCAL/MOL
REMARK 924 INTRA-LIGAND FREE ENERGY PREDICTED BY IDOCK:   -0.82 KCAL/MOL
REMARK 927      BINDING AFFINITY PREDICTED BY RF-SCORE:    0.00 PKD
ROOT
HETATM    1  C   UNL     1      -5.809   9.256  64.277  1.00  0.00    -0.071 C  
HETATM    2  O   UNL     1      -6.849   9.348  65.243  1.00  0.00    -0.079 OA 
ENDROOT
BRANCH   2   3
HETATM    3  N   UNL     1      -7.938   8.585  64.806  1.00  0.00    -0.135 NA 
HETATM    4  H   UNL     1      -8.105   8.344  63.830  1.00  0.00     0.000 HD 
BRANCH   3   5
HETATM    5  C   UNL     1      -8.715   8.217  65.789  1.00  0.00    -0.154 C  
BRANCH   5   6
HETATM    6  C   UNL     1      -9.873   9.073  66.350  1.00  0.00    -0.286 C  
HETATM    7  H   UNL     1      -9.940  10.173  64.582  1.00  0.00     0.000 HD 
HETATM    8  O   UNL     1     -10.342   8.875  67.463  1.00  0.00    -0.230 OA 
HETATM    9  N   UNL     1     -10.278  10.123  65.543  1.00  0.00    -0.264 N  
BRANCH   9  10
HETATM   10  CA  UNL     1     -11.199  11.184  66.048  1.00  0.00     0.034 C  
HETATM   11  N   UNL     1     -11.055  13.215  65.639  1.00  0.00    -0.275 N  
HETATM   12  C   UNL     1     -11.680  12.222  64.971  1.00  0.00    -0.352 C  
HETATM   13  C   UNL     1     -10.587  12.424  66.754  1.00  0.00    -0.226 C  
HETATM   14  O   UNL     1     -12.217  12.138  63.894  1.00  0.00    -0.450 OA 
HETATM   15  S   UNL     1      -8.788  12.605  66.787  1.00  0.00    -0.120 SA 
HETATM   16  C   UNL     1      -8.899  14.378  67.093  1.00  0.00    -0.229 C  
HETATM   17  C   UNL     1      -9.811  15.158  66.174  1.00  0.00    -0.325 C  
HETATM   18  CA  UNL     1     -10.821  14.557  65.478  1.00  0.00    -0.336 C  
HETATM   19  O   UNL     1     -13.000  15.194  64.716  1.00  0.00    -0.059 OA 
HETATM   20  C   UNL     1     -11.769  15.393  64.536  1.00  0.00    -0.277 C  
HETATM   21  OXT UNL     1     -11.168  16.273  63.849  1.00  0.00    -0.676 OA 
BRANCH  17  22
HETATM   22  C   UNL     1      -9.608  16.673  66.222  1.00  0.00    -0.299 C  
BRANCH  22  23
HETATM   23  N   UNL     1     -10.071  17.500  67.480  1.00  0.00    -0.313 N  
HETATM   24  C   UNL     1     -10.705  18.857  67.235  1.00  0.00    -0.449 C  
HETATM   25  C   UNL     1     -10.971  16.606  68.323  1.00  0.00    -0.341 C  
HETATM   26  C   UNL     1      -9.538  19.718  66.811  1.00  0.00    -0.501 C  
HETATM   27  C   UNL     1      -8.486  19.341  67.838  1.00  0.00    -0.343 C  
HETATM   28  C   UNL     1      -8.810  17.906  68.279  1.00  0.00    -0.275 C  
ENDBRANCH  22  23
ENDBRANCH  17  22
ENDBRANCH   9  10
ENDBRANCH   5   6
BRANCH   5  29
HETATM   29  C   UNL     1      -8.442   6.890  66.353  1.00  0.00    -0.130 A  
HETATM   30  S   UNL     1      -8.361   4.377  66.771  1.00  0.00    -0.105 SA 
HETATM   31  C   UNL     1      -8.860   5.694  65.796  1.00  0.00    -0.153 A  
HETATM   32  H2  UNL     1      -6.931   4.045  69.148  1.00  0.00     0.000 HD 
HETATM   33  H1  UNL     1      -6.524   5.697  69.598  1.00  0.00     0.000 HD 
HETATM   34  C   UNL     1      -7.610   5.473  67.854  1.00  0.00    -0.085 A  
HETATM   35  N   UNL     1      -6.971   5.046  68.953  1.00  0.00    -0.051 NA 
HETATM   36  N   UNL     1      -7.704   6.738  67.529  1.00  0.00    -0.108 NA 
ENDBRANCH   5  29
ENDBRANCH   3   5
ENDBRANCH   2   3
TORSDOF 7
ENDMDL
MODEL       58
REMARK 921   NORMALIZED FREE ENERGY PREDICTED BY IDOCK:   -5.19 KCAL/MOL
REMARK 922        TOTAL FREE ENERGY PREDICTED BY IDOCK:   -8.43 KCAL/MOL
REMARK 923 INTER-LIGAND FREE ENERGY PREDICTED BY IDOCK:   -7.33 KCAL/MOL
REMARK 924 INTRA-LIGAND FREE ENERGY PREDICTED BY IDOCK:   -1.09 KCAL/MOL
REMARK 927      BINDING AFFINITY PREDICTED BY RF-SCORE:    0.00 PKD
ROOT
HETATM    1  C   UNL     1      -9.868   4.829  66.673  1.00  0.00    -0.214 C  
HETATM    2  O   UNL     1     -10.148   6.175  66.310  1.00  0.00    -0.099 OA 
ENDROOT
BRANCH   2   3
HETATM    3  N   UNL     1      -9.069   6.677  65.574  1.00  0.00    -0.369 NA 
HETATM    4  H   UNL     1      -8.552   6.132  64.884  1.00  0.00     0.000 HD 
BRANCH   3   5
HETATM    5  C   UNL     1      -8.797   7.920  65.870  1.00  0.00    -0.148 C  
BRANCH   5   6
HETATM    6  C   UNL     1      -8.920   8.523  67.288  1.00  0.00    -0.129 C  
HETATM    7  H   UNL     1     -10.462   9.767  66.645  1.00  0.00     0.000 HD 
HETATM    8  O   UNL     1      -8.215   8.143  68.213  1.00  0.00    -0.126 OA 
HETATM    9  N   UNL     1      -9.818   9.569  67.411  1.00  0.00    -0.161 N  
BRANCH   9  10
HETATM   10  CA  UNL     1      -9.864  10.416  68.640  1.00  0.00    -0.177 C  
HETATM   11  N   UNL     1     -10.269  12.453  68.699  1.00  0.00    -0.196 N  
HETATM   12  C   UNL     1     -11.097  11.385  68.739  1.00  0.00    -0.235 C  
HETATM   13  C   UNL     1      -9.023  11.721  68.674  1.00  0.00    -0.066 C  
HETATM   14  O   UNL     1     -12.293  11.244  68.678  1.00  0.00    -0.534 OA 
HETATM   15  S   UNL     1      -8.159  12.237  67.172  1.00  0.00    -0.148 SA 
HETATM   16  C   UNL     1      -8.040  13.944  67.741  1.00  0.00    -0.172 C  
HETATM   17  C   UNL     1      -9.321  14.573  68.239  1.00  0.00    -0.203 C  
HETATM   18  CA  UNL     1     -10.375  13.819  68.670  1.00  0.00    -0.224 C  
HETATM   19  O   UNL     1     -12.106  14.062  70.308  1.00  0.00    -0.312 OA 
HETATM   20  C   UNL     1     -11.697  14.497  69.198  1.00  0.00    -0.314 C  
HETATM   21  OXT UNL     1     -12.068  15.501  68.520  1.00  0.00    -0.246 OA 
BRANCH  17  22
HETATM   22  C   UNL     1      -9.267  16.096  68.367  1.00  0.00    -0.203 C  
BRANCH  22  23
HETATM   23  N   UNL     1      -9.368  17.008  67.088  1.00  0.00    -0.232 N  
HETATM   24  C   UNL     1      -8.143  17.816  66.702  1.00  0.00    -0.258 C  
HETATM   25  C   UNL     1      -9.857  16.144  65.933  1.00  0.00    -0.353 C  
HETATM   26  C   UNL     1      -8.090  18.899  67.753  1.00  0.00    -0.284 C  
HETATM   27  C   UNL     1      -9.538  19.351  67.804  1.00  0.00    -0.422 C  
HETATM   28  C   UNL     1     -10.383  18.139  67.383  1.00  0.00    -0.389 C  
ENDBRANCH  22  23
ENDBRANCH  17  22
ENDBRANCH   9  10
ENDBRANCH   5   6
BRANCH   5  29
HETATM   29  C   UNL     1      -8.335   8.752  64.754  1.00  0.00    -0.168 A  
HETATM   30  S   UNL     1      -6.918   9.847  62.941  1.00  0.00    -0.126 SA 
HETATM   31  C   UNL     1      -7.066   8.700  64.203  1.00  0.00    -0.090 A  
HETATM   32  H2  UNL     1      -8.568  11.750  61.730  1.00  0.00     0.000 HD 
HETATM   33  H1  UNL     1     -10.083  11.574  62.607  1.00  0.00     0.000 HD 
HETATM   34  C   UNL     1      -8.545  10.325  63.193  1.00  0.00    -0.194 A  
HETATM   35  N   UNL     1      -9.116  11.289  62.457  1.00  0.00    -0.320 NA 
HETATM   36  N   UNL     1      -9.179   9.682  64.142  1.00  0.00    -0.223 NA 
ENDBRANCH   5  29
ENDBRANCH   3   5
ENDBRANCH   2   3
TORSDOF 7
ENDMDL
MODEL       59
REMARK 921   NORMALIZED FREE ENERGY PREDICTED BY IDOCK:   -5.19 KCAL/MOL
REMARK 922        TOTAL FREE ENERGY PREDICTED BY IDOCK:   -8.43 KCAL/MOL
REMARK 923 INTER-LIGAND FREE ENERGY PREDICTED BY IDOCK:   -7.35 KCAL/MOL
REMARK 924 INTRA-LIGAND FREE ENERGY PREDICTED BY IDOCK:   -1.07 KCAL/MOL
REMARK 927      BINDING AFFINITY PREDICTED BY RF-SCORE:    0.00 PKD
ROOT
HETATM    1  C   UNL     1     -11.999  15.256  70.348  1.00  0.00    -0.335 C  
HETATM    2  O   UNL     1     -12.513  14.065  69.766  1.00  0.00    -0.325 OA 
ENDROOT
BRANCH   2   3
HETATM    3  N   UNL     1     -12.175  14.045  68.408  1.00  0.00    -0.541 NA 
HETATM    4  H   UNL     1     -12.178  14.872  67.811  1.00  0.00     0.000 HD 
BRANCH   3   5
HETATM    5  C   UNL     1     -11.855  12.850  67.991  1.00  0.00    -0.343 C  
BRANCH   5   6
HETATM    6  C   UNL     1     -11.823  11.594  68.891  1.00  0.00    -0.329 C  
HETATM    7  H   UNL     1      -9.749  11.726  69.032  1.00  0.00     0.000 HD 
HETATM    8  O   UNL     1     -12.846  11.007  69.217  1.00  0.00    -0.173 OA 
HETATM    9  N   UNL     1     -10.559  11.139  69.228  1.00  0.00    -0.205 N  
BRANCH   9  10
HETATM   10  CA  UNL     1     -10.356   9.807  69.871  1.00  0.00    -0.254 C  
HETATM   11  N   UNL     1      -8.994   8.359  69.268  1.00  0.00    -0.149 N  
HETATM   12  C   UNL     1      -8.858   9.403  70.116  1.00  0.00    -0.223 C  
HETATM   13  C   UNL     1     -10.398   8.537  68.979  1.00  0.00    -0.216 C  
HETATM   14  O   UNL     1      -7.921   9.919  70.673  1.00  0.00    -0.257 OA 
HETATM   15  S   UNL     1     -10.528   8.739  67.187  1.00  0.00    -0.240 SA 
HETATM   16  C   UNL     1      -9.881   7.084  66.881  1.00  0.00    -0.199 C  
HETATM   17  C   UNL     1      -8.602   6.724  67.601  1.00  0.00    -0.121 C  
HETATM   18  CA  UNL     1      -8.203   7.376  68.733  1.00  0.00    -0.129 C  
HETATM   19  O   UNL     1      -6.995   6.793  70.717  1.00  0.00    -0.064 OA 
HETATM   20  C   UNL     1      -6.872   6.974  69.476  1.00  0.00    -0.051 C  
HETATM   21  OXT UNL     1      -5.903   6.720  68.699  1.00  0.00    -0.017 OA 
BRANCH  17  22
HETATM   22  C   UNL     1      -7.898   5.481  67.053  1.00  0.00    -0.101 C  
BRANCH  22  23
HETATM   23  N   UNL     1      -7.313   5.476  65.592  1.00  0.00    -0.072 N  
HETATM   24  C   UNL     1      -8.250   5.095  64.461  1.00  0.00    -0.133 C  
HETATM   25  C   UNL     1      -6.657   6.828  65.344  1.00  0.00    -0.050 C  
HETATM   26  C   UNL     1      -8.432   3.606  64.641  1.00  0.00    -0.096 C  
HETATM   27  C   UNL     1      -7.004   3.147  64.877  1.00  0.00    -0.053 C  
HETATM   28  C   UNL     1      -6.264   4.342  65.498  1.00  0.00    -0.027 C  
ENDBRANCH  22  23
ENDBRANCH  17  22
ENDBRANCH   9  10
ENDBRANCH   5   6
BRANCH   5  29
HETATM   29  C   UNL     1     -11.530  12.740  66.565  1.00  0.00    -0.355 A  
HETATM   30  S   UNL     1     -10.292  12.587  64.341  1.00  0.00    -0.345 SA 
HETATM   31  C   UNL     1     -10.245  12.685  66.050  1.00  0.00    -0.272 A  
HETATM   32  H2  UNL     1     -12.273  12.498  62.372  1.00  0.00     0.000 HD 
HETATM   33  H1  UNL     1     -13.762  12.563  63.307  1.00  0.00     0.000 HD 
HETATM   34  C   UNL     1     -12.006  12.606  64.395  1.00  0.00    -0.400 A  
HETATM   35  N   UNL     1     -12.743  12.552  63.276  1.00  0.00    -0.659 NA 
HETATM   36  N   UNL     1     -12.530  12.672  65.593  1.00  0.00    -0.620 NA 
ENDBRANCH   5  29
ENDBRANCH   3   5
ENDBRANCH   2   3
TORSDOF 7
ENDMDL
MODEL       60
REMARK 921   NORMALIZED FREE ENERGY PREDICTED BY IDOCK:   -5.17 KCAL/MOL
REMARK 922        TOTAL FREE ENERGY PREDICTED BY IDOCK:   -8.40 KCAL/MOL
REMARK 923 INTER-LIGAND FREE ENERGY PREDICTED BY IDOCK:   -7.58 KCAL/MOL
REMARK 924 INTRA-LIGAND FREE ENERGY PREDICTED BY IDOCK:   -0.82 KCAL/MOL
REMARK 927      BINDING AFFINITY PREDICTED BY RF-SCORE:    0.00 PKD
ROOT
HETATM    1  C   UNL     1     -10.365  19.056  68.208  1.00  0.00    -0.339 C  
HETATM    2  O   UNL     1      -9.842  17.832  68.709  1.00  0.00    -0.332 OA 
ENDROOT
BRANCH   2   3
HETATM    3  N   UNL     1     -10.593  17.445  69.825  1.00  0.00    -0.198 NA 
HETATM    4  H   UNL     1     -10.728  18.031  70.648  1.00  0.00     0.000 HD 
BRANCH   3   5
HETATM    5  C   UNL     1     -11.101  16.248  69.695  1.00  0.00    -0.333 C  
BRANCH   5   6
HETATM    6  C   UNL     1     -10.988  15.391  68.414  1.00  0.00    -0.284 C  
HETATM    7  H   UNL     1      -9.389  14.339  69.236  1.00  0.00     0.000 HD 
HETATM    8  O   UNL     1     -11.751  15.540  67.468  1.00  0.00    -0.194 OA 
HETATM    9  N   UNL     1      -9.921  14.510  68.382  1.00  0.00    -0.234 N  
BRANCH   9  10
HETATM   10  CA  UNL     1      -9.529  13.803  67.127  1.00  0.00    -0.244 C  
HETATM   11  N   UNL     1      -9.306  11.750  66.905  1.00  0.00    -0.187 N  
HETATM   12  C   UNL     1     -10.394  12.541  66.771  1.00  0.00    -0.226 C  
HETATM   13  C   UNL     1      -8.349  12.797  67.179  1.00  0.00    -0.164 C  
HETATM   14  O   UNL     1     -11.574  12.334  66.630  1.00  0.00    -0.362 OA 
HETATM   15  S   UNL     1      -7.611  12.405  68.782  1.00  0.00     0.028 SA 
HETATM   16  C   UNL     1      -6.912  10.862  68.165  1.00  0.00    -0.069 C  
HETATM   17  C   UNL     1      -7.862   9.948  67.425  1.00  0.00    -0.098 C  
HETATM   18  CA  UNL     1      -9.011  10.413  66.852  1.00  0.00    -0.139 C  
HETATM   19  O   UNL     1     -10.324   9.849  64.930  1.00  0.00    -0.058 OA 
HETATM   20  C   UNL     1      -9.980   9.443  66.072  1.00  0.00    -0.281 C  
HETATM   21  OXT UNL     1     -10.140   8.316  66.630  1.00  0.00    -0.267 OA 
BRANCH  17  22
HETATM   22  C   UNL     1      -7.345   8.520  67.238  1.00  0.00    -0.088 C  
BRANCH  22  23
HETATM   23  N   UNL     1      -6.990   7.631  68.487  1.00  0.00    -0.069 N  
HETATM   24  C   UNL     1      -7.277   6.143  68.396  1.00  0.00    -0.084 C  
HETATM   25  C   UNL     1      -5.538   7.900  68.858  1.00  0.00    -0.030 C  
HETATM   26  C   UNL     1      -8.783   6.069  68.481  1.00  0.00    -0.110 C  
HETATM   27  C   UNL     1      -9.075   7.015  69.632  1.00  0.00    -0.144 C  
HETATM   28  C   UNL     1      -7.928   8.038  69.649  1.00  0.00    -0.117 C  
ENDBRANCH  22  23
ENDBRANCH  17  22
ENDBRANCH   9  10
ENDBRANCH   5   6
BRANCH   5  29
HETATM   29  C   UNL     1     -11.801  15.723  70.872  1.00  0.00    -0.414 A  
HETATM   30  S   UNL     1     -13.199  14.294  72.453  1.00  0.00    -0.493 SA 
HETATM   31  C   UNL     1     -12.511  14.535  70.904  1.00  0.00    -0.345 A  
HETATM   32  H2  UNL     1     -13.234  15.665  74.889  1.00  0.00     0.000 HD 
HETATM   33  H1  UNL     1     -12.255  17.089  74.554  1.00  0.00     0.000 HD 
HETATM   34  C   UNL     1     -12.498  15.766  72.985  1.00  0.00    -0.472 A  
HETATM   35  N   UNL     1     -12.671  16.213  74.237  1.00  0.00    -0.723 NA 
HETATM   36  N   UNL     1     -11.789  16.407  72.090  1.00  0.00    -0.505 NA 
ENDBRANCH   5  29
ENDBRANCH   3   5
ENDBRANCH   2   3
TORSDOF 7
ENDMDL
MODEL       61
REMARK 921   NORMALIZED FREE ENERGY PREDICTED BY IDOCK:   -5.11 KCAL/MOL
REMARK 922        TOTAL FREE ENERGY PREDICTED BY IDOCK:   -8.32 KCAL/MOL
REMARK 923 INTER-LIGAND FREE ENERGY PREDICTED BY IDOCK:   -7.48 KCAL/MOL
REMARK 924 INTRA-LIGAND FREE ENERGY PREDICTED BY IDOCK:   -0.84 KCAL/MOL
REMARK 927      BINDING AFFINITY PREDICTED BY RF-SCORE:    0.00 PKD
ROOT
HETATM    1  C   UNL     1      -6.797  10.876  68.413  1.00  0.00    -0.068 C  
HETATM    2  O   UNL     1      -7.086   9.537  68.030  1.00  0.00    -0.078 OA 
ENDROOT
BRANCH   2   3
HETATM    3  N   UNL     1      -7.096   9.461  66.633  1.00  0.00    -0.085 NA 
HETATM    4  H   UNL     1      -6.424   9.940  66.034  1.00  0.00     0.000 HD 
BRANCH   3   5
HETATM    5  C   UNL     1      -8.063   8.707  66.181  1.00  0.00    -0.108 C  
BRANCH   5   6
HETATM    6  C   UNL     1      -9.515   9.190  65.968  1.00  0.00    -0.255 C  
HETATM    7  H   UNL     1      -8.830  10.822  64.869  1.00  0.00     0.000 HD 
HETATM    8  O   UNL     1     -10.473   8.570  66.410  1.00  0.00    -0.195 OA 
HETATM    9  N   UNL     1      -9.646  10.407  65.320  1.00  0.00    -0.235 N  
BRANCH   9  10
HETATM   10  CA  UNL     1     -10.954  11.125  65.265  1.00  0.00    -0.083 C  
HETATM   11  N   UNL     1     -11.217  13.182  65.370  1.00  0.00    -0.289 N  
HETATM   12  C   UNL     1     -10.993  12.372  64.311  1.00  0.00    -0.351 C  
HETATM   13  C   UNL     1     -11.284  12.152  66.381  1.00  0.00    -0.331 C  
HETATM   14  O   UNL     1     -10.736  12.558  63.148  1.00  0.00    -0.305 OA 
HETATM   15  S   UNL     1     -10.008  12.551  67.599  1.00  0.00    -0.205 SA 
HETATM   16  C   UNL     1     -10.807  14.109  68.031  1.00  0.00    -0.246 C  
HETATM   17  C   UNL     1     -11.184  15.008  66.876  1.00  0.00    -0.323 C  
HETATM   18  CA  UNL     1     -11.351  14.525  65.610  1.00  0.00    -0.336 C  
HETATM   19  O   UNL     1     -12.730  15.072  63.729  1.00  0.00    -0.741 OA 
HETATM   20  C   UNL     1     -11.760  15.479  64.423  1.00  0.00    -0.242 C  
HETATM   21  OXT UNL     1     -11.170  16.602  64.437  1.00  0.00    -1.033 OA 
BRANCH  17  22
HETATM   22  C   UNL     1     -11.518  16.446  67.280  1.00  0.00     0.371 C  
BRANCH  22  23
HETATM   23  N   UNL     1     -10.434  17.349  67.978  1.00  0.00    -0.368 N  
HETATM   24  C   UNL     1     -10.507  18.846  67.740  1.00  0.00    -0.416 C  
HETATM   25  C   UNL     1     -10.433  17.017  69.464  1.00  0.00    -0.182 C  
HETATM   26  C   UNL     1     -10.047  18.998  66.309  1.00  0.00    -0.479 C  
HETATM   27  C   UNL     1      -8.824  18.099  66.281  1.00  0.00    -0.196 C  
HETATM   28  C   UNL     1      -9.058  17.021  67.350  1.00  0.00    -0.222 C  
ENDBRANCH  22  23
ENDBRANCH  17  22
ENDBRANCH   9  10
ENDBRANCH   5   6
BRANCH   5  29
HETATM   29  C   UNL     1      -7.692   7.325  65.855  1.00  0.00    -0.097 A  
HETATM   30  S   UNL     1      -7.041   5.191  64.622  1.00  0.00    -0.055 SA 
HETATM   31  C   UNL     1      -7.400   6.866  64.582  1.00  0.00    -0.090 A  
HETATM   32  H2  UNL     1      -6.886   3.200  66.576  1.00  0.00     0.000 HD 
HETATM   33  H1  UNL     1      -7.279   4.067  68.056  1.00  0.00     0.000 HD 
HETATM   34  C   UNL     1      -7.277   5.188  66.321  1.00  0.00    -0.077 A  
HETATM   35  N   UNL     1      -7.138   4.070  67.046  1.00  0.00    -0.063 NA 
HETATM   36  N   UNL     1      -7.594   6.346  66.846  1.00  0.00    -0.094 NA 
ENDBRANCH   5  29
ENDBRANCH   3   5
ENDBRANCH   2   3
TORSDOF 7
ENDMDL
MODEL       62
REMARK 921   NORMALIZED FREE ENERGY PREDICTED BY IDOCK:   -5.09 KCAL/MOL
REMARK 922        TOTAL FREE ENERGY PREDICTED BY IDOCK:   -8.29 KCAL/MOL
REMARK 923 INTER-LIGAND FREE ENERGY PREDICTED BY IDOCK:   -7.43 KCAL/MOL
REMARK 924 INTRA-LIGAND FREE ENERGY PREDICTED BY IDOCK:   -0.86 KCAL/MOL
REMARK 927      BINDING AFFINITY PREDICTED BY RF-SCORE:    0.00 PKD
ROOT
HETATM    1  C   UNL     1      -5.482   9.076  65.810  1.00  0.00    -0.041 C  
HETATM    2  O   UNL     1      -6.563   8.483  66.519  1.00  0.00    -0.058 OA 
ENDROOT
BRANCH   2   3
HETATM    3  N   UNL     1      -7.480   7.969  65.595  1.00  0.00    -0.078 NA 
HETATM    4  H   UNL     1      -7.310   7.927  64.591  1.00  0.00     0.000 HD 
BRANCH   3   5
HETATM    5  C   UNL     1      -8.580   7.551  66.163  1.00  0.00    -0.149 C  
BRANCH   5   6
HETATM    6  C   UNL     1      -9.804   8.448  66.454  1.00  0.00    -0.240 C  
HETATM    7  H   UNL     1      -8.796  10.103  65.693  1.00  0.00     0.000 HD 
HETATM    8  O   UNL     1     -10.833   7.997  66.941  1.00  0.00    -0.267 OA 
HETATM    9  N   UNL     1      -9.623   9.797  66.205  1.00  0.00    -0.196 N  
BRANCH   9  10
HETATM   10  CA  UNL     1     -10.610  10.816  66.670  1.00  0.00    -0.232 C  
HETATM   11  N   UNL     1     -10.640  12.820  66.124  1.00  0.00    -0.263 N  
HETATM   12  C   UNL     1     -11.203  11.737  65.544  1.00  0.00    -0.258 C  
HETATM   13  C   UNL     1     -10.079  12.145  67.271  1.00  0.00    -0.202 C  
HETATM   14  O   UNL     1     -11.762  11.538  64.493  1.00  0.00    -0.170 OA 
HETATM   15  S   UNL     1      -8.300  12.466  67.232  1.00  0.00    -0.185 SA 
HETATM   16  C   UNL     1      -8.543  14.243  67.424  1.00  0.00    -0.213 C  
HETATM   17  C   UNL     1      -9.540  14.885  66.486  1.00  0.00    -0.297 C  
HETATM   18  CA  UNL     1     -10.518  14.161  65.867  1.00  0.00    -0.306 C  
HETATM   19  O   UNL     1     -12.763  14.574  65.139  1.00  0.00    -0.479 OA 
HETATM   20  C   UNL     1     -11.557  14.855  64.904  1.00  0.00    -0.395 C  
HETATM   21  OXT UNL     1     -11.048  15.730  64.141  1.00  0.00    -0.269 OA 
BRANCH  17  22
HETATM   22  C   UNL     1      -9.457  16.411  66.428  1.00  0.00    -0.293 C  
BRANCH  22  23
HETATM   23  N   UNL     1     -10.105  17.288  67.564  1.00  0.00    -0.304 N  
HETATM   24  C   UNL     1     -10.642  18.654  67.177  1.00  0.00    -0.417 C  
HETATM   25  C   UNL     1     -11.165  16.446  68.260  1.00  0.00    -0.300 C  
HETATM   26  C   UNL     1      -9.393  19.470  66.941  1.00  0.00    -0.424 C  
HETATM   27  C   UNL     1      -8.548  19.096  68.146  1.00  0.00    -0.359 C  
HETATM   28  C   UNL     1      -8.989  17.684  68.560  1.00  0.00    -0.289 C  
ENDBRANCH  22  23
ENDBRANCH  17  22
ENDBRANCH   9  10
ENDBRANCH   5   6
BRANCH   5  29
HETATM   29  C   UNL     1      -8.611   6.127  66.515  1.00  0.00    -0.126 A  
HETATM   30  S   UNL     1      -8.406   3.905  67.746  1.00  0.00    -0.095 SA 
HETATM   31  C   UNL     1      -8.257   5.611  67.750  1.00  0.00    -0.101 A  
HETATM   32  H2  UNL     1      -9.185   1.944  65.914  1.00  0.00     0.000 HD 
HETATM   33  H1  UNL     1      -9.587   2.881  64.480  1.00  0.00     0.000 HD 
HETATM   34  C   UNL     1      -8.947   3.962  66.120  1.00  0.00    -0.130 A  
HETATM   35  N   UNL     1      -9.266   2.847  65.448  1.00  0.00    -0.148 NA 
HETATM   36  N   UNL     1      -9.027   5.160  65.597  1.00  0.00    -0.152 NA 
ENDBRANCH   5  29
ENDBRANCH   3   5
ENDBRANCH   2   3
TORSDOF 7
ENDMDL
MODEL       63
REMARK 921   NORMALIZED FREE ENERGY PREDICTED BY IDOCK:   -5.08 KCAL/MOL
REMARK 922        TOTAL FREE ENERGY PREDICTED BY IDOCK:   -8.28 KCAL/MOL
REMARK 923 INTER-LIGAND FREE ENERGY PREDICTED BY IDOCK:   -7.31 KCAL/MOL
REMARK 924 INTRA-LIGAND FREE ENERGY PREDICTED BY IDOCK:   -0.96 KCAL/MOL
REMARK 927      BINDING AFFINITY PREDICTED BY RF-SCORE:    0.00 PKD
ROOT
HETATM    1  C   UNL     1     -11.421  15.961  69.900  1.00  0.00    -0.344 C  
HETATM    2  O   UNL     1     -11.468  14.546  70.036  1.00  0.00    -0.261 OA 
ENDROOT
BRANCH   2   3
HETATM    3  N   UNL     1     -10.550  13.977  69.146  1.00  0.00    -0.385 NA 
HETATM    4  H   UNL     1      -9.616  14.351  68.978  1.00  0.00     0.000 HD 
BRANCH   3   5
HETATM    5  C   UNL     1     -11.023  12.914  68.552  1.00  0.00    -0.259 C  
BRANCH   5   6
HETATM    6  C   UNL     1     -11.462  11.629  69.291  1.00  0.00    -0.300 C  
HETATM    7  H   UNL     1      -9.792  10.619  68.565  1.00  0.00     0.000 HD 
HETATM    8  O   UNL     1     -12.473  11.595  69.980  1.00  0.00    -0.197 OA 
HETATM    9  N   UNL     1     -10.683  10.510  69.048  1.00  0.00    -0.209 N  
BRANCH   9  10
HETATM   10  CA  UNL     1     -11.118   9.148  69.478  1.00  0.00    -0.051 C  
HETATM   11  N   UNL     1     -10.013   7.827  70.638  1.00  0.00    -0.186 N  
HETATM   12  C   UNL     1     -10.869   8.812  70.992  1.00  0.00    -0.260 C  
HETATM   13  C   UNL     1     -10.173   7.947  69.207  1.00  0.00    -0.216 C  
HETATM   14  O   UNL     1     -11.163   9.338  72.036  1.00  0.00    -0.343 OA 
HETATM   15  S   UNL     1      -8.526   8.272  68.536  1.00  0.00    -0.126 SA 
HETATM   16  C   UNL     1      -7.899   6.682  69.112  1.00  0.00    -0.111 C  
HETATM   17  C   UNL     1      -8.171   6.342  70.559  1.00  0.00    -0.118 C  
HETATM   18  CA  UNL     1      -9.183   6.931  71.261  1.00  0.00    -0.157 C  
HETATM   19  O   UNL     1     -10.658   6.273  73.030  1.00  0.00    -0.215 OA 
HETATM   20  C   UNL     1      -9.458   6.550  72.766  1.00  0.00    -0.142 C  
HETATM   21  OXT UNL     1      -8.407   6.409  73.462  1.00  0.00    -0.119 OA 
BRANCH  17  22
HETATM   22  C   UNL     1      -7.332   5.184  71.102  1.00  0.00    -0.074 C  
BRANCH  22  23
HETATM   23  N   UNL     1      -7.646   3.703  70.672  1.00  0.00    -0.041 N  
HETATM   24  C   UNL     1      -9.088   3.236  70.760  1.00  0.00    -0.114 C  
HETATM   25  C   UNL     1      -7.071   3.486  69.279  1.00  0.00    -0.045 C  
HETATM   26  C   UNL     1      -9.324   3.099  72.245  1.00  0.00    -0.174 C  
HETATM   27  C   UNL     1      -8.069   2.370  72.692  1.00  0.00    -0.055 C  
HETATM   28  C   UNL     1      -6.970   2.753  71.689  1.00  0.00    -0.031 C  
ENDBRANCH  22  23
ENDBRANCH  17  22
ENDBRANCH   9  10
ENDBRANCH   5   6
BRANCH   5  29
HETATM   29  C   UNL     1     -11.141  13.000  67.093  1.00  0.00    -0.273 A  
HETATM   30  S   UNL     1     -10.735  13.523  64.631  1.00  0.00    -0.422 SA 
HETATM   31  C   UNL     1     -10.220  13.616  66.262  1.00  0.00    -0.296 A  
HETATM   32  H2  UNL     1     -12.917  12.447  63.255  1.00  0.00     0.000 HD 
HETATM   33  H1  UNL     1     -13.880  11.731  64.541  1.00  0.00     0.000 HD 
HETATM   34  C   UNL     1     -12.131  12.659  65.128  1.00  0.00    -0.455 A  
HETATM   35  N   UNL     1     -13.050  12.244  64.246  1.00  0.00    -0.778 NA 
HETATM   36  N   UNL     1     -12.224  12.436  66.416  1.00  0.00    -0.556 NA 
ENDBRANCH   5  29
ENDBRANCH   3   5
ENDBRANCH   2   3
TORSDOF 7
ENDMDL
MODEL       64
REMARK 921   NORMALIZED FREE ENERGY PREDICTED BY IDOCK:   -5.07 KCAL/MOL
REMARK 922        TOTAL FREE ENERGY PREDICTED BY IDOCK:   -8.26 KCAL/MOL
REMARK 923 INTER-LIGAND FREE ENERGY PREDICTED BY IDOCK:   -7.46 KCAL/MOL
REMARK 924 INTRA-LIGAND FREE ENERGY PREDICTED BY IDOCK:   -0.80 KCAL/MOL
REMARK 927      BINDING AFFINITY PREDICTED BY RF-SCORE:    0.00 PKD
ROOT
HETATM    1  C   UNL     1     -13.573  14.043  72.420  1.00  0.00    -0.557 C  
HETATM    2  O   UNL     1     -13.405  12.640  72.258  1.00  0.00    -0.533 OA 
ENDROOT
BRANCH   2   3
HETATM    3  N   UNL     1     -12.223  12.407  71.547  1.00  0.00    -0.012 NA 
HETATM    4  H   UNL     1     -11.397  13.003  71.610  1.00  0.00     0.000 HD 
BRANCH   3   5
HETATM    5  C   UNL     1     -12.294  11.343  70.794  1.00  0.00    -0.386 C  
BRANCH   5   6
HETATM    6  C   UNL     1     -12.843   9.978  71.268  1.00  0.00    -0.402 C  
HETATM    7  H   UNL     1     -10.952   9.435  71.954  1.00  0.00     0.000 HD 
HETATM    8  O   UNL     1     -14.022   9.678  71.142  1.00  0.00    -0.185 OA 
HETATM    9  N   UNL     1     -11.895   9.097  71.761  1.00  0.00    -0.363 N  
BRANCH   9  10
HETATM   10  CA  UNL     1     -12.221   7.663  72.018  1.00  0.00    -0.293 C  
HETATM   11  N   UNL     1     -10.915   6.062  71.811  1.00  0.00    -0.260 N  
HETATM   12  C   UNL     1     -11.157   6.874  72.863  1.00  0.00    -0.261 C  
HETATM   13  C   UNL     1     -11.901   6.620  70.914  1.00  0.00    -0.377 C  
HETATM   14  O   UNL     1     -10.633   7.044  73.936  1.00  0.00    -0.371 OA 
HETATM   15  S   UNL     1     -11.001   7.161  69.442  1.00  0.00    -0.115 SA 
HETATM   16  C   UNL     1     -10.472   5.480  69.058  1.00  0.00    -0.226 C  
HETATM   17  C   UNL     1      -9.847   4.702  70.193  1.00  0.00    -0.306 C  
HETATM   18  CA  UNL     1     -10.070   5.028  71.500  1.00  0.00    -0.196 C  
HETATM   19  O   UNL     1     -10.222   3.830  73.569  1.00  0.00    -0.126 OA 
HETATM   20  C   UNL     1      -9.418   4.193  72.668  1.00  0.00    -0.128 C  
HETATM   21  OXT UNL     1      -8.215   3.857  72.453  1.00  0.00    -0.089 OA 
BRANCH  17  22
HETATM   22  C   UNL     1      -9.095   3.444  69.755  1.00  0.00    -0.129 C  
BRANCH  22  23
HETATM   23  N   UNL     1      -7.927   3.540  68.704  1.00  0.00    -0.062 N  
HETATM   24  C   UNL     1      -8.294   3.894  67.275  1.00  0.00    -0.099 C  
HETATM   25  C   UNL     1      -6.870   4.484  69.262  1.00  0.00    -0.049 C  
HETATM   26  C   UNL     1      -8.963   2.641  66.762  1.00  0.00    -0.160 C  
HETATM   27  C   UNL     1      -8.013   1.562  67.251  1.00  0.00    -0.065 C  
HETATM   28  C   UNL     1      -7.337   2.122  68.511  1.00  0.00    -0.044 C  
ENDBRANCH  22  23
ENDBRANCH  17  22
ENDBRANCH   9  10
ENDBRANCH   5   6
BRANCH   5  29
HETATM   29  C   UNL     1     -11.826  11.508  69.414  1.00  0.00    -0.350 A  
HETATM   30  S   UNL     1     -10.993  11.078  67.043  1.00  0.00    -0.238 SA 
HETATM   31  C   UNL     1     -11.532  10.467  68.550  1.00  0.00    -0.215 A  
HETATM   32  H2  UNL     1     -10.583  13.600  65.911  1.00  0.00     0.000 HD 
HETATM   33  H1  UNL     1     -11.050  14.695  67.207  1.00  0.00     0.000 HD 
HETATM   34  C   UNL     1     -11.202  12.678  67.625  1.00  0.00    -0.283 A  
HETATM   35  N   UNL     1     -10.926  13.744  66.861  1.00  0.00    -0.288 NA 
HETATM   36  N   UNL     1     -11.650  12.775  68.852  1.00  0.00    -0.295 NA 
ENDBRANCH   5  29
ENDBRANCH   3   5
ENDBRANCH   2   3
TORSDOF 7
ENDMDL
MODEL       65
REMARK 921   NORMALIZED FREE ENERGY PREDICTED BY IDOCK:   -5.07 KCAL/MOL
REMARK 922        TOTAL FREE ENERGY PREDICTED BY IDOCK:   -8.26 KCAL/MOL
REMARK 923 INTER-LIGAND FREE ENERGY PREDICTED BY IDOCK:   -7.53 KCAL/MOL
REMARK 924 INTRA-LIGAND FREE ENERGY PREDICTED BY IDOCK:   -0.73 KCAL/MOL
REMARK 927      BINDING AFFINITY PREDICTED BY RF-SCORE:    0.00 PKD
ROOT
HETATM    1  C   UNL     1     -12.024  14.050  65.297  1.00  0.00    -0.379 C  
HETATM    2  O   UNL     1     -11.648  14.888  66.383  1.00  0.00    -0.330 OA 
ENDROOT
BRANCH   2   3
HETATM    3  N   UNL     1     -12.190  14.367  67.563  1.00  0.00    -0.619 NA 
HETATM    4  H   UNL     1     -13.170  14.107  67.670  1.00  0.00     0.000 HD 
BRANCH   3   5
HETATM    5  C   UNL     1     -11.300  14.251  68.513  1.00  0.00    -0.282 C  
BRANCH   5   6
HETATM    6  C   UNL     1      -9.859  13.736  68.296  1.00  0.00    -0.232 C  
HETATM    7  H   UNL     1     -10.591  12.032  67.349  1.00  0.00     0.000 HD 
HETATM    8  O   UNL     1      -8.883  14.378  68.661  1.00  0.00    -0.183 OA 
HETATM    9  N   UNL     1      -9.759  12.471  67.741  1.00  0.00    -0.196 N  
BRANCH   9  10
HETATM   10  CA  UNL     1      -8.460  11.736  67.706  1.00  0.00    -0.147 C  
HETATM   11  N   UNL     1      -8.202   9.748  67.163  1.00  0.00    -0.120 N  
HETATM   12  C   UNL     1      -8.214  10.874  66.415  1.00  0.00    -0.163 C  
HETATM   13  C   UNL     1      -8.353  10.380  68.453  1.00  0.00    -0.119 C  
HETATM   14  O   UNL     1      -8.226  11.099  65.231  1.00  0.00     0.022 OA 
HETATM   15  S   UNL     1      -9.846   9.676  69.193  1.00  0.00    -0.198 SA 
HETATM   16  C   UNL     1      -9.136   8.019  69.223  1.00  0.00    -0.148 C  
HETATM   17  C   UNL     1      -8.522   7.532  67.931  1.00  0.00    -0.122 C  
HETATM   18  CA  UNL     1      -8.105   8.396  66.960  1.00  0.00    -0.104 C  
HETATM   19  O   UNL     1      -6.367   8.422  65.312  1.00  0.00    -0.051 OA 
HETATM   20  C   UNL     1      -7.453   7.866  65.625  1.00  0.00    -0.081 C  
HETATM   21  OXT UNL     1      -8.021   6.839  65.146  1.00  0.00    -0.116 OA 
BRANCH  17  22
HETATM   22  C   UNL     1      -8.262   6.025  67.886  1.00  0.00    -0.112 C  
BRANCH  22  23
HETATM   23  N   UNL     1      -9.456   5.007  68.019  1.00  0.00    -0.125 N  
HETATM   24  C   UNL     1      -9.270   3.624  67.421  1.00  0.00    -0.189 C  
HETATM   25  C   UNL     1      -9.848   4.934  69.489  1.00  0.00    -0.217 C  
HETATM   26  C   UNL     1      -9.345   3.872  65.933  1.00  0.00    -0.165 C  
HETATM   27  C   UNL     1     -10.551   4.788  65.832  1.00  0.00    -0.290 C  
HETATM   28  C   UNL     1     -10.637   5.536  67.171  1.00  0.00    -0.240 C  
ENDBRANCH  22  23
ENDBRANCH  17  22
ENDBRANCH   9  10
ENDBRANCH   5   6
BRANCH   5  29
HETATM   29  C   UNL     1     -11.740  14.664  69.850  1.00  0.00    -0.299 A  
HETATM   30  S   UNL     1     -12.048  15.921  72.046  1.00  0.00    -0.545 SA 
HETATM   31  C   UNL     1     -11.327  15.816  70.496  1.00  0.00    -0.380 A  
HETATM   32  H2  UNL     1     -13.826  14.385  73.559  1.00  0.00     0.000 HD 
HETATM   33  H1  UNL     1     -14.182  13.030  72.494  1.00  0.00     0.000 HD 
HETATM   34  C   UNL     1     -12.873  14.446  71.753  1.00  0.00    -0.347 A  
HETATM   35  N   UNL     1     -13.692  13.907  72.668  1.00  0.00    -0.709 NA 
HETATM   36  N   UNL     1     -12.649  13.900  70.584  1.00  0.00    -0.343 NA 
ENDBRANCH   5  29
ENDBRANCH   3   5
ENDBRANCH   2   3
TORSDOF 7
ENDMDL
MODEL       66
REMARK 921   NORMALIZED FREE ENERGY PREDICTED BY IDOCK:   -5.05 KCAL/MOL
REMARK 922        TOTAL FREE ENERGY PREDICTED BY IDOCK:   -8.23 KCAL/MOL
REMARK 923 INTER-LIGAND FREE ENERGY PREDICTED BY IDOCK:   -6.98 KCAL/MOL
REMARK 924 INTRA-LIGAND FREE ENERGY PREDICTED BY IDOCK:   -1.25 KCAL/MOL
REMARK 927      BINDING AFFINITY PREDICTED BY RF-SCORE:    0.00 PKD
ROOT
HETATM    1  C   UNL     1      -8.116   6.220  70.866  1.00  0.00    -0.124 C  
HETATM    2  O   UNL     1      -7.714   7.465  70.309  1.00  0.00    -0.090 OA 
ENDROOT
BRANCH   2   3
HETATM    3  N   UNL     1      -7.523   7.302  68.933  1.00  0.00    -0.099 NA 
HETATM    4  H   UNL     1      -6.622   7.081  68.508  1.00  0.00     0.000 HD 
BRANCH   3   5
HETATM    5  C   UNL     1      -8.626   7.464  68.253  1.00  0.00    -0.124 C  
BRANCH   5   6
HETATM    6  C   UNL     1      -9.601   8.648  68.446  1.00  0.00    -0.147 C  
HETATM    7  H   UNL     1      -8.156   9.976  67.750  1.00  0.00     0.000 HD 
HETATM    8  O   UNL     1     -10.741   8.483  68.858  1.00  0.00    -0.182 OA 
HETATM    9  N   UNL     1      -9.067   9.901  68.202  1.00  0.00    -0.121 N  
BRANCH   9  10
HETATM   10  CA  UNL     1      -9.795  11.147  68.586  1.00  0.00    -0.202 C  
HETATM   11  N   UNL     1      -9.920  12.882  67.451  1.00  0.00    -0.215 N  
HETATM   12  C   UNL     1     -10.693  11.773  67.459  1.00  0.00    -0.221 C  
HETATM   13  C   UNL     1      -9.035  12.499  68.526  1.00  0.00    -0.052 C  
HETATM   14  O   UNL     1     -11.581  11.359  66.756  1.00  0.00    -0.465 OA 
HETATM   15  S   UNL     1      -7.361  12.525  67.841  1.00  0.00    -0.131 SA 
HETATM   16  C   UNL     1      -7.448  14.295  67.506  1.00  0.00    -0.182 C  
HETATM   17  C   UNL     1      -8.674  14.774  66.762  1.00  0.00    -0.255 C  
HETATM   18  CA  UNL     1      -9.834  14.054  66.745  1.00  0.00    -0.273 C  
HETATM   19  O   UNL     1     -12.173  14.564  66.645  1.00  0.00    -0.379 OA 
HETATM   20  C   UNL     1     -11.106  14.580  65.974  1.00  0.00    -0.329 C  
HETATM   21  OXT UNL     1     -10.847  15.105  64.850  1.00  0.00    -0.404 OA 
BRANCH  17  22
HETATM   22  C   UNL     1      -8.550  16.185  66.185  1.00  0.00    -0.296 C  
BRANCH  22  23
HETATM   23  N   UNL     1      -8.373  17.424  67.140  1.00  0.00    -0.209 N  
HETATM   24  C   UNL     1      -9.017  17.351  68.512  1.00  0.00    -0.276 C  
HETATM   25  C   UNL     1      -6.885  17.734  67.235  1.00  0.00    -0.169 C  
HETATM   26  C   UNL     1     -10.492  17.497  68.217  1.00  0.00    -0.383 C  
HETATM   27  C   UNL     1     -10.497  18.654  67.234  1.00  0.00    -0.468 C  
HETATM   28  C   UNL     1      -9.136  18.620  66.522  1.00  0.00    -0.315 C  
ENDBRANCH  22  23
ENDBRANCH  17  22
ENDBRANCH   9  10
ENDBRANCH   5   6
BRANCH   5  29
HETATM   29  C   UNL     1      -8.906   6.439  67.241  1.00  0.00    -0.108 A  
HETATM   30  S   UNL     1      -9.724   4.345  66.040  1.00  0.00    -0.232 SA 
HETATM   31  C   UNL     1      -9.654   5.295  67.463  1.00  0.00    -0.134 A  
HETATM   32  H2  UNL     1      -8.738   4.528  63.432  1.00  0.00     0.000 HD 
HETATM   33  H1  UNL     1      -7.867   6.057  63.447  1.00  0.00     0.000 HD 
HETATM   34  C   UNL     1      -8.777   5.515  65.220  1.00  0.00    -0.136 A  
HETATM   35  N   UNL     1      -8.431   5.362  63.934  1.00  0.00    -0.110 NA 
HETATM   36  N   UNL     1      -8.428   6.556  65.935  1.00  0.00    -0.143 NA 
ENDBRANCH   5  29
ENDBRANCH   3   5
ENDBRANCH   2   3
TORSDOF 7
ENDMDL
MODEL       67
REMARK 921   NORMALIZED FREE ENERGY PREDICTED BY IDOCK:   -5.04 KCAL/MOL
REMARK 922        TOTAL FREE ENERGY PREDICTED BY IDOCK:   -8.21 KCAL/MOL
REMARK 923 INTER-LIGAND FREE ENERGY PREDICTED BY IDOCK:   -7.58 KCAL/MOL
REMARK 924 INTRA-LIGAND FREE ENERGY PREDICTED BY IDOCK:   -0.63 KCAL/MOL
REMARK 927      BINDING AFFINITY PREDICTED BY RF-SCORE:    0.00 PKD
ROOT
HETATM    1  C   UNL     1     -12.890  12.562  63.384  1.00  0.00    -0.048 C  
HETATM    2  O   UNL     1     -13.044  12.585  64.798  1.00  0.00    -0.853 OA 
ENDROOT
BRANCH   2   3
HETATM    3  N   UNL     1     -12.761  13.875  65.260  1.00  0.00    -0.678 NA 
HETATM    4  H   UNL     1     -13.469  14.597  65.394  1.00  0.00     0.000 HD 
BRANCH   3   5
HETATM    5  C   UNL     1     -11.490  14.052  65.501  1.00  0.00    -0.318 C  
BRANCH   5   6
HETATM    6  C   UNL     1     -10.413  12.954  65.341  1.00  0.00    -0.292 C  
HETATM    7  H   UNL     1     -10.706  12.354  67.314  1.00  0.00     0.000 HD 
HETATM    8  O   UNL     1      -9.825  12.777  64.283  1.00  0.00    -0.188 OA 
HETATM    9  N   UNL     1     -10.109  12.251  66.494  1.00  0.00    -0.212 N  
BRANCH   9  10
HETATM   10  CA  UNL     1      -8.924  11.345  66.565  1.00  0.00    -0.189 C  
HETATM   11  N   UNL     1      -8.953   9.348  67.136  1.00  0.00    -0.130 N  
HETATM   12  C   UNL     1      -9.129   9.924  65.926  1.00  0.00    -0.162 C  
HETATM   13  C   UNL     1      -8.671  10.556  67.877  1.00  0.00    -0.126 C  
HETATM   14  O   UNL     1      -9.489   9.524  64.847  1.00  0.00    -0.259 OA 
HETATM   15  S   UNL     1      -9.905  10.644  69.196  1.00  0.00    -0.169 SA 
HETATM   16  C   UNL     1      -9.312   9.118  69.952  1.00  0.00    -0.186 C  
HETATM   17  C   UNL     1      -9.146   7.935  69.026  1.00  0.00    -0.144 C  
HETATM   18  CA  UNL     1      -8.998   8.089  67.677  1.00  0.00    -0.135 C  
HETATM   19  O   UNL     1      -7.843   6.926  65.931  1.00  0.00    -0.096 OA 
HETATM   20  C   UNL     1      -8.812   6.841  66.732  1.00  0.00    -0.124 C  
HETATM   21  OXT UNL     1      -9.554   5.856  67.026  1.00  0.00    -0.123 OA 
BRANCH  17  22
HETATM   22  C   UNL     1      -8.996   6.591  69.741  1.00  0.00    -0.142 C  
BRANCH  22  23
HETATM   23  N   UNL     1     -10.225   5.939  70.478  1.00  0.00    -0.199 N  
HETATM   24  C   UNL     1     -10.370   6.198  71.967  1.00  0.00    -0.199 C  
HETATM   25  C   UNL     1     -11.487   6.324  69.717  1.00  0.00    -0.379 C  
HETATM   26  C   UNL     1      -9.268   5.366  72.578  1.00  0.00    -0.145 C  
HETATM   27  C   UNL     1      -9.422   4.053  71.830  1.00  0.00    -0.201 C  
HETATM   28  C   UNL     1     -10.034   4.404  70.466  1.00  0.00    -0.185 C  
ENDBRANCH  22  23
ENDBRANCH  17  22
ENDBRANCH   9  10
ENDBRANCH   5   6
BRANCH   5  29
HETATM   29  C   UNL     1     -11.106  15.401  65.933  1.00  0.00    -0.247 A  
HETATM   30  S   UNL     1     -10.384  17.845  65.974  1.00  0.00    -0.232 SA 
HETATM   31  C   UNL     1     -10.810  16.449  65.078  1.00  0.00    -0.273 A  
HETATM   32  H2  UNL     1     -10.159  18.527  68.674  1.00  0.00     0.000 HD 
HETATM   33  H1  UNL     1     -10.606  17.037  69.496  1.00  0.00     0.000 HD 
HETATM   34  C   UNL     1     -10.638  16.978  67.431  1.00  0.00    -0.289 A  
HETATM   35  N   UNL     1     -10.456  17.552  68.629  1.00  0.00    -0.358 NA 
HETATM   36  N   UNL     1     -11.022  15.735  67.286  1.00  0.00    -0.297 NA 
ENDBRANCH   5  29
ENDBRANCH   3   5
ENDBRANCH   2   3
TORSDOF 7
ENDMDL
MODEL       68
REMARK 921   NORMALIZED FREE ENERGY PREDICTED BY IDOCK:   -4.99 KCAL/MOL
REMARK 922        TOTAL FREE ENERGY PREDICTED BY IDOCK:   -8.15 KCAL/MOL
REMARK 923 INTER-LIGAND FREE ENERGY PREDICTED BY IDOCK:   -7.17 KCAL/MOL
REMARK 924 INTRA-LIGAND FREE ENERGY PREDICTED BY IDOCK:   -0.97 KCAL/MOL
REMARK 927      BINDING AFFINITY PREDICTED BY RF-SCORE:    0.00 PKD
ROOT
HETATM    1  C   UNL     1      -8.538   6.478  69.792  1.00  0.00    -0.136 C  
HETATM    2  O   UNL     1      -7.919   7.363  68.866  1.00  0.00    -0.121 OA 
ENDROOT
BRANCH   2   3
HETATM    3  N   UNL     1      -7.981   6.794  67.589  1.00  0.00    -0.111 NA 
HETATM    4  H   UNL     1      -7.628   5.863  67.366  1.00  0.00     0.000 HD 
BRANCH   3   5
HETATM    5  C   UNL     1      -8.540   7.588  66.715  1.00  0.00    -0.127 C  
BRANCH   5   6
HETATM    6  C   UNL     1      -9.564   8.689  67.071  1.00  0.00    -0.182 C  
HETATM    7  H   UNL     1      -8.086  10.146  66.900  1.00  0.00     0.000 HD 
HETATM    8  O   UNL     1     -10.740   8.429  67.289  1.00  0.00    -0.285 OA 
HETATM    9  N   UNL     1      -9.042   9.964  67.206  1.00  0.00    -0.135 N  
BRANCH   9  10
HETATM   10  CA  UNL     1      -9.845  11.078  67.790  1.00  0.00    -0.173 C  
HETATM   11  N   UNL     1     -10.034  12.988  66.996  1.00  0.00    -0.238 N  
HETATM   12  C   UNL     1     -10.745  11.862  66.768  1.00  0.00    -0.246 C  
HETATM   13  C   UNL     1      -9.158  12.452  68.012  1.00  0.00    -0.195 C  
HETATM   14  O   UNL     1     -11.591  11.547  65.968  1.00  0.00    -0.311 OA 
HETATM   15  S   UNL     1      -7.470  12.687  67.406  1.00  0.00    -0.121 SA 
HETATM   16  C   UNL     1      -7.644  14.482  67.405  1.00  0.00    -0.184 C  
HETATM   17  C   UNL     1      -8.874  15.034  66.720  1.00  0.00    -0.299 C  
HETATM   18  CA  UNL     1      -9.992  14.276  66.526  1.00  0.00    -0.281 C  
HETATM   19  O   UNL     1     -12.351  14.683  66.439  1.00  0.00    -0.266 OA 
HETATM   20  C   UNL     1     -11.269  14.877  65.823  1.00  0.00    -0.334 C  
HETATM   21  OXT UNL     1     -11.009  15.616  64.827  1.00  0.00    -0.436 OA 
BRANCH  17  22
HETATM   22  C   UNL     1      -8.810  16.533  66.423  1.00  0.00    -0.310 C  
BRANCH  22  23
HETATM   23  N   UNL     1      -9.363  17.576  67.464  1.00  0.00    -0.244 N  
HETATM   24  C   UNL     1     -10.629  18.329  67.101  1.00  0.00    -0.367 C  
HETATM   25  C   UNL     1      -9.495  16.872  68.809  1.00  0.00    -0.264 C  
HETATM   26  C   UNL     1     -10.171  19.292  66.031  1.00  0.00    -0.512 C  
HETATM   27  C   UNL     1      -8.891  19.840  66.636  1.00  0.00    -0.418 C  
HETATM   28  C   UNL     1      -8.348  18.741  67.563  1.00  0.00    -0.265 C  
ENDBRANCH  22  23
ENDBRANCH  17  22
ENDBRANCH   9  10
ENDBRANCH   5   6
BRANCH   5  29
HETATM   29  C   UNL     1      -8.123   7.393  65.322  1.00  0.00    -0.131 A  
HETATM   30  S   UNL     1      -7.577   6.374  63.051  1.00  0.00    -0.086 SA 
HETATM   31  C   UNL     1      -8.176   6.187  64.644  1.00  0.00    -0.094 A  
HETATM   32  H2  UNL     1      -6.556   8.465  61.503  1.00  0.00     0.000 HD 
HETATM   33  H1  UNL     1      -6.629   9.839  62.600  1.00  0.00     0.000 HD 
HETATM   34  C   UNL     1      -7.305   8.039  63.355  1.00  0.00    -0.107 A  
HETATM   35  N   UNL     1      -6.791   8.849  62.419  1.00  0.00    -0.094 NA 
HETATM   36  N   UNL     1      -7.638   8.453  64.553  1.00  0.00    -0.100 NA 
ENDBRANCH   5  29
ENDBRANCH   3   5
ENDBRANCH   2   3
TORSDOF 7
ENDMDL
MODEL       69
REMARK 921   NORMALIZED FREE ENERGY PREDICTED BY IDOCK:   -4.99 KCAL/MOL
REMARK 922        TOTAL FREE ENERGY PREDICTED BY IDOCK:   -8.14 KCAL/MOL
REMARK 923 INTER-LIGAND FREE ENERGY PREDICTED BY IDOCK:   -7.02 KCAL/MOL
REMARK 924 INTRA-LIGAND FREE ENERGY PREDICTED BY IDOCK:   -1.12 KCAL/MOL
REMARK 927      BINDING AFFINITY PREDICTED BY RF-SCORE:    0.00 PKD
ROOT
HETATM    1  C   UNL     1     -12.145  13.258  63.425  1.00  0.00    -0.439 C  
HETATM    2  O   UNL     1     -11.246  12.176  63.216  1.00  0.00    -0.402 OA 
ENDROOT
BRANCH   2   3
HETATM    3  N   UNL     1     -10.139  12.342  64.056  1.00  0.00    -0.537 NA 
HETATM    4  H   UNL     1      -9.607  13.210  64.129  1.00  0.00     0.000 HD 
BRANCH   3   5
HETATM    5  C   UNL     1      -9.861  11.262  64.736  1.00  0.00    -0.266 C  
BRANCH   5   6
HETATM    6  C   UNL     1     -10.587  10.842  66.035  1.00  0.00    -0.156 C  
HETATM    7  H   UNL     1      -9.276   9.241  66.271  1.00  0.00     0.000 HD 
HETATM    8  O   UNL     1     -11.537  11.474  66.475  1.00  0.00    -0.444 OA 
HETATM    9  N   UNL     1     -10.141   9.663  66.608  1.00  0.00    -0.230 N  
BRANCH   9  10
HETATM   10  CA  UNL     1     -10.898   8.996  67.708  1.00  0.00    -0.057 C  
HETATM   11  N   UNL     1     -10.122   8.431  69.551  1.00  0.00    -0.195 N  
HETATM   12  C   UNL     1     -10.667   9.598  69.141  1.00  0.00    -0.217 C  
HETATM   13  C   UNL     1     -10.319   7.694  68.324  1.00  0.00    -0.198 C  
HETATM   14  O   UNL     1     -10.758  10.701  69.621  1.00  0.00    -0.243 OA 
HETATM   15  S   UNL     1      -8.682   7.136  67.796  1.00  0.00    -0.124 SA 
HETATM   16  C   UNL     1      -8.468   6.129  69.277  1.00  0.00    -0.119 C  
HETATM   17  C   UNL     1      -8.744   6.814  70.596  1.00  0.00    -0.143 C  
HETATM   18  CA  UNL     1      -9.527   7.930  70.679  1.00  0.00    -0.162 C  
HETATM   19  O   UNL     1     -11.030   8.858  72.298  1.00  0.00    -0.337 OA 
HETATM   20  C   UNL     1      -9.814   8.619  72.068  1.00  0.00    -0.325 C  
HETATM   21  OXT UNL     1      -8.804   8.681  72.831  1.00  0.00    -0.367 OA 
BRANCH  17  22
HETATM   22  C   UNL     1      -8.215   6.063  71.819  1.00  0.00    -0.118 C  
BRANCH  22  23
HETATM   23  N   UNL     1      -8.816   4.664  72.216  1.00  0.00    -0.121 N  
HETATM   24  C   UNL     1     -10.259   4.385  71.837  1.00  0.00    -0.146 C  
HETATM   25  C   UNL     1      -7.879   3.584  71.691  1.00  0.00    -0.058 C  
HETATM   26  C   UNL     1     -11.047   5.253  72.788  1.00  0.00    -0.346 C  
HETATM   27  C   UNL     1     -10.350   4.976  74.109  1.00  0.00    -0.307 C  
HETATM   28  C   UNL     1      -8.902   4.599  73.760  1.00  0.00    -0.104 C  
ENDBRANCH  22  23
ENDBRANCH  17  22
ENDBRANCH   9  10
ENDBRANCH   5   6
BRANCH   5  29
HETATM   29  C   UNL     1      -8.796  10.419  64.183  1.00  0.00    -0.214 A  
HETATM   30  S   UNL     1      -7.455   8.801  62.740  1.00  0.00    -0.111 SA 
HETATM   31  C   UNL     1      -8.908   9.661  63.030  1.00  0.00    -0.243 A  
HETATM   32  H2  UNL     1      -4.962   8.562  63.980  1.00  0.00     0.000 HD 
HETATM   33  H1  UNL     1      -5.109   9.628  65.371  1.00  0.00     0.000 HD 
HETATM   34  C   UNL     1      -6.769   9.501  64.147  1.00  0.00    -0.101 A  
HETATM   35  N   UNL     1      -5.518   9.212  64.534  1.00  0.00    -0.054 NA 
HETATM   36  N   UNL     1      -7.546  10.328  64.800  1.00  0.00    -0.136 NA 
ENDBRANCH   5  29
ENDBRANCH   3   5
ENDBRANCH   2   3
TORSDOF 7
ENDMDL
MODEL       70
REMARK 921   NORMALIZED FREE ENERGY PREDICTED BY IDOCK:   -4.99 KCAL/MOL
REMARK 922        TOTAL FREE ENERGY PREDICTED BY IDOCK:   -8.14 KCAL/MOL
REMARK 923 INTER-LIGAND FREE ENERGY PREDICTED BY IDOCK:   -8.19 KCAL/MOL
REMARK 924 INTRA-LIGAND FREE ENERGY PREDICTED BY IDOCK:    0.05 KCAL/MOL
REMARK 927      BINDING AFFINITY PREDICTED BY RF-SCORE:    0.00 PKD
ROOT
HETATM    1  C   UNL     1     -12.900  14.573  70.816  1.00  0.00    -0.361 C  
HETATM    2  O   UNL     1     -12.461  13.647  69.830  1.00  0.00    -0.274 OA 
ENDROOT
BRANCH   2   3
HETATM    3  N   UNL     1     -11.998  14.359  68.718  1.00  0.00    -0.457 NA 
HETATM    4  H   UNL     1     -12.214  15.340  68.543  1.00  0.00     0.000 HD 
BRANCH   3   5
HETATM    5  C   UNL     1     -11.258  13.627  67.929  1.00  0.00    -0.274 C  
BRANCH   5   6
HETATM    6  C   UNL     1     -10.073  12.757  68.407  1.00  0.00    -0.226 C  
HETATM    7  H   UNL     1     -11.148  11.025  67.979  1.00  0.00     0.000 HD 
HETATM    8  O   UNL     1      -9.029  13.254  68.807  1.00  0.00    -0.027 OA 
HETATM    9  N   UNL     1     -10.311  11.393  68.430  1.00  0.00    -0.188 N  
BRANCH   9  10
HETATM   10  CA  UNL     1      -9.369  10.449  69.100  1.00  0.00    -0.199 C  
HETATM   11  N   UNL     1      -9.722   8.436  69.470  1.00  0.00    -0.174 N  
HETATM   12  C   UNL     1      -9.197   9.057  68.391  1.00  0.00    -0.136 C  
HETATM   13  C   UNL     1      -9.887   9.608  70.298  1.00  0.00    -0.266 C  
HETATM   14  O   UNL     1      -8.904   8.705  67.275  1.00  0.00    -0.131 OA 
HETATM   15  S   UNL     1     -11.643   9.690  70.721  1.00  0.00    -0.342 SA 
HETATM   16  C   UNL     1     -11.577   8.121  71.608  1.00  0.00    -0.279 C  
HETATM   17  C   UNL     1     -10.936   6.966  70.874  1.00  0.00    -0.290 C  
HETATM   18  CA  UNL     1     -10.067   7.161  69.839  1.00  0.00    -0.191 C  
HETATM   19  O   UNL     1      -8.148   6.023  68.968  1.00  0.00    -0.105 OA 
HETATM   20  C   UNL     1      -9.399   5.941  69.098  1.00  0.00    -0.120 C  
HETATM   21  OXT UNL     1     -10.187   4.970  68.888  1.00  0.00    -0.178 OA 
BRANCH  17  22
HETATM   22  C   UNL     1     -11.215   5.594  71.491  1.00  0.00    -0.112 C  
BRANCH  22  23
HETATM   23  N   UNL     1     -10.285   5.028  72.629  1.00  0.00    -0.181 N  
HETATM   24  C   UNL     1     -10.472   5.580  74.030  1.00  0.00    -0.279 C  
HETATM   25  C   UNL     1     -10.389   3.509  72.607  1.00  0.00    -0.145 C  
HETATM   26  C   UNL     1      -9.899   6.975  73.937  1.00  0.00    -0.354 C  
HETATM   27  C   UNL     1      -8.602   6.727  73.188  1.00  0.00    -0.132 C  
HETATM   28  C   UNL     1      -8.834   5.474  72.329  1.00  0.00    -0.132 C  
ENDBRANCH  22  23
ENDBRANCH  17  22
ENDBRANCH   9  10
ENDBRANCH   5   6
BRANCH   5  29
HETATM   29  C   UNL     1     -11.624  13.654  66.509  1.00  0.00    -0.366 A  
HETATM   30  S   UNL     1     -12.019  14.375  64.096  1.00  0.00    -0.252 SA 
HETATM   31  C   UNL     1     -11.436  14.736  65.665  1.00  0.00    -0.327 A  
HETATM   32  H2  UNL     1     -13.217  12.188  62.834  1.00  0.00     0.000 HD 
HETATM   33  H1  UNL     1     -13.306  10.991  64.120  1.00  0.00     0.000 HD 
HETATM   34  C   UNL     1     -12.465  12.808  64.629  1.00  0.00    -0.456 A  
HETATM   35  N   UNL     1     -13.040  11.923  63.803  1.00  0.00    -0.610 NA 
HETATM   36  N   UNL     1     -12.199  12.545  65.885  1.00  0.00    -0.624 NA 
ENDBRANCH   5  29
ENDBRANCH   3   5
ENDBRANCH   2   3
TORSDOF 7
ENDMDL
MODEL       71
REMARK 921   NORMALIZED FREE ENERGY PREDICTED BY IDOCK:   -4.98 KCAL/MOL
REMARK 922        TOTAL FREE ENERGY PREDICTED BY IDOCK:   -8.13 KCAL/MOL
REMARK 923 INTER-LIGAND FREE ENERGY PREDICTED BY IDOCK:   -7.41 KCAL/MOL
REMARK 924 INTRA-LIGAND FREE ENERGY PREDICTED BY IDOCK:   -0.72 KCAL/MOL
REMARK 927      BINDING AFFINITY PREDICTED BY RF-SCORE:    0.00 PKD
ROOT
HETATM    1  C   UNL     1     -13.149  10.096  70.791  1.00  0.00    -0.280 C  
HETATM    2  O   UNL     1     -12.568   8.887  71.263  1.00  0.00    -0.312 OA 
ENDROOT
BRANCH   2   3
HETATM    3  N   UNL     1     -11.468   9.201  72.068  1.00  0.00    -0.344 NA 
HETATM    4  H   UNL     1     -11.485   9.912  72.800  1.00  0.00     0.000 HD 
BRANCH   3   5
HETATM    5  C   UNL     1     -10.416   8.483  71.779  1.00  0.00    -0.300 C  
BRANCH   5   6
HETATM    6  C   UNL     1      -9.288   8.939  70.824  1.00  0.00    -0.230 C  
HETATM    7  H   UNL     1     -10.558  10.349  69.967  1.00  0.00     0.000 HD 
HETATM    8  O   UNL     1      -8.172   8.440  70.861  1.00  0.00    -0.100 OA 
HETATM    9  N   UNL     1      -9.656   9.882  69.880  1.00  0.00    -0.233 N  
BRANCH   9  10
HETATM   10  CA  UNL     1      -8.761  10.231  68.737  1.00  0.00    -0.144 C  
HETATM   11  N   UNL     1      -8.326  12.151  68.075  1.00  0.00    -0.159 N  
HETATM   12  C   UNL     1      -7.734  11.386  69.019  1.00  0.00    -0.064 C  
HETATM   13  C   UNL     1      -9.302  11.181  67.635  1.00  0.00    -0.165 C  
HETATM   14  O   UNL     1      -6.893  11.585  69.859  1.00  0.00    -0.068 OA 
HETATM   15  S   UNL     1     -10.923  11.948  67.867  1.00  0.00    -0.239 SA 
HETATM   16  C   UNL     1     -10.551  13.260  66.687  1.00  0.00    -0.281 C  
HETATM   17  C   UNL     1      -9.238  13.982  66.883  1.00  0.00    -0.271 C  
HETATM   18  CA  UNL     1      -8.202  13.421  67.574  1.00  0.00    -0.185 C  
HETATM   19  O   UNL     1      -5.811  13.513  67.462  1.00  0.00    -0.308 OA 
HETATM   20  C   UNL     1      -6.835  14.187  67.753  1.00  0.00    -0.176 C  
HETATM   21  OXT UNL     1      -6.966  15.424  67.999  1.00  0.00    -0.112 OA 
BRANCH  17  22
HETATM   22  C   UNL     1      -9.120  15.298  66.111  1.00  0.00    -0.279 C  
BRANCH  22  23
HETATM   23  N   UNL     1     -10.275  16.366  66.177  1.00  0.00    -0.333 N  
HETATM   24  C   UNL     1      -9.877  17.829  66.231  1.00  0.00    -0.294 C  
HETATM   25  C   UNL     1     -11.237  16.089  65.029  1.00  0.00    -0.261 C  
HETATM   26  C   UNL     1      -9.332  17.994  67.630  1.00  0.00    -0.259 C  
HETATM   27  C   UNL     1     -10.380  17.271  68.458  1.00  0.00    -0.371 C  
HETATM   28  C   UNL     1     -10.998  16.209  67.536  1.00  0.00    -0.238 C  
ENDBRANCH  22  23
ENDBRANCH  17  22
ENDBRANCH   9  10
ENDBRANCH   5   6
BRANCH   5  29
HETATM   29  C   UNL     1     -10.337   7.176  72.438  1.00  0.00    -0.201 A  
HETATM   30  S   UNL     1     -10.177   5.314  74.172  1.00  0.00    -0.275 SA 
HETATM   31  C   UNL     1     -10.291   6.984  73.809  1.00  0.00    -0.369 A  
HETATM   32  H2  UNL     1     -10.079   2.928  72.722  1.00  0.00     0.000 HD 
HETATM   33  H1  UNL     1     -10.174   3.477  71.052  1.00  0.00     0.000 HD 
HETATM   34  C   UNL     1     -10.216   4.954  72.497  1.00  0.00    -0.195 A  
HETATM   35  N   UNL     1     -10.152   3.692  72.049  1.00  0.00    -0.161 NA 
HETATM   36  N   UNL     1     -10.315   5.989  71.701  1.00  0.00    -0.208 NA 
ENDBRANCH   5  29
ENDBRANCH   3   5
ENDBRANCH   2   3
TORSDOF 7
ENDMDL
MODEL       72
REMARK 921   NORMALIZED FREE ENERGY PREDICTED BY IDOCK:   -4.91 KCAL/MOL
REMARK 922        TOTAL FREE ENERGY PREDICTED BY IDOCK:   -8.04 KCAL/MOL
REMARK 923 INTER-LIGAND FREE ENERGY PREDICTED BY IDOCK:   -7.04 KCAL/MOL
REMARK 924 INTRA-LIGAND FREE ENERGY PREDICTED BY IDOCK:   -1.00 KCAL/MOL
REMARK 927      BINDING AFFINITY PREDICTED BY RF-SCORE:    0.00 PKD
ROOT
HETATM    1  C   UNL     1      -9.467  18.611  68.588  1.00  0.00    -0.359 C  
HETATM    2  O   UNL     1      -9.364  17.529  67.670  1.00  0.00    -0.241 OA 
ENDROOT
BRANCH   2   3
HETATM    3  N   UNL     1     -10.348  16.583  67.978  1.00  0.00    -0.282 NA 
HETATM    4  H   UNL     1     -11.168  16.783  68.549  1.00  0.00     0.000 HD 
BRANCH   3   5
HETATM    5  C   UNL     1     -10.098  15.413  67.452  1.00  0.00    -0.233 C  
BRANCH   5   6
HETATM    6  C   UNL     1      -9.041  14.424  67.994  1.00  0.00    -0.188 C  
HETATM    7  H   UNL     1      -9.357  13.165  66.366  1.00  0.00     0.000 HD 
HETATM    8  O   UNL     1      -8.423  14.644  69.027  1.00  0.00    -0.157 OA 
HETATM    9  N   UNL     1      -8.909  13.247  67.278  1.00  0.00    -0.207 N  
BRANCH   9  10
HETATM   10  CA  UNL     1      -8.124  12.094  67.811  1.00  0.00    -0.152 C  
HETATM   11  N   UNL     1      -8.647  10.090  67.654  1.00  0.00    -0.118 N  
HETATM   12  C   UNL     1      -7.946  10.889  66.819  1.00  0.00    -0.143 C  
HETATM   13  C   UNL     1      -8.848  11.055  68.710  1.00  0.00    -0.147 C  
HETATM   14  O   UNL     1      -7.529  10.772  65.694  1.00  0.00    -0.125 OA 
HETATM   15  S   UNL     1     -10.637  11.199  68.935  1.00  0.00    -0.211 SA 
HETATM   16  C   UNL     1     -10.786   9.471  69.430  1.00  0.00    -0.225 C  
HETATM   17  C   UNL     1     -10.126   8.458  68.524  1.00  0.00    -0.218 C  
HETATM   18  CA  UNL     1      -9.116   8.802  67.671  1.00  0.00    -0.134 C  
HETATM   19  O   UNL     1      -7.172   7.720  66.783  1.00  0.00    -0.084 OA 
HETATM   20  C   UNL     1      -8.432   7.724  66.745  1.00  0.00    -0.126 C  
HETATM   21  OXT UNL     1      -9.244   6.902  66.224  1.00  0.00    -0.160 OA 
BRANCH  17  22
HETATM   22  C   UNL     1     -10.569   7.014  68.765  1.00  0.00    -0.212 C  
BRANCH  22  23
HETATM   23  N   UNL     1     -10.205   6.283  70.111  1.00  0.00    -0.182 N  
HETATM   24  C   UNL     1      -8.915   6.685  70.803  1.00  0.00    -0.151 C  
HETATM   25  C   UNL     1     -11.402   6.397  71.045  1.00  0.00    -0.328 C  
HETATM   26  C   UNL     1      -7.842   6.091  69.921  1.00  0.00    -0.104 C  
HETATM   27  C   UNL     1      -8.383   4.694  69.674  1.00  0.00    -0.077 C  
HETATM   28  C   UNL     1      -9.912   4.798  69.787  1.00  0.00    -0.238 C  
ENDBRANCH  22  23
ENDBRANCH  17  22
ENDBRANCH   9  10
ENDBRANCH   5   6
BRANCH   5  29
HETATM   29  C   UNL     1     -10.908  15.056  66.283  1.00  0.00    -0.333 A  
HETATM   30  S   UNL     1     -12.059  15.059  64.008  1.00  0.00     0.111 SA 
HETATM   31  C   UNL     1     -10.988  15.802  65.119  1.00  0.00    -0.382 A  
HETATM   32  H2  UNL     1     -13.641  12.756  63.952  1.00  0.00     0.000 HD 
HETATM   33  H1  UNL     1     -13.323  12.021  65.518  1.00  0.00     0.000 HD 
HETATM   34  C   UNL     1     -12.332  13.791  65.130  1.00  0.00    -0.448 A  
HETATM   35  N   UNL     1     -13.161  12.775  64.851  1.00  0.00    -0.821 NA 
HETATM   36  N   UNL     1     -11.674  13.888  66.258  1.00  0.00    -0.365 NA 
ENDBRANCH   5  29
ENDBRANCH   3   5
ENDBRANCH   2   3
TORSDOF 7
ENDMDL
MODEL       73
REMARK 921   NORMALIZED FREE ENERGY PREDICTED BY IDOCK:   -4.84 KCAL/MOL
REMARK 922        TOTAL FREE ENERGY PREDICTED BY IDOCK:   -7.94 KCAL/MOL
REMARK 923 INTER-LIGAND FREE ENERGY PREDICTED BY IDOCK:   -7.06 KCAL/MOL
REMARK 924 INTRA-LIGAND FREE ENERGY PREDICTED BY IDOCK:   -0.89 KCAL/MOL
REMARK 927      BINDING AFFINITY PREDICTED BY RF-SCORE:    0.00 PKD
ROOT
HETATM    1  C   UNL     1     -13.482   9.456  71.759  1.00  0.00    -0.412 C  
HETATM    2  O   UNL     1     -12.222   8.823  71.944  1.00  0.00    -0.314 OA 
ENDROOT
BRANCH   2   3
HETATM    3  N   UNL     1     -12.250   7.573  71.314  1.00  0.00    -0.323 NA 
HETATM    4  H   UNL     1     -13.105   7.044  71.143  1.00  0.00     0.000 HD 
BRANCH   3   5
HETATM    5  C   UNL     1     -11.059   7.160  70.971  1.00  0.00    -0.260 C  
BRANCH   5   6
HETATM    6  C   UNL     1     -10.302   7.641  69.712  1.00  0.00    -0.223 C  
HETATM    7  H   UNL     1      -9.311   9.087  70.836  1.00  0.00     0.000 HD 
HETATM    8  O   UNL     1     -10.463   7.110  68.621  1.00  0.00    -0.190 OA 
HETATM    9  N   UNL     1      -9.503   8.757  69.891  1.00  0.00    -0.166 N  
BRANCH   9  10
HETATM   10  CA  UNL     1      -8.914   9.489  68.730  1.00  0.00    -0.133 C  
HETATM   11  N   UNL     1      -9.006  11.539  68.411  1.00  0.00    -0.173 N  
HETATM   12  C   UNL     1      -8.113  10.791  69.096  1.00  0.00    -0.131 C  
HETATM   13  C   UNL     1      -9.823  10.453  67.922  1.00  0.00    -0.154 C  
HETATM   14  O   UNL     1      -7.197  11.041  69.839  1.00  0.00    -0.081 OA 
HETATM   15  S   UNL     1     -11.501  10.768  68.517  1.00  0.00    -0.255 SA 
HETATM   16  C   UNL     1     -11.621  12.306  67.583  1.00  0.00    -0.354 C  
HETATM   17  C   UNL     1     -10.471  13.274  67.740  1.00  0.00    -0.242 C  
HETATM   18  CA  UNL     1      -9.237  12.867  68.161  1.00  0.00    -0.212 C  
HETATM   19  O   UNL     1      -6.974  13.535  67.750  1.00  0.00    -0.127 OA 
HETATM   20  C   UNL     1      -8.048  13.893  68.304  1.00  0.00    -0.150 C  
HETATM   21  OXT UNL     1      -8.386  15.007  68.806  1.00  0.00    -0.155 OA 
BRANCH  17  22
HETATM   22  C   UNL     1     -10.765  14.688  67.237  1.00  0.00    -0.290 C  
BRANCH  22  23
HETATM   23  N   UNL     1     -10.451  15.085  65.746  1.00  0.00    -0.315 N  
HETATM   24  C   UNL     1     -11.606  15.575  64.892  1.00  0.00    -0.201 C  
HETATM   25  C   UNL     1      -9.300  16.082  65.758  1.00  0.00    -0.215 C  
HETATM   26  C   UNL     1     -12.408  14.322  64.632  1.00  0.00    -0.433 C  
HETATM   27  C   UNL     1     -11.320  13.329  64.266  1.00  0.00    -0.428 C  
HETATM   28  C   UNL     1     -10.046  13.802  64.982  1.00  0.00    -0.283 C  
ENDBRANCH  22  23
ENDBRANCH  17  22
ENDBRANCH   9  10
ENDBRANCH   5   6
BRANCH   5  29
HETATM   29  C   UNL     1     -10.436   6.191  71.878  1.00  0.00    -0.213 A  
HETATM   30  S   UNL     1      -8.975   5.085  73.650  1.00  0.00    -0.116 SA 
HETATM   31  C   UNL     1      -9.457   6.496  72.808  1.00  0.00    -0.142 A  
HETATM   32  H2  UNL     1      -9.668   2.378  73.627  1.00  0.00     0.000 HD 
HETATM   33  H1  UNL     1     -10.918   2.301  72.391  1.00  0.00     0.000 HD 
HETATM   34  C   UNL     1     -10.105   4.167  72.744  1.00  0.00    -0.161 A  
HETATM   35  N   UNL     1     -10.247   2.847  72.930  1.00  0.00    -0.144 NA 
HETATM   36  N   UNL     1     -10.810   4.845  71.873  1.00  0.00    -0.062 NA 
ENDBRANCH   5  29
ENDBRANCH   3   5
ENDBRANCH   2   3
TORSDOF 7
ENDMDL
MODEL       74
REMARK 921   NORMALIZED FREE ENERGY PREDICTED BY IDOCK:   -4.80 KCAL/MOL
REMARK 922        TOTAL FREE ENERGY PREDICTED BY IDOCK:   -7.88 KCAL/MOL
REMARK 923 INTER-LIGAND FREE ENERGY PREDICTED BY IDOCK:   -7.24 KCAL/MOL
REMARK 924 INTRA-LIGAND FREE ENERGY PREDICTED BY IDOCK:   -0.64 KCAL/MOL
REMARK 927      BINDING AFFINITY PREDICTED BY RF-SCORE:    0.00 PKD
ROOT
HETATM    1  C   UNL     1     -12.264  13.227  63.247  1.00  0.00    -0.313 C  
HETATM    2  O   UNL     1     -11.244  12.241  63.347  1.00  0.00    -0.438 OA 
ENDROOT
BRANCH   2   3
HETATM    3  N   UNL     1     -10.142  12.799  64.004  1.00  0.00    -0.594 NA 
HETATM    4  H   UNL     1      -9.575  13.555  63.620  1.00  0.00     0.000 HD 
BRANCH   3   5
HETATM    5  C   UNL     1      -9.918  12.242  65.165  1.00  0.00    -0.215 C  
BRANCH   5   6
HETATM    6  C   UNL     1      -9.424  10.790  65.352  1.00  0.00    -0.214 C  
HETATM    7  H   UNL     1      -9.154  11.124  67.390  1.00  0.00     0.000 HD 
HETATM    8  O   UNL     1      -9.368  10.002  64.417  1.00  0.00    -0.256 OA 
HETATM    9  N   UNL     1      -8.977  10.475  66.624  1.00  0.00    -0.141 N  
BRANCH   9  10
HETATM   10  CA  UNL     1      -8.239   9.207  66.900  1.00  0.00    -0.116 C  
HETATM   11  N   UNL     1      -8.741   7.795  68.337  1.00  0.00    -0.128 N  
HETATM   12  C   UNL     1      -9.139   7.928  67.053  1.00  0.00    -0.137 C  
HETATM   13  C   UNL     1      -7.810   8.899  68.360  1.00  0.00    -0.104 C  
HETATM   14  O   UNL     1      -9.982   7.399  66.372  1.00  0.00    -0.155 OA 
HETATM   15  S   UNL     1      -8.364  10.006  69.679  1.00  0.00    -0.161 SA 
HETATM   16  C   UNL     1      -8.099   8.748  70.943  1.00  0.00    -0.150 C  
HETATM   17  C   UNL     1      -8.703   7.389  70.670  1.00  0.00    -0.142 C  
HETATM   18  CA  UNL     1      -9.015   6.980  69.405  1.00  0.00    -0.139 C  
HETATM   19  O   UNL     1      -9.056   4.889  68.236  1.00  0.00    -0.107 OA 
HETATM   20  C   UNL     1      -9.630   5.552  69.142  1.00  0.00    -0.143 C  
HETATM   21  OXT UNL     1     -10.503   5.202  69.992  1.00  0.00    -0.293 OA 
BRANCH  17  22
HETATM   22  C   UNL     1      -8.774   6.474  71.893  1.00  0.00    -0.130 C  
BRANCH  22  23
HETATM   23  N   UNL     1      -9.616   6.894  73.155  1.00  0.00    -0.150 N  
HETATM   24  C   UNL     1     -10.624   5.895  73.692  1.00  0.00    -0.272 C  
HETATM   25  C   UNL     1      -8.646   7.348  74.237  1.00  0.00    -0.218 C  
HETATM   26  C   UNL     1     -11.727   5.918  72.661  1.00  0.00    -0.247 C  
HETATM   27  C   UNL     1     -11.907   7.409  72.435  1.00  0.00    -0.273 C  
HETATM   28  C   UNL     1     -10.550   8.058  72.744  1.00  0.00    -0.351 C  
ENDBRANCH  22  23
ENDBRANCH  17  22
ENDBRANCH   9  10
ENDBRANCH   5   6
BRANCH   5  29
HETATM   29  C   UNL     1     -10.150  13.097  66.334  1.00  0.00    -0.281 A  
HETATM   30  S   UNL     1      -9.933  14.871  68.151  1.00  0.00    -0.226 SA 
HETATM   31  C   UNL     1      -9.330  14.142  66.724  1.00  0.00    -0.282 A  
HETATM   32  H2  UNL     1     -12.122  14.497  69.847  1.00  0.00     0.000 HD 
HETATM   33  H1  UNL     1     -12.972  13.148  69.103  1.00  0.00     0.000 HD 
HETATM   34  C   UNL     1     -11.248  13.771  68.150  1.00  0.00    -0.271 A  
HETATM   35  N   UNL     1     -12.190  13.803  69.103  1.00  0.00    -0.319 NA 
HETATM   36  N   UNL     1     -11.263  12.914  67.159  1.00  0.00    -0.276 NA 
ENDBRANCH   5  29
ENDBRANCH   3   5
ENDBRANCH   2   3
TORSDOF 7
ENDMDL
MODEL       75
REMARK 921   NORMALIZED FREE ENERGY PREDICTED BY IDOCK:   -4.75 KCAL/MOL
REMARK 922        TOTAL FREE ENERGY PREDICTED BY IDOCK:   -7.81 KCAL/MOL
REMARK 923 INTER-LIGAND FREE ENERGY PREDICTED BY IDOCK:   -6.88 KCAL/MOL
REMARK 924 INTRA-LIGAND FREE ENERGY PREDICTED BY IDOCK:   -0.93 KCAL/MOL
REMARK 927      BINDING AFFINITY PREDICTED BY RF-SCORE:    0.00 PKD
ROOT
HETATM    1  C   UNL     1      -7.481   9.916  63.469  1.00  0.00    -0.134 C  
HETATM    2  O   UNL     1      -8.449   9.901  64.511  1.00  0.00    -0.150 OA 
ENDROOT
BRANCH   2   3
HETATM    3  N   UNL     1      -9.025   8.627  64.572  1.00  0.00    -0.406 NA 
HETATM    4  H   UNL     1      -9.648   8.252  63.856  1.00  0.00     0.000 HD 
BRANCH   3   5
HETATM    5  C   UNL     1      -8.677   7.972  65.647  1.00  0.00    -0.125 C  
BRANCH   5   6
HETATM    6  C   UNL     1      -8.733   8.556  67.077  1.00  0.00    -0.125 C  
HETATM    7  H   UNL     1     -10.527   9.517  66.635  1.00  0.00     0.000 HD 
HETATM    8  O   UNL     1      -7.870   8.308  67.909  1.00  0.00    -0.110 OA 
HETATM    9  N   UNL     1      -9.773   9.437  67.317  1.00  0.00    -0.157 N  
BRANCH   9  10
HETATM   10  CA  UNL     1      -9.818  10.273  68.554  1.00  0.00    -0.164 C  
HETATM   11  N   UNL     1     -10.315  12.288  68.643  1.00  0.00    -0.215 N  
HETATM   12  C   UNL     1     -11.091  11.182  68.702  1.00  0.00    -0.239 C  
HETATM   13  C   UNL     1      -9.038  11.615  68.571  1.00  0.00    -0.157 C  
HETATM   14  O   UNL     1     -12.280  10.986  68.679  1.00  0.00    -0.571 OA 
HETATM   15  S   UNL     1      -8.250  12.181  67.045  1.00  0.00    -0.135 SA 
HETATM   16  C   UNL     1      -8.191  13.888  67.624  1.00  0.00    -0.177 C  
HETATM   17  C   UNL     1      -9.483  14.453  68.168  1.00  0.00    -0.204 C  
HETATM   18  CA  UNL     1     -10.486  13.648  68.628  1.00  0.00    -0.234 C  
HETATM   19  O   UNL     1     -12.170  13.798  70.325  1.00  0.00    -0.326 OA 
HETATM   20  C   UNL     1     -11.819  14.260  69.206  1.00  0.00    -0.330 C  
HETATM   21  OXT UNL     1     -12.260  15.250  68.548  1.00  0.00    -0.163 OA 
BRANCH  17  22
HETATM   22  C   UNL     1      -9.496  15.976  68.307  1.00  0.00    -0.206 C  
BRANCH  22  23
HETATM   23  N   UNL     1      -9.647  16.891  67.035  1.00  0.00    -0.241 N  
HETATM   24  C   UNL     1      -8.413  17.628  66.549  1.00  0.00    -0.264 C  
HETATM   25  C   UNL     1     -10.274  16.056  65.927  1.00  0.00    -0.365 C  
HETATM   26  C   UNL     1      -8.215  18.708  67.587  1.00  0.00    -0.274 C  
HETATM   27  C   UNL     1      -9.627  19.241  67.750  1.00  0.00    -0.395 C  
HETATM   28  C   UNL     1     -10.569  18.078  67.404  1.00  0.00    -0.365 C  
ENDBRANCH  22  23
ENDBRANCH  17  22
ENDBRANCH   9  10
ENDBRANCH   5   6
BRANCH   5  29
HETATM   29  C   UNL     1      -8.225   6.593  65.433  1.00  0.00    -0.138 A  
HETATM   30  S   UNL     1      -6.814   4.529  64.939  1.00  0.00    -0.050 SA 
HETATM   31  C   UNL     1      -6.922   6.226  65.141  1.00  0.00    -0.056 A  
HETATM   32  H2  UNL     1      -8.570   2.359  65.063  1.00  0.00     0.000 HD 
HETATM   33  H1  UNL     1     -10.107   3.117  65.461  1.00  0.00     0.000 HD 
HETATM   34  C   UNL     1      -8.491   4.390  65.268  1.00  0.00    -0.121 A  
HETATM   35  N   UNL     1      -9.110   3.200  65.266  1.00  0.00    -0.144 NA 
HETATM   36  N   UNL     1      -9.109   5.516  65.523  1.00  0.00    -0.132 NA 
ENDBRANCH   5  29
ENDBRANCH   3   5
ENDBRANCH   2   3
TORSDOF 7
ENDMDL
MODEL       76
REMARK 921   NORMALIZED FREE ENERGY PREDICTED BY IDOCK:   -4.74 KCAL/MOL
REMARK 922        TOTAL FREE ENERGY PREDICTED BY IDOCK:   -7.80 KCAL/MOL
REMARK 923 INTER-LIGAND FREE ENERGY PREDICTED BY IDOCK:   -7.06 KCAL/MOL
REMARK 924 INTRA-LIGAND FREE ENERGY PREDICTED BY IDOCK:   -0.74 KCAL/MOL
REMARK 927      BINDING AFFINITY PREDICTED BY RF-SCORE:    0.00 PKD
ROOT
HETATM    1  C   UNL     1      -5.984   4.220  67.334  1.00  0.00    -0.024 C  
HETATM    2  O   UNL     1      -7.013   4.607  68.236  1.00  0.00    -0.054 OA 
ENDROOT
BRANCH   2   3
HETATM    3  N   UNL     1      -6.966   5.996  68.405  1.00  0.00    -0.073 NA 
HETATM    4  H   UNL     1      -6.126   6.556  68.260  1.00  0.00     0.000 HD 
BRANCH   3   5
HETATM    5  C   UNL     1      -8.117   6.494  68.769  1.00  0.00    -0.118 C  
BRANCH   5   6
HETATM    6  C   UNL     1      -9.230   6.922  67.785  1.00  0.00    -0.119 C  
HETATM    7  H   UNL     1      -8.465   8.858  67.732  1.00  0.00     0.000 HD 
HETATM    8  O   UNL     1     -10.072   6.131  67.380  1.00  0.00    -0.128 OA 
HETATM    9  N   UNL     1      -9.253   8.268  67.465  1.00  0.00    -0.136 N  
BRANCH   9  10
HETATM   10  CA  UNL     1     -10.406   8.878  66.739  1.00  0.00    -0.247 C  
HETATM   11  N   UNL     1     -10.596  10.880  66.218  1.00  0.00    -0.241 N  
HETATM   12  C   UNL     1     -10.021   9.847  65.563  1.00  0.00    -0.292 C  
HETATM   13  C   UNL     1     -11.091  10.130  67.350  1.00  0.00    -0.147 C  
HETATM   14  O   UNL     1      -9.331   9.753  64.579  1.00  0.00    -0.261 OA 
HETATM   15  S   UNL     1     -10.361  10.887  68.821  1.00  0.00    -0.206 SA 
HETATM   16  C   UNL     1     -11.192  12.458  68.513  1.00  0.00    -0.279 C  
HETATM   17  C   UNL     1     -11.058  13.021  67.117  1.00  0.00    -0.304 C  
HETATM   18  CA  UNL     1     -10.750  12.231  66.047  1.00  0.00    -0.261 C  
HETATM   19  O   UNL     1     -11.278  12.219  63.710  1.00  0.00    -0.365 OA 
HETATM   20  C   UNL     1     -10.630  12.838  64.596  1.00  0.00    -0.349 C  
HETATM   21  OXT UNL     1     -10.040  13.959  64.553  1.00  0.00    -0.331 OA 
BRANCH  17  22
HETATM   22  C   UNL     1     -11.454  14.493  66.990  1.00  0.00    -0.370 C  
BRANCH  22  23
HETATM   23  N   UNL     1     -10.720  15.592  67.846  1.00  0.00    -0.286 N  
HETATM   24  C   UNL     1     -10.313  16.874  67.144  1.00  0.00    -0.304 C  
HETATM   25  C   UNL     1     -11.572  15.874  69.077  1.00  0.00    -0.389 C  
HETATM   26  C   UNL     1      -9.153  16.446  66.276  1.00  0.00    -0.362 C  
HETATM   27  C   UNL     1      -8.340  15.601  67.241  1.00  0.00    -0.209 C  
HETATM   28  C   UNL     1      -9.338  15.034  68.262  1.00  0.00    -0.192 C  
ENDBRANCH  22  23
ENDBRANCH  17  22
ENDBRANCH   9  10
ENDBRANCH   5   6
BRANCH   5  29
HETATM   29  C   UNL     1      -8.326   6.622  70.215  1.00  0.00    -0.134 A  
HETATM   30  S   UNL     1      -8.958   6.183  72.645  1.00  0.00    -0.129 SA 
HETATM   31  C   UNL     1      -8.853   5.632  71.027  1.00  0.00    -0.137 A  
HETATM   32  H2  UNL     1      -8.330   8.527  74.031  1.00  0.00     0.000 HD 
HETATM   33  H1  UNL     1      -7.678   9.567  72.770  1.00  0.00     0.000 HD 
HETATM   34  C   UNL     1      -8.283   7.686  72.170  1.00  0.00    -0.106 A  
HETATM   35  N   UNL     1      -8.078   8.673  73.053  1.00  0.00    -0.409 NA 
HETATM   36  N   UNL     1      -7.984   7.790  70.899  1.00  0.00    -0.095 NA 
ENDBRANCH   5  29
ENDBRANCH   3   5
ENDBRANCH   2   3
TORSDOF 7
ENDMDL
MODEL       77
REMARK 921   NORMALIZED FREE ENERGY PREDICTED BY IDOCK:   -4.74 KCAL/MOL
REMARK 922        TOTAL FREE ENERGY PREDICTED BY IDOCK:   -7.79 KCAL/MOL
REMARK 923 INTER-LIGAND FREE ENERGY PREDICTED BY IDOCK:   -7.01 KCAL/MOL
REMARK 924 INTRA-LIGAND FREE ENERGY PREDICTED BY IDOCK:   -0.78 KCAL/MOL
REMARK 927      BINDING AFFINITY PREDICTED BY RF-SCORE:    0.00 PKD
ROOT
HETATM    1  C   UNL     1      -9.384   4.344  72.997  1.00  0.00    -0.121 C  
HETATM    2  O   UNL     1      -9.636   5.213  71.900  1.00  0.00    -0.144 OA 
ENDROOT
BRANCH   2   3
HETATM    3  N   UNL     1      -9.637   6.533  72.363  1.00  0.00    -0.146 NA 
HETATM    4  H   UNL     1      -9.365   6.803  73.308  1.00  0.00     0.000 HD 
BRANCH   3   5
HETATM    5  C   UNL     1     -10.025   7.382  71.449  1.00  0.00    -0.186 C  
BRANCH   5   6
HETATM    6  C   UNL     1      -9.146   7.851  70.267  1.00  0.00    -0.152 C  
HETATM    7  H   UNL     1     -10.250   9.611  70.119  1.00  0.00     0.000 HD 
HETATM    8  O   UNL     1      -8.211   7.179  69.853  1.00  0.00    -0.129 OA 
HETATM    9  N   UNL     1      -9.542   9.033  69.666  1.00  0.00    -0.167 N  
BRANCH   9  10
HETATM   10  CA  UNL     1      -8.958   9.482  68.367  1.00  0.00    -0.127 C  
HETATM   11  N   UNL     1      -8.301  11.402  67.927  1.00  0.00    -0.132 N  
HETATM   12  C   UNL     1      -7.656  10.353  68.484  1.00  0.00    -0.095 C  
HETATM   13  C   UNL     1      -9.558  10.736  67.677  1.00  0.00    -0.158 C  
HETATM   14  O   UNL     1      -6.587  10.210  69.023  1.00  0.00    -0.051 OA 
HETATM   15  S   UNL     1     -10.822  11.688  68.552  1.00  0.00    -0.233 SA 
HETATM   16  C   UNL     1     -10.513  13.155  67.550  1.00  0.00    -0.228 C  
HETATM   17  C   UNL     1      -9.069  13.584  67.422  1.00  0.00    -0.219 C  
HETATM   18  CA  UNL     1      -8.037  12.714  67.632  1.00  0.00    -0.173 C  
HETATM   19  O   UNL     1      -5.825  12.430  66.759  1.00  0.00    -0.277 OA 
HETATM   20  C   UNL     1      -6.539  13.180  67.477  1.00  0.00    -0.152 C  
HETATM   21  OXT UNL     1      -6.304  14.331  67.954  1.00  0.00    -0.138 OA 
BRANCH  17  22
HETATM   22  C   UNL     1      -8.878  15.003  66.884  1.00  0.00    -0.258 C  
BRANCH  22  23
HETATM   23  N   UNL     1      -9.231  16.248  67.780  1.00  0.00    -0.203 N  
HETATM   24  C   UNL     1     -10.502  17.011  67.455  1.00  0.00    -0.322 C  
HETATM   25  C   UNL     1      -9.202  15.803  69.236  1.00  0.00    -0.266 C  
HETATM   26  C   UNL     1     -10.159  17.738  66.176  1.00  0.00    -0.308 C  
HETATM   27  C   UNL     1      -8.783  18.293  66.496  1.00  0.00    -0.290 C  
HETATM   28  C   UNL     1      -8.163  17.340  67.529  1.00  0.00    -0.195 C  
ENDBRANCH  22  23
ENDBRANCH  17  22
ENDBRANCH   9  10
ENDBRANCH   5   6
BRANCH   5  29
HETATM   29  C   UNL     1     -11.397   7.882  71.588  1.00  0.00    -0.258 A  
HETATM   30  S   UNL     1     -13.936   8.055  71.740  1.00  0.00    -0.392 SA 
HETATM   31  C   UNL     1     -12.532   7.089  71.576  1.00  0.00    -0.386 A  
HETATM   32  H2  UNL     1     -14.497  10.777  72.034  1.00  0.00     0.000 HD 
HETATM   33  H1  UNL     1     -12.898  11.512  72.035  1.00  0.00     0.000 HD 
HETATM   34  C   UNL     1     -12.952   9.456  71.834  1.00  0.00    -0.417 A  
HETATM   35  N   UNL     1     -13.483  10.678  71.979  1.00  0.00    -0.314 NA 
HETATM   36  N   UNL     1     -11.662   9.243  71.760  1.00  0.00    -0.380 NA 
ENDBRANCH   5  29
ENDBRANCH   3   5
ENDBRANCH   2   3
TORSDOF 7
ENDMDL
MODEL       78
REMARK 921   NORMALIZED FREE ENERGY PREDICTED BY IDOCK:   -4.71 KCAL/MOL
REMARK 922        TOTAL FREE ENERGY PREDICTED BY IDOCK:   -7.75 KCAL/MOL
REMARK 923 INTER-LIGAND FREE ENERGY PREDICTED BY IDOCK:   -6.56 KCAL/MOL
REMARK 924 INTRA-LIGAND FREE ENERGY PREDICTED BY IDOCK:   -1.19 KCAL/MOL
REMARK 927      BINDING AFFINITY PREDICTED BY RF-SCORE:    0.00 PKD
ROOT
HETATM    1  C   UNL     1     -11.939  13.042  63.532  1.00  0.00    -0.545 C  
HETATM    2  O   UNL     1     -11.940  13.516  64.873  1.00  0.00    -0.349 OA 
ENDROOT
BRANCH   2   3
HETATM    3  N   UNL     1     -11.146  14.666  64.944  1.00  0.00    -0.388 NA 
HETATM    4  H   UNL     1     -10.784  15.157  64.126  1.00  0.00     0.000 HD 
BRANCH   3   5
HETATM    5  C   UNL     1     -10.918  15.041  66.174  1.00  0.00    -0.334 C  
BRANCH   5   6
HETATM    6  C   UNL     1     -10.893  14.081  67.385  1.00  0.00    -0.282 C  
HETATM    7  H   UNL     1      -8.922  13.562  66.957  1.00  0.00     0.000 HD 
HETATM    8  O   UNL     1     -11.861  13.947  68.122  1.00  0.00    -0.339 OA 
HETATM    9  N   UNL     1      -9.739  13.329  67.522  1.00  0.00    -0.219 N  
BRANCH   9  10
HETATM   10  CA  UNL     1      -9.661  12.185  68.478  1.00  0.00    -0.149 C  
HETATM   11  N   UNL     1      -8.731  10.363  68.122  1.00  0.00    -0.123 N  
HETATM   12  C   UNL     1      -8.244  11.522  68.616  1.00  0.00    -0.124 C  
HETATM   13  C   UNL     1     -10.108  10.780  67.993  1.00  0.00    -0.176 C  
HETATM   14  O   UNL     1      -7.138  11.931  68.871  1.00  0.00    -0.106 OA 
HETATM   15  S   UNL     1     -10.545  10.561  66.252  1.00  0.00    -0.077 SA 
HETATM   16  C   UNL     1     -10.284   8.779  66.336  1.00  0.00    -0.186 C  
HETATM   17  C   UNL     1      -8.976   8.324  66.944  1.00  0.00    -0.169 C  
HETATM   18  CA  UNL     1      -8.253   9.124  67.780  1.00  0.00    -0.109 C  
HETATM   19  O   UNL     1      -6.809   8.785  69.661  1.00  0.00    -0.045 OA 
HETATM   20  C   UNL     1      -6.899   8.623  68.415  1.00  0.00    -0.065 C  
HETATM   21  OXT UNL     1      -6.163   7.973  67.613  1.00  0.00    -0.049 OA 
BRANCH  17  22
HETATM   22  C   UNL     1      -8.633   6.858  66.674  1.00  0.00    -0.124 C  
BRANCH  22  23
HETATM   23  N   UNL     1      -9.535   5.708  67.258  1.00  0.00    -0.113 N  
HETATM   24  C   UNL     1     -10.320   6.003  68.522  1.00  0.00    -0.207 C  
HETATM   25  C   UNL     1     -10.442   5.209  66.139  1.00  0.00    -0.250 C  
HETATM   26  C   UNL     1      -9.259   6.029  69.597  1.00  0.00    -0.148 C  
HETATM   27  C   UNL     1      -8.447   4.792  69.259  1.00  0.00    -0.087 C  
HETATM   28  C   UNL     1      -8.608   4.570  67.748  1.00  0.00    -0.103 C  
ENDBRANCH  22  23
ENDBRANCH  17  22
ENDBRANCH   9  10
ENDBRANCH   5   6
BRANCH   5  29
HETATM   29  C   UNL     1     -10.661  16.472  66.366  1.00  0.00    -0.221 A  
HETATM   30  S   UNL     1     -10.312  18.969  65.986  1.00  0.00    -0.379 SA 
HETATM   31  C   UNL     1     -10.694  17.422  65.358  1.00  0.00    -0.035 A  
HETATM   32  H2  UNL     1      -9.668  20.037  68.487  1.00  0.00     0.000 HD 
HETATM   33  H1  UNL     1      -9.722  18.630  69.542  1.00  0.00     0.000 HD 
HETATM   34  C   UNL     1     -10.147  18.286  67.550  1.00  0.00    -0.350 A  
HETATM   35  N   UNL     1      -9.821  19.036  68.612  1.00  0.00    -0.394 NA 
HETATM   36  N   UNL     1     -10.365  16.996  67.626  1.00  0.00    -0.321 NA 
ENDBRANCH   5  29
ENDBRANCH   3   5
ENDBRANCH   2   3
TORSDOF 7
ENDMDL
MODEL       79
REMARK 921   NORMALIZED FREE ENERGY PREDICTED BY IDOCK:   -4.68 KCAL/MOL
REMARK 922        TOTAL FREE ENERGY PREDICTED BY IDOCK:   -7.72 KCAL/MOL
REMARK 923 INTER-LIGAND FREE ENERGY PREDICTED BY IDOCK:   -7.81 KCAL/MOL
REMARK 924 INTRA-LIGAND FREE ENERGY PREDICTED BY IDOCK:    0.09 KCAL/MOL
REMARK 927      BINDING AFFINITY PREDICTED BY RF-SCORE:    0.00 PKD
ROOT
HETATM    1  C   UNL     1     -13.772  12.897  72.080  1.00  0.00    -0.414 C  
HETATM    2  O   UNL     1     -12.813  11.870  71.863  1.00  0.00    -0.341 OA 
ENDROOT
BRANCH   2   3
HETATM    3  N   UNL     1     -12.150  12.121  70.657  1.00  0.00    -0.473 NA 
HETATM    4  H   UNL     1     -12.168  13.021  70.177  1.00  0.00     0.000 HD 
BRANCH   3   5
HETATM    5  C   UNL     1     -11.506  11.075  70.213  1.00  0.00    -0.273 C  
BRANCH   5   6
HETATM    6  C   UNL     1     -10.489  11.108  69.049  1.00  0.00    -0.206 C  
HETATM    7  H   UNL     1      -9.342  12.517  70.067  1.00  0.00     0.000 HD 
HETATM    8  O   UNL     1     -10.623  10.405  68.057  1.00  0.00    -0.189 OA 
HETATM    9  N   UNL     1      -9.476  12.042  69.174  1.00  0.00     0.316 N  
BRANCH   9  10
HETATM   10  CA  UNL     1      -8.574  12.372  68.031  1.00  0.00    -0.180 C  
HETATM   11  N   UNL     1      -7.843  14.259  67.562  1.00  0.00    -0.181 N  
HETATM   12  C   UNL     1      -7.357  13.302  68.384  1.00  0.00    -0.112 C  
HETATM   13  C   UNL     1      -8.982  13.520  67.069  1.00  0.00    -0.231 C  
HETATM   14  O   UNL     1      -6.467  13.261  69.196  1.00  0.00    -0.097 OA 
HETATM   15  S   UNL     1     -10.442  14.509  67.469  1.00  0.00    -0.254 SA 
HETATM   16  C   UNL     1      -9.895  15.872  66.423  1.00  0.00    -0.282 C  
HETATM   17  C   UNL     1      -8.472  16.341  66.628  1.00  0.00    -0.306 C  
HETATM   18  CA  UNL     1      -7.524  15.541  67.198  1.00  0.00    -0.209 C  
HETATM   19  O   UNL     1      -5.157  15.253  66.972  1.00  0.00    -0.113 OA 
HETATM   20  C   UNL     1      -6.042  16.047  67.389  1.00  0.00    -0.139 C  
HETATM   21  OXT UNL     1      -5.954  17.251  67.776  1.00  0.00    -0.127 OA 
BRANCH  17  22
HETATM   22  C   UNL     1      -8.161  17.701  66.001  1.00  0.00    -0.113 C  
BRANCH  22  23
HETATM   23  N   UNL     1      -8.462  19.030  66.789  1.00  0.00    -0.287 N  
HETATM   24  C   UNL     1      -8.861  18.907  68.248  1.00  0.00    -0.332 C  
HETATM   25  C   UNL     1      -7.271  19.962  66.611  1.00  0.00    -0.241 C  
HETATM   26  C   UNL     1     -10.265  18.354  68.184  1.00  0.00    -0.410 C  
HETATM   27  C   UNL     1     -10.890  19.223  67.107  1.00  0.00    -0.543 C  
HETATM   28  C   UNL     1      -9.739  19.666  66.190  1.00  0.00    -0.406 C  
ENDBRANCH  22  23
ENDBRANCH  17  22
ENDBRANCH   9  10
ENDBRANCH   5   6
BRANCH   5  29
HETATM   29  C   UNL     1     -11.788   9.814  70.908  1.00  0.00    -0.336 A  
HETATM   30  S   UNL     1     -11.590   7.693  72.307  1.00  0.00    -0.331 SA 
HETATM   31  C   UNL     1     -10.883   9.130  71.702  1.00  0.00    -0.372 A  
HETATM   32  H2  UNL     1     -14.067   6.415  72.109  1.00  0.00     0.000 HD 
HETATM   33  H1  UNL     1     -14.991   7.503  71.079  1.00  0.00     0.000 HD 
HETATM   34  C   UNL     1     -13.050   8.077  71.495  1.00  0.00    -0.296 A  
HETATM   35  N   UNL     1     -14.122   7.275  71.562  1.00  0.00    -0.415 NA 
HETATM   36  N   UNL     1     -13.039   9.199  70.820  1.00  0.00     0.086 NA 
ENDBRANCH   5  29
ENDBRANCH   3   5
ENDBRANCH   2   3
TORSDOF 7
ENDMDL
MODEL       80
REMARK 921   NORMALIZED FREE ENERGY PREDICTED BY IDOCK:   -4.68 KCAL/MOL
REMARK 922        TOTAL FREE ENERGY PREDICTED BY IDOCK:   -7.71 KCAL/MOL
REMARK 923 INTER-LIGAND FREE ENERGY PREDICTED BY IDOCK:   -6.74 KCAL/MOL
REMARK 924 INTRA-LIGAND FREE ENERGY PREDICTED BY IDOCK:   -0.97 KCAL/MOL
REMARK 927      BINDING AFFINITY PREDICTED BY RF-SCORE:    0.00 PKD
ROOT
HETATM    1  C   UNL     1      -5.599   9.181  68.077  1.00  0.00    -0.038 C  
HETATM    2  O   UNL     1      -6.776   8.384  68.129  1.00  0.00    -0.063 OA 
ENDROOT
BRANCH   2   3
HETATM    3  N   UNL     1      -7.316   8.462  69.417  1.00  0.00    -0.069 NA 
HETATM    4  H   UNL     1      -6.758   8.609  70.258  1.00  0.00     0.000 HD 
BRANCH   3   5
HETATM    5  C   UNL     1      -8.615   8.323  69.423  1.00  0.00    -0.134 C  
BRANCH   5   6
HETATM    6  C   UNL     1      -9.612   9.484  69.641  1.00  0.00    -0.202 C  
HETATM    7  H   UNL     1      -9.181  10.234  67.746  1.00  0.00     0.000 HD 
HETATM    8  O   UNL     1     -10.263   9.591  70.672  1.00  0.00    -0.265 OA 
HETATM    9  N   UNL     1      -9.651  10.429  68.630  1.00  0.00    -0.158 N  
BRANCH   9  10
HETATM   10  CA  UNL     1     -10.365  11.729  68.804  1.00  0.00    -0.179 C  
HETATM   11  N   UNL     1     -10.226  13.373  67.542  1.00  0.00    -0.225 N  
HETATM   12  C   UNL     1     -11.045  12.299  67.507  1.00  0.00    -0.275 C  
HETATM   13  C   UNL     1      -9.537  13.042  68.768  1.00  0.00     0.093 C  
HETATM   14  O   UNL     1     -11.834  11.866  66.704  1.00  0.00    -0.591 OA 
HETATM   15  S   UNL     1      -7.779  12.949  68.356  1.00  0.00    -0.119 SA 
HETATM   16  C   UNL     1      -7.723  14.688  67.885  1.00  0.00    -0.141 C  
HETATM   17  C   UNL     1      -8.794  15.155  66.925  1.00  0.00    -0.284 C  
HETATM   18  CA  UNL     1      -9.972  14.481  66.776  1.00  0.00    -0.264 C  
HETATM   19  O   UNL     1     -12.239  15.073  66.273  1.00  0.00     0.004 OA 
HETATM   20  C   UNL     1     -11.081  14.994  65.779  1.00  0.00    -0.346 C  
HETATM   21  OXT UNL     1     -10.626  15.419  64.675  1.00  0.00    -0.328 OA 
BRANCH  17  22
HETATM   22  C   UNL     1      -8.511  16.510  66.275  1.00  0.00    -0.328 C  
BRANCH  22  23
HETATM   23  N   UNL     1      -8.327  17.797  67.163  1.00  0.00    -0.219 N  
HETATM   24  C   UNL     1      -9.004  17.816  68.521  1.00  0.00    -0.287 C  
HETATM   25  C   UNL     1      -6.835  18.080  67.277  1.00  0.00    -0.186 C  
HETATM   26  C   UNL     1     -10.467  17.976  68.183  1.00  0.00    -0.373 C  
HETATM   27  C   UNL     1     -10.424  19.076  67.137  1.00  0.00    -0.522 C  
HETATM   28  C   UNL     1      -9.048  18.972  66.461  1.00  0.00    -0.334 C  
ENDBRANCH  22  23
ENDBRANCH  17  22
ENDBRANCH   9  10
ENDBRANCH   5   6
BRANCH   5  29
HETATM   29  C   UNL     1      -9.111   6.963  69.189  1.00  0.00    -0.136 A  
HETATM   30  S   UNL     1      -9.903   4.560  69.496  1.00  0.00    -0.168 SA 
HETATM   31  C   UNL     1      -9.363   6.033  70.183  1.00  0.00    -0.154 A  
HETATM   32  H2  UNL     1     -10.405   3.589  66.924  1.00  0.00     0.000 HD 
HETATM   33  H1  UNL     1     -10.023   4.968  65.900  1.00  0.00     0.000 HD 
HETATM   34  C   UNL     1      -9.785   5.254  67.933  1.00  0.00    -0.141 A  
HETATM   35  N   UNL     1     -10.093   4.556  66.830  1.00  0.00    -0.197 NA 
HETATM   36  N   UNL     1      -9.381   6.499  67.900  1.00  0.00    -0.113 NA 
ENDBRANCH   5  29
ENDBRANCH   3   5
ENDBRANCH   2   3
TORSDOF 7
ENDMDL
MODEL       81
REMARK 921   NORMALIZED FREE ENERGY PREDICTED BY IDOCK:   -4.66 KCAL/MOL
REMARK 922        TOTAL FREE ENERGY PREDICTED BY IDOCK:   -7.68 KCAL/MOL
REMARK 923 INTER-LIGAND FREE ENERGY PREDICTED BY IDOCK:   -6.84 KCAL/MOL
REMARK 924 INTRA-LIGAND FREE ENERGY PREDICTED BY IDOCK:   -0.84 KCAL/MOL
REMARK 927      BINDING AFFINITY PREDICTED BY RF-SCORE:    0.00 PKD
ROOT
HETATM    1  C   UNL     1      -9.561  19.243  68.801  1.00  0.00    -0.425 C  
HETATM    2  O   UNL     1      -9.505  17.866  69.153  1.00  0.00    -0.147 OA 
ENDROOT
BRANCH   2   3
HETATM    3  N   UNL     1     -10.593  17.569  69.981  1.00  0.00     0.019 NA 
HETATM    4  H   UNL     1     -10.891  18.157  70.759  1.00  0.00     0.000 HD 
BRANCH   3   5
HETATM    5  C   UNL     1     -11.185  16.454  69.647  1.00  0.00    -0.257 C  
BRANCH   5   6
HETATM    6  C   UNL     1     -11.147  15.840  68.229  1.00  0.00    -0.342 C  
HETATM    7  H   UNL     1     -10.192  14.143  68.967  1.00  0.00     0.000 HD 
HETATM    8  O   UNL     1     -11.625  16.420  67.262  1.00  0.00     0.249 OA 
HETATM    9  N   UNL     1     -10.467  14.640  68.120  1.00  0.00    -0.234 N  
BRANCH   9  10
HETATM   10  CA  UNL     1     -10.124  14.055  66.789  1.00  0.00    -0.264 C  
HETATM   11  N   UNL     1      -9.577  12.084  66.431  1.00  0.00    -0.224 N  
HETATM   12  C   UNL     1     -10.794  12.669  66.475  1.00  0.00    -0.258 C  
HETATM   13  C   UNL     1      -8.789  13.277  66.642  1.00  0.00    -0.058 C  
HETATM   14  O   UNL     1     -11.927  12.258  66.468  1.00  0.00    -0.596 OA 
HETATM   15  S   UNL     1      -7.792  12.975  68.120  1.00  0.00    -0.155 SA 
HETATM   16  C   UNL     1      -6.920  11.602  67.339  1.00  0.00    -0.117 C  
HETATM   17  C   UNL     1      -7.784  10.556  66.673  1.00  0.00    -0.123 C  
HETATM   18  CA  UNL     1      -9.061  10.824  66.271  1.00  0.00    -0.175 C  
HETATM   19  O   UNL     1     -10.494  10.093  64.496  1.00  0.00    -0.031 OA 
HETATM   20  C   UNL     1      -9.939   9.720  65.564  1.00  0.00    -0.259 C  
HETATM   21  OXT UNL     1      -9.826   8.566  66.076  1.00  0.00    -0.212 OA 
BRANCH  17  22
HETATM   22  C   UNL     1      -7.055   9.252  66.347  1.00  0.00    -0.088 C  
BRANCH  22  23
HETATM   23  N   UNL     1      -6.369   9.051  64.944  1.00  0.00    -0.065 N  
HETATM   24  C   UNL     1      -7.177   8.362  63.859  1.00  0.00    -0.094 C  
HETATM   25  C   UNL     1      -5.845  10.403  64.480  1.00  0.00    -0.120 C  
HETATM   26  C   UNL     1      -7.210   6.920  64.307  1.00  0.00    -0.067 C  
HETATM   27  C   UNL     1      -5.762   6.684  64.697  1.00  0.00    -0.031 C  
HETATM   28  C   UNL     1      -5.201   8.050  65.119  1.00  0.00    -0.028 C  
ENDBRANCH  22  23
ENDBRANCH  17  22
ENDBRANCH   9  10
ENDBRANCH   5   6
BRANCH   5  29
HETATM   29  C   UNL     1     -11.907  15.769  70.725  1.00  0.00    -0.404 A  
HETATM   30  S   UNL     1     -13.404  14.187  72.048  1.00  0.00    -0.457 SA 
HETATM   31  C   UNL     1     -12.732  14.671  70.550  1.00  0.00    -0.337 A  
HETATM   32  H2  UNL     1     -13.244  15.032  74.707  1.00  0.00     0.000 HD 
HETATM   33  H1  UNL     1     -12.135  16.395  74.621  1.00  0.00     0.000 HD 
HETATM   34  C   UNL     1     -12.547  15.447  72.833  1.00  0.00    -0.419 A  
HETATM   35  N   UNL     1     -12.645  15.645  74.155  1.00  0.00    -0.609 NA 
HETATM   36  N   UNL     1     -11.797  16.186  72.053  1.00  0.00    -0.514 NA 
ENDBRANCH   5  29
ENDBRANCH   3   5
ENDBRANCH   2   3
TORSDOF 7
ENDMDL
MODEL       82
REMARK 921   NORMALIZED FREE ENERGY PREDICTED BY IDOCK:   -4.65 KCAL/MOL
REMARK 922        TOTAL FREE ENERGY PREDICTED BY IDOCK:   -7.67 KCAL/MOL
REMARK 923 INTER-LIGAND FREE ENERGY PREDICTED BY IDOCK:   -6.86 KCAL/MOL
REMARK 924 INTRA-LIGAND FREE ENERGY PREDICTED BY IDOCK:   -0.81 KCAL/MOL
REMARK 927      BINDING AFFINITY PREDICTED BY RF-SCORE:    0.00 PKD
ROOT
HETATM    1  C   UNL     1     -11.574   6.558  70.455  1.00  0.00    -0.393 C  
HETATM    2  O   UNL     1     -11.228   7.046  69.165  1.00  0.00    -0.142 OA 
ENDROOT
BRANCH   2   3
HETATM    3  N   UNL     1     -10.092   7.856  69.280  1.00  0.00    -0.192 NA 
HETATM    4  H   UNL     1      -9.900   8.452  70.085  1.00  0.00     0.000 HD 
BRANCH   3   5
HETATM    5  C   UNL     1      -9.306   7.764  68.241  1.00  0.00    -0.143 C  
BRANCH   5   6
HETATM    6  C   UNL     1      -8.569   8.961  67.600  1.00  0.00    -0.124 C  
HETATM    7  H   UNL     1     -10.174  10.211  68.043  1.00  0.00     0.000 HD 
HETATM    8  O   UNL     1      -7.447   8.848  67.123  1.00  0.00    -0.083 OA 
HETATM    9  N   UNL     1      -9.297  10.137  67.530  1.00  0.00    -0.150 N  
BRANCH   9  10
HETATM   10  CA  UNL     1      -8.826  11.298  66.718  1.00  0.00    -0.170 C  
HETATM   11  N   UNL     1      -8.681  13.263  67.376  1.00  0.00    -0.196 N  
HETATM   12  C   UNL     1      -7.796  12.243  67.436  1.00  0.00    -0.171 C  
HETATM   13  C   UNL     1      -9.718  12.567  66.650  1.00  0.00    -0.242 C  
HETATM   14  O   UNL     1      -6.736  12.078  67.986  1.00  0.00    -0.062 OA 
HETATM   15  S   UNL     1     -11.201  12.642  67.683  1.00  0.00    -0.302 SA 
HETATM   16  C   UNL     1     -11.265  14.442  67.585  1.00  0.00    -0.313 C  
HETATM   17  C   UNL     1      -9.980  15.173  67.896  1.00  0.00    -0.221 C  
HETATM   18  CA  UNL     1      -8.762  14.563  67.802  1.00  0.00    -0.174 C  
HETATM   19  O   UNL     1      -6.536  15.246  67.237  1.00  0.00    -0.303 OA 
HETATM   20  C   UNL     1      -7.432  15.351  68.117  1.00  0.00    -0.115 C  
HETATM   21  OXT UNL     1      -7.512  16.116  69.125  1.00  0.00    -0.202 OA 
BRANCH  17  22
HETATM   22  C   UNL     1     -10.154  16.670  68.156  1.00  0.00    -0.267 C  
BRANCH  22  23
HETATM   23  N   UNL     1     -10.022  17.705  66.976  1.00  0.00    -0.307 N  
HETATM   24  C   UNL     1      -8.666  18.348  66.753  1.00  0.00    -0.277 C  
HETATM   25  C   UNL     1     -10.543  17.040  65.709  1.00  0.00    -0.211 C  
HETATM   26  C   UNL     1      -8.535  19.305  67.915  1.00  0.00    -0.343 C  
HETATM   27  C   UNL     1      -9.901  19.967  67.924  1.00  0.00    -0.538 C  
HETATM   28  C   UNL     1     -10.880  18.945  67.327  1.00  0.00    -0.372 C  
ENDBRANCH  22  23
ENDBRANCH  17  22
ENDBRANCH   9  10
ENDBRANCH   5   6
BRANCH   5  29
HETATM   29  C   UNL     1      -9.131   6.414  67.694  1.00  0.00    -0.114 A  
HETATM   30  S   UNL     1      -8.338   4.029  67.268  1.00  0.00    -0.100 SA 
HETATM   31  C   UNL     1      -8.265   5.461  68.204  1.00  0.00    -0.099 A  
HETATM   32  H2  UNL     1      -9.749   3.147  65.023  1.00  0.00     0.000 HD 
HETATM   33  H1  UNL     1     -10.758   4.532  64.622  1.00  0.00     0.000 HD 
HETATM   34  C   UNL     1      -9.521   4.756  66.262  1.00  0.00    -0.160 A  
HETATM   35  N   UNL     1     -10.055   4.100  65.221  1.00  0.00    -0.214 NA 
HETATM   36  N   UNL     1      -9.861   5.978  66.587  1.00  0.00    -0.160 NA 
ENDBRANCH   5  29
ENDBRANCH   3   5
ENDBRANCH   2   3
TORSDOF 7
ENDMDL
MODEL       83
REMARK 921   NORMALIZED FREE ENERGY PREDICTED BY IDOCK:   -4.62 KCAL/MOL
REMARK 922        TOTAL FREE ENERGY PREDICTED BY IDOCK:   -7.62 KCAL/MOL
REMARK 923 INTER-LIGAND FREE ENERGY PREDICTED BY IDOCK:   -6.75 KCAL/MOL
REMARK 924 INTRA-LIGAND FREE ENERGY PREDICTED BY IDOCK:   -0.87 KCAL/MOL
REMARK 927      BINDING AFFINITY PREDICTED BY RF-SCORE:    0.00 PKD
ROOT
HETATM    1  C   UNL     1      -9.300  17.217  67.435  1.00  0.00    -0.234 C  
HETATM    2  O   UNL     1      -8.797  15.945  67.826  1.00  0.00    -0.173 OA 
ENDROOT
BRANCH   2   3
HETATM    3  N   UNL     1      -9.249  15.661  69.119  1.00  0.00    -0.237 NA 
HETATM    4  H   UNL     1      -8.884  16.110  69.959  1.00  0.00     0.000 HD 
BRANCH   3   5
HETATM    5  C   UNL     1     -10.191  14.755  69.131  1.00  0.00    -0.220 C  
BRANCH   5   6
HETATM    6  C   UNL     1     -10.265  13.565  68.147  1.00  0.00    -0.249 C  
HETATM    7  H   UNL     1      -9.192  12.375  69.477  1.00  0.00     0.000 HD 
HETATM    8  O   UNL     1     -10.849  13.651  67.075  1.00  0.00    -0.282 OA 
HETATM    9  N   UNL     1      -9.560  12.436  68.528  1.00  0.00    -0.166 N  
BRANCH   9  10
HETATM   10  CA  UNL     1      -9.324  11.308  67.580  1.00  0.00    -0.160 C  
HETATM   11  N   UNL     1      -9.595   9.291  67.998  1.00  0.00    -0.141 N  
HETATM   12  C   UNL     1     -10.459  10.222  67.536  1.00  0.00    -0.244 C  
HETATM   13  C   UNL     1      -8.420  10.131  68.037  1.00  0.00    -0.118 C  
HETATM   14  O   UNL     1     -11.651  10.249  67.354  1.00  0.00    -0.198 OA 
HETATM   15  S   UNL     1      -7.829  10.102  69.745  1.00  0.00    -0.140 SA 
HETATM   16  C   UNL     1      -7.508   8.329  69.681  1.00  0.00    -0.081 C  
HETATM   17  C   UNL     1      -8.634   7.465  69.160  1.00  0.00    -0.136 C  
HETATM   18  CA  UNL     1      -9.627   7.973  68.372  1.00  0.00    -0.150 C  
HETATM   19  O   UNL     1     -10.998   7.147  66.589  1.00  0.00    -0.194 OA 
HETATM   20  C   UNL     1     -10.784   7.050  67.828  1.00  0.00    -0.231 C  
HETATM   21  OXT UNL     1     -11.221   6.216  68.677  1.00  0.00    -0.356 OA 
BRANCH  17  22
HETATM   22  C   UNL     1      -8.471   5.973  69.453  1.00  0.00    -0.115 C  
BRANCH  22  23
HETATM   23  N   UNL     1      -8.221   5.472  70.924  1.00  0.00    -0.116 N  
HETATM   24  C   UNL     1      -8.829   4.142  71.327  1.00  0.00    -0.107 C  
HETATM   25  C   UNL     1      -6.720   5.503  71.181  1.00  0.00    -0.052 C  
HETATM   26  C   UNL     1     -10.304   4.448  71.436  1.00  0.00    -0.080 C  
HETATM   27  C   UNL     1     -10.292   5.752  72.213  1.00  0.00    -0.244 C  
HETATM   28  C   UNL     1      -8.954   6.433  71.890  1.00  0.00    -0.138 C  
ENDBRANCH  22  23
ENDBRANCH  17  22
ENDBRANCH   9  10
ENDBRANCH   5   6
BRANCH   5  29
HETATM   29  C   UNL     1     -11.211  14.913  70.173  1.00  0.00    -0.239 A  
HETATM   30  S   UNL     1     -12.727  15.858  71.991  1.00  0.00    -0.370 SA 
HETATM   31  C   UNL     1     -11.491  16.099  70.830  1.00  0.00    -0.386 A  
HETATM   32  H2  UNL     1     -14.299  13.718  72.861  1.00  0.00     0.000 HD 
HETATM   33  H1  UNL     1     -13.744  12.386  71.854  1.00  0.00     0.000 HD 
HETATM   34  C   UNL     1     -12.824  14.208  71.536  1.00  0.00    -0.354 A  
HETATM   35  N   UNL     1     -13.687  13.368  72.124  1.00  0.00    -0.540 NA 
HETATM   36  N   UNL     1     -12.007  13.840  70.580  1.00  0.00    -0.301 NA 
ENDBRANCH   5  29
ENDBRANCH   3   5
ENDBRANCH   2   3
TORSDOF 7
ENDMDL
MODEL       84
REMARK 921   NORMALIZED FREE ENERGY PREDICTED BY IDOCK:   -4.60 KCAL/MOL
REMARK 922        TOTAL FREE ENERGY PREDICTED BY IDOCK:   -7.60 KCAL/MOL
REMARK 923 INTER-LIGAND FREE ENERGY PREDICTED BY IDOCK:   -6.52 KCAL/MOL
REMARK 924 INTRA-LIGAND FREE ENERGY PREDICTED BY IDOCK:   -1.08 KCAL/MOL
REMARK 927      BINDING AFFINITY PREDICTED BY RF-SCORE:    0.00 PKD
ROOT
HETATM    1  C   UNL     1     -10.748  19.587  67.033  1.00  0.00    -0.477 C  
HETATM    2  O   UNL     1     -10.571  18.477  66.161  1.00  0.00    -0.424 OA 
ENDROOT
BRANCH   2   3
HETATM    3  N   UNL     1     -10.584  17.302  66.921  1.00  0.00    -0.264 NA 
HETATM    4  H   UNL     1     -11.289  17.091  67.627  1.00  0.00     0.000 HD 
BRANCH   3   5
HETATM    5  C   UNL     1      -9.592  16.505  66.624  1.00  0.00    -0.258 C  
BRANCH   5   6
HETATM    6  C   UNL     1      -9.764  15.073  66.069  1.00  0.00    -0.328 C  
HETATM    7  H   UNL     1      -9.312  14.274  67.938  1.00  0.00     0.000 HD 
HETATM    8  O   UNL     1     -10.080  14.866  64.905  1.00  0.00    -0.339 OA 
HETATM    9  N   UNL     1      -9.454  14.053  66.953  1.00  0.00    -0.255 N  
BRANCH   9  10
HETATM   10  CA  UNL     1      -9.323  12.638  66.496  1.00  0.00    -0.228 C  
HETATM   11  N   UNL     1      -9.366  10.957  67.716  1.00  0.00    -0.155 N  
HETATM   12  C   UNL     1     -10.366  11.636  67.112  1.00  0.00    -0.217 C  
HETATM   13  C   UNL     1      -8.268  11.731  67.183  1.00  0.00    -0.169 C  
HETATM   14  O   UNL     1     -11.569  11.602  67.180  1.00  0.00    -0.491 OA 
HETATM   15  S   UNL     1      -7.362  12.377  68.609  1.00  0.00    -0.079 SA 
HETATM   16  C   UNL     1      -6.934  10.721  69.180  1.00  0.00    -0.091 C  
HETATM   17  C   UNL     1      -8.074   9.734  69.279  1.00  0.00    -0.115 C  
HETATM   18  CA  UNL     1      -9.233   9.897  68.574  1.00  0.00    -0.136 C  
HETATM   19  O   UNL     1     -10.856   8.445  67.576  1.00  0.00    -0.191 OA 
HETATM   20  C   UNL     1     -10.404   8.846  68.682  1.00  0.00    -0.204 C  
HETATM   21  OXT UNL     1     -10.610   8.423  69.859  1.00  0.00    -0.224 OA 
BRANCH  17  22
HETATM   22  C   UNL     1      -7.753   8.480  70.093  1.00  0.00    -0.086 C  
BRANCH  22  23
HETATM   23  N   UNL     1      -6.684   7.446  69.575  1.00  0.00    -0.040 N  
HETATM   24  C   UNL     1      -6.683   7.119  68.093  1.00  0.00    -0.061 C  
HETATM   25  C   UNL     1      -5.313   7.911  70.047  1.00  0.00    -0.023 C  
HETATM   26  C   UNL     1      -7.923   6.275  67.917  1.00  0.00    -0.111 C  
HETATM   27  C   UNL     1      -7.816   5.320  69.092  1.00  0.00    -0.085 C  
HETATM   28  C   UNL     1      -7.022   6.062  70.179  1.00  0.00    -0.069 C  
ENDBRANCH  22  23
ENDBRANCH  17  22
ENDBRANCH   9  10
ENDBRANCH   5   6
BRANCH   5  29
HETATM   29  C   UNL     1      -8.249  17.056  66.835  1.00  0.00    -0.213 A  
HETATM   30  S   UNL     1      -6.105  17.942  67.891  1.00  0.00    -0.157 SA 
HETATM   31  C   UNL     1      -7.665  17.258  68.074  1.00  0.00    -0.202 A  
HETATM   32  H2  UNL     1      -4.473  18.721  65.761  1.00  0.00     0.000 HD 
HETATM   33  H1  UNL     1      -5.453  18.335  64.351  1.00  0.00     0.000 HD 
HETATM   34  C   UNL     1      -6.298  17.909  66.187  1.00  0.00    -0.244 A  
HETATM   35  N   UNL     1      -5.338  18.354  65.364  1.00  0.00    -0.167 NA 
HETATM   36  N   UNL     1      -7.435  17.418  65.760  1.00  0.00    -0.414 NA 
ENDBRANCH   5  29
ENDBRANCH   3   5
ENDBRANCH   2   3
TORSDOF 7
ENDMDL
MODEL       85
REMARK 921   NORMALIZED FREE ENERGY PREDICTED BY IDOCK:   -4.56 KCAL/MOL
REMARK 922        TOTAL FREE ENERGY PREDICTED BY IDOCK:   -7.55 KCAL/MOL
REMARK 923 INTER-LIGAND FREE ENERGY PREDICTED BY IDOCK:   -6.60 KCAL/MOL
REMARK 924 INTRA-LIGAND FREE ENERGY PREDICTED BY IDOCK:   -0.95 KCAL/MOL
REMARK 927      BINDING AFFINITY PREDICTED BY RF-SCORE:    0.00 PKD
ROOT
HETATM    1  C   UNL     1     -13.000  13.986  71.083  1.00  0.00    -0.332 C  
HETATM    2  O   UNL     1     -11.746  14.128  70.427  1.00  0.00    -0.285 OA 
ENDROOT
BRANCH   2   3
HETATM    3  N   UNL     1     -11.941  13.988  69.048  1.00  0.00    -0.350 NA 
HETATM    4  H   UNL     1     -12.837  13.745  68.625  1.00  0.00     0.000 HD 
BRANCH   3   5
HETATM    5  C   UNL     1     -10.849  14.203  68.365  1.00  0.00    -0.254 C  
BRANCH   5   6
HETATM    6  C   UNL     1      -9.697  13.182  68.224  1.00  0.00    -0.223 C  
HETATM    7  H   UNL     1     -10.927  11.665  68.948  1.00  0.00     0.000 HD 
HETATM    8  O   UNL     1      -8.601  13.503  67.785  1.00  0.00    -0.158 OA 
HETATM    9  N   UNL     1      -9.968  11.912  68.704  1.00  0.00    -0.190 N  
BRANCH   9  10
HETATM   10  CA  UNL     1      -8.889  10.895  68.873  1.00  0.00    -0.138 C  
HETATM   11  N   UNL     1      -9.010   8.891  68.338  1.00  0.00    -0.134 N  
HETATM   12  C   UNL     1      -8.634   9.975  67.624  1.00  0.00    -0.118 C  
HETATM   13  C   UNL     1      -9.228   9.565  69.597  1.00  0.00    -0.200 C  
HETATM   14  O   UNL     1      -8.392  10.175  66.460  1.00  0.00    -0.121 OA 
HETATM   15  S   UNL     1     -10.947   9.240  70.058  1.00  0.00    -0.208 SA 
HETATM   16  C   UNL     1     -10.657   7.464  70.172  1.00  0.00    -0.230 C  
HETATM   17  C   UNL     1      -9.961   6.824  68.992  1.00  0.00    -0.161 C  
HETATM   18  CA  UNL     1      -9.197   7.550  68.124  1.00  0.00    -0.137 C  
HETATM   19  O   UNL     1      -7.246   7.141  66.796  1.00  0.00    -0.079 OA 
HETATM   20  C   UNL     1      -8.469   6.858  66.909  1.00  0.00    -0.115 C  
HETATM   21  OXT UNL     1      -9.170   5.983  66.318  1.00  0.00    -0.154 OA 
BRANCH  17  22
HETATM   22  C   UNL     1     -10.055   5.298  68.958  1.00  0.00    -0.202 C  
BRANCH  22  23
HETATM   23  N   UNL     1      -8.914   4.415  69.589  1.00  0.00    -0.092 N  
HETATM   24  C   UNL     1      -8.167   3.468  68.668  1.00  0.00    -0.068 C  
HETATM   25  C   UNL     1      -7.961   5.341  70.333  1.00  0.00    -0.091 C  
HETATM   26  C   UNL     1      -9.175   2.378  68.392  1.00  0.00    -0.253 C  
HETATM   27  C   UNL     1      -9.723   2.104  69.781  1.00  0.00     0.070 C  
HETATM   28  C   UNL     1      -9.568   3.413  70.570  1.00  0.00    -0.161 C  
ENDBRANCH  22  23
ENDBRANCH  17  22
ENDBRANCH   9  10
ENDBRANCH   5   6
BRANCH   5  29
HETATM   29  C   UNL     1     -10.764  15.505  67.694  1.00  0.00    -0.302 A  
HETATM   30  S   UNL     1     -10.478  17.988  67.198  1.00  0.00    -0.338 SA 
HETATM   31  C   UNL     1     -10.445  16.697  68.322  1.00  0.00    -0.321 A  
HETATM   32  H2  UNL     1     -10.990  18.283  64.466  1.00  0.00     0.000 HD 
HETATM   33  H1  UNL     1     -11.338  16.637  63.950  1.00  0.00     0.000 HD 
HETATM   34  C   UNL     1     -10.894  16.885  65.953  1.00  0.00    -0.037 A  
HETATM   35  N   UNL     1     -11.090  17.293  64.691  1.00  0.00    -0.959 NA 
HETATM   36  N   UNL     1     -10.998  15.633  66.323  1.00  0.00    -0.257 NA 
ENDBRANCH   5  29
ENDBRANCH   3   5
ENDBRANCH   2   3
TORSDOF 7
ENDMDL
MODEL       86
REMARK 921   NORMALIZED FREE ENERGY PREDICTED BY IDOCK:   -4.56 KCAL/MOL
REMARK 922        TOTAL FREE ENERGY PREDICTED BY IDOCK:   -7.54 KCAL/MOL
REMARK 923 INTER-LIGAND FREE ENERGY PREDICTED BY IDOCK:   -6.53 KCAL/MOL
REMARK 924 INTRA-LIGAND FREE ENERGY PREDICTED BY IDOCK:   -1.01 KCAL/MOL
REMARK 927      BINDING AFFINITY PREDICTED BY RF-SCORE:    0.00 PKD
ROOT
HETATM    1  C   UNL     1      -6.034  19.430  68.345  1.00  0.00    -0.225 C  
HETATM    2  O   UNL     1      -6.651  19.103  67.106  1.00  0.00    -0.193 OA 
ENDROOT
BRANCH   2   3
HETATM    3  N   UNL     1      -6.206  17.840  66.701  1.00  0.00    -0.159 NA 
HETATM    4  H   UNL     1      -5.401  17.691  66.092  1.00  0.00     0.000 HD 
BRANCH   3   5
HETATM    5  C   UNL     1      -6.936  16.872  67.188  1.00  0.00    -0.181 C  
BRANCH   5   6
HETATM    6  C   UNL     1      -6.364  15.628  67.905  1.00  0.00    -0.148 C  
HETATM    7  H   UNL     1      -7.129  14.394  66.411  1.00  0.00     0.000 HD 
HETATM    8  O   UNL     1      -5.724  15.719  68.944  1.00  0.00    -0.102 OA 
HETATM    9  N   UNL     1      -6.698  14.411  67.335  1.00  0.00    -0.094 N  
BRANCH   9  10
HETATM   10  CA  UNL     1      -6.441  13.122  68.044  1.00  0.00    -0.126 C  
HETATM   11  N   UNL     1      -7.400  11.317  67.673  1.00  0.00    -0.096 N  
HETATM   12  C   UNL     1      -6.297  11.864  67.114  1.00  0.00    -0.151 C  
HETATM   13  C   UNL     1      -7.647  12.354  68.648  1.00  0.00    -0.082 C  
HETATM   14  O   UNL     1      -5.609  11.586  66.164  1.00  0.00    -0.233 OA 
HETATM   15  S   UNL     1      -9.317  12.968  68.327  1.00  0.00    -0.166 SA 
HETATM   16  C   UNL     1     -10.056  11.366  68.699  1.00  0.00    -0.210 C  
HETATM   17  C   UNL     1      -9.445  10.171  68.003  1.00  0.00    -0.156 C  
HETATM   18  CA  UNL     1      -8.174  10.198  67.506  1.00  0.00    -0.114 C  
HETATM   19  O   UNL     1      -6.409   8.605  67.213  1.00  0.00    -0.055 OA 
HETATM   20  C   UNL     1      -7.552   8.935  66.796  1.00  0.00    -0.086 C  
HETATM   21  OXT UNL     1      -8.357   8.326  66.029  1.00  0.00    -0.114 OA 
BRANCH  17  22
HETATM   22  C   UNL     1     -10.304   8.906  68.053  1.00  0.00    -0.219 C  
BRANCH  22  23
HETATM   23  N   UNL     1     -10.079   7.835  69.185  1.00  0.00    -0.191 N  
HETATM   24  C   UNL     1     -11.224   7.578  70.147  1.00  0.00    -0.196 C  
HETATM   25  C   UNL     1      -9.602   6.548  68.525  1.00  0.00    -0.123 C  
HETATM   26  C   UNL     1     -11.246   8.819  71.007  1.00  0.00    -0.329 C  
HETATM   27  C   UNL     1      -9.773   9.003  71.323  1.00  0.00    -0.371 C  
HETATM   28  C   UNL     1      -9.000   8.377  70.152  1.00  0.00    -0.142 C  
ENDBRANCH  22  23
ENDBRANCH  17  22
ENDBRANCH   9  10
ENDBRANCH   5   6
BRANCH   5  29
HETATM   29  C   UNL     1      -8.386  17.031  67.035  1.00  0.00    -0.203 A  
HETATM   30  S   UNL     1     -10.884  17.266  67.485  1.00  0.00    -0.118 SA 
HETATM   31  C   UNL     1      -9.287  17.110  68.083  1.00  0.00    -0.264 A  
HETATM   32  H2  UNL     1     -12.100  17.412  64.973  1.00  0.00     0.000 HD 
HETATM   33  H1  UNL     1     -10.735  17.308  63.868  1.00  0.00     0.000 HD 
HETATM   34  C   UNL     1     -10.278  17.237  65.881  1.00  0.00    -0.261 A  
HETATM   35  N   UNL     1     -11.095  17.325  64.822  1.00  0.00    -0.920 NA 
HETATM   36  N   UNL     1      -8.978  17.128  65.773  1.00  0.00    -0.501 NA 
ENDBRANCH   5  29
ENDBRANCH   3   5
ENDBRANCH   2   3
TORSDOF 7
ENDMDL
MODEL       87
REMARK 921   NORMALIZED FREE ENERGY PREDICTED BY IDOCK:   -4.55 KCAL/MOL
REMARK 922        TOTAL FREE ENERGY PREDICTED BY IDOCK:   -7.53 KCAL/MOL
REMARK 923 INTER-LIGAND FREE ENERGY PREDICTED BY IDOCK:   -6.50 KCAL/MOL
REMARK 924 INTRA-LIGAND FREE ENERGY PREDICTED BY IDOCK:   -1.02 KCAL/MOL
REMARK 927      BINDING AFFINITY PREDICTED BY RF-SCORE:    0.00 PKD
ROOT
HETATM    1  C   UNL     1     -13.488  12.177  72.043  1.00  0.00    -0.286 C  
HETATM    2  O   UNL     1     -13.045  10.828  71.971  1.00  0.00    -0.483 OA 
ENDROOT
BRANCH   2   3
HETATM    3  N   UNL     1     -13.115  10.401  70.640  1.00  0.00    -0.482 NA 
HETATM    4  H   UNL     1     -13.969  10.058  70.200  1.00  0.00     0.000 HD 
BRANCH   3   5
HETATM    5  C   UNL     1     -11.966  10.490  70.025  1.00  0.00    -0.288 C  
BRANCH   5   6
HETATM    6  C   UNL     1     -10.786   9.517  70.243  1.00  0.00    -0.265 C  
HETATM    7  H   UNL     1     -11.145   8.637  68.390  1.00  0.00     0.000 HD 
HETATM    8  O   UNL     1     -10.095   9.556  71.253  1.00  0.00    -0.273 OA 
HETATM    9  N   UNL     1     -10.622   8.554  69.262  1.00  0.00    -0.210 N  
BRANCH   9  10
HETATM   10  CA  UNL     1      -9.699   7.396  69.452  1.00  0.00    -0.159 C  
HETATM   11  N   UNL     1      -8.482   6.558  67.992  1.00  0.00    -0.119 N  
HETATM   12  C   UNL     1      -8.261   7.580  68.848  1.00  0.00    -0.128 C  
HETATM   13  C   UNL     1      -9.798   6.199  68.468  1.00  0.00    -0.137 C  
HETATM   14  O   UNL     1      -7.394   8.410  68.962  1.00  0.00    -0.084 OA 
HETATM   15  S   UNL     1     -10.909   6.331  67.047  1.00  0.00    -0.359 SA 
HETATM   16  C   UNL     1     -10.032   5.036  66.150  1.00  0.00    -0.218 C  
HETATM   17  C   UNL     1      -8.530   5.181  66.066  1.00  0.00    -0.118 C  
HETATM   18  CA  UNL     1      -7.827   5.938  66.959  1.00  0.00    -0.102 C  
HETATM   19  O   UNL     1      -5.644   5.854  67.942  1.00  0.00    -0.008 OA 
HETATM   20  C   UNL     1      -6.259   6.063  66.861  1.00  0.00    -0.026 C  
HETATM   21  OXT UNL     1      -5.824   6.187  65.677  1.00  0.00    -0.023 OA 
BRANCH  17  22
HETATM   22  C   UNL     1      -7.868   4.288  65.015  1.00  0.00    -0.089 C  
BRANCH  22  23
HETATM   23  N   UNL     1      -7.875   2.722  65.182  1.00  0.00    -0.081 N  
HETATM   24  C   UNL     1      -7.828   2.165  66.593  1.00  0.00    -0.071 C  
HETATM   25  C   UNL     1      -9.061   2.172  64.401  1.00  0.00    -0.123 C  
HETATM   26  C   UNL     1      -6.409   2.437  67.032  1.00  0.00    -0.028 C  
HETATM   27  C   UNL     1      -5.618   1.990  65.816  1.00  0.00    -0.016 C  
HETATM   28  C   UNL     1      -6.547   2.172  64.607  1.00  0.00    -0.027 C  
ENDBRANCH  22  23
ENDBRANCH  17  22
ENDBRANCH   9  10
ENDBRANCH   5   6
BRANCH   5  29
HETATM   29  C   UNL     1     -11.843  11.592  69.065  1.00  0.00    -0.328 A  
HETATM   30  S   UNL     1     -11.454  13.871  67.991  1.00  0.00    -0.327 SA 
HETATM   31  C   UNL     1     -11.442  12.878  69.386  1.00  0.00    -0.260 A  
HETATM   32  H2  UNL     1     -12.054  13.548  65.281  1.00  0.00     0.000 HD 
HETATM   33  H1  UNL     1     -12.502  11.849  65.176  1.00  0.00     0.000 HD 
HETATM   34  C   UNL     1     -11.971  12.533  67.052  1.00  0.00    -0.225 A  
HETATM   35  N   UNL     1     -12.194  12.645  65.735  1.00  0.00    -0.598 NA 
HETATM   36  N   UNL     1     -12.122  11.410  67.709  1.00  0.00    -0.564 NA 
ENDBRANCH   5  29
ENDBRANCH   3   5
ENDBRANCH   2   3
TORSDOF 7
ENDMDL
MODEL       88
REMARK 921   NORMALIZED FREE ENERGY PREDICTED BY IDOCK:   -4.52 KCAL/MOL
REMARK 922        TOTAL FREE ENERGY PREDICTED BY IDOCK:   -7.49 KCAL/MOL
REMARK 923 INTER-LIGAND FREE ENERGY PREDICTED BY IDOCK:   -6.75 KCAL/MOL
REMARK 924 INTRA-LIGAND FREE ENERGY PREDICTED BY IDOCK:   -0.74 KCAL/MOL
REMARK 927      BINDING AFFINITY PREDICTED BY RF-SCORE:    0.00 PKD
ROOT
HETATM    1  C   UNL     1     -12.247  13.195  63.339  1.00  0.00    -0.444 C  
HETATM    2  O   UNL     1     -11.046  12.442  63.453  1.00  0.00    -0.455 OA 
ENDROOT
BRANCH   2   3
HETATM    3  N   UNL     1     -10.177  13.108  64.324  1.00  0.00    -0.597 NA 
HETATM    4  H   UNL     1      -9.741  14.005  64.113  1.00  0.00     0.000 HD 
BRANCH   3   5
HETATM    5  C   UNL     1      -9.988  12.453  65.438  1.00  0.00    -0.236 C  
BRANCH   5   6
HETATM    6  C   UNL     1      -9.246  11.101  65.537  1.00  0.00    -0.216 C  
HETATM    7  H   UNL     1      -9.618  11.024  67.584  1.00  0.00     0.000 HD 
HETATM    8  O   UNL     1      -8.762  10.558  64.552  1.00  0.00    -0.183 OA 
HETATM    9  N   UNL     1      -9.098  10.598  66.818  1.00  0.00    -0.151 N  
BRANCH   9  10
HETATM   10  CA  UNL     1      -8.193   9.445  67.103  1.00  0.00    -0.113 C  
HETATM   11  N   UNL     1      -8.626   7.836  68.343  1.00  0.00    -0.128 N  
HETATM   12  C   UNL     1      -8.868   8.028  67.027  1.00  0.00    -0.133 C  
HETATM   13  C   UNL     1      -7.913   9.069  68.583  1.00  0.00    -0.102 C  
HETATM   14  O   UNL     1      -9.510   7.439  66.193  1.00  0.00    -0.125 OA 
HETATM   15  S   UNL     1      -8.820   9.936  69.886  1.00  0.00    -0.148 SA 
HETATM   16  C   UNL     1      -8.509   8.620  71.078  1.00  0.00    -0.164 C  
HETATM   17  C   UNL     1      -8.825   7.214  70.619  1.00  0.00    -0.149 C  
HETATM   18  CA  UNL     1      -8.891   6.886  69.295  1.00  0.00    -0.138 C  
HETATM   19  O   UNL     1      -8.413   4.942  67.980  1.00  0.00    -0.103 OA 
HETATM   20  C   UNL     1      -9.208   5.410  68.839  1.00  0.00    -0.120 C  
HETATM   21  OXT UNL     1     -10.111   4.841  69.523  1.00  0.00    -0.226 OA 
BRANCH  17  22
HETATM   22  C   UNL     1      -8.895   6.184  71.747  1.00  0.00    -0.138 C  
BRANCH  22  23
HETATM   23  N   UNL     1     -10.211   6.021  72.596  1.00  0.00    -0.179 N  
HETATM   24  C   UNL     1     -10.101   6.179  74.101  1.00  0.00    -0.295 C  
HETATM   25  C   UNL     1     -11.266   6.951  72.010  1.00  0.00    -0.257 C  
HETATM   26  C   UNL     1      -9.389   4.920  74.536  1.00  0.00    -0.134 C  
HETATM   27  C   UNL     1     -10.137   3.856  73.753  1.00  0.00    -0.183 C  
HETATM   28  C   UNL     1     -10.672   4.547  72.490  1.00  0.00    -0.120 C  
ENDBRANCH  22  23
ENDBRANCH  17  22
ENDBRANCH   9  10
ENDBRANCH   5   6
BRANCH   5  29
HETATM   29  C   UNL     1     -10.519  13.090  66.648  1.00  0.00    -0.264 A  
HETATM   30  S   UNL     1     -12.045  13.871  68.535  1.00  0.00    -0.189 SA 
HETATM   31  C   UNL     1     -11.817  12.947  67.111  1.00  0.00    -0.362 A  
HETATM   32  H2  UNL     1     -10.482  15.547  70.134  1.00  0.00     0.000 HD 
HETATM   33  H1  UNL     1      -8.919  15.518  69.327  1.00  0.00     0.000 HD 
HETATM   34  C   UNL     1     -10.411  14.383  68.457  1.00  0.00    -0.248 A  
HETATM   35  N   UNL     1      -9.891  15.212  69.373  1.00  0.00    -0.227 NA 
HETATM   36  N   UNL     1      -9.720  13.905  67.452  1.00  0.00    -0.229 NA 
ENDBRANCH   5  29
ENDBRANCH   3   5
ENDBRANCH   2   3
TORSDOF 7
ENDMDL
MODEL       89
REMARK 921   NORMALIZED FREE ENERGY PREDICTED BY IDOCK:   -4.49 KCAL/MOL
REMARK 922        TOTAL FREE ENERGY PREDICTED BY IDOCK:   -7.44 KCAL/MOL
REMARK 923 INTER-LIGAND FREE ENERGY PREDICTED BY IDOCK:   -7.87 KCAL/MOL
REMARK 924 INTRA-LIGAND FREE ENERGY PREDICTED BY IDOCK:    0.43 KCAL/MOL
REMARK 927      BINDING AFFINITY PREDICTED BY RF-SCORE:    0.00 PKD
ROOT
HETATM    1  C   UNL     1      -7.657  14.910  67.701  1.00  0.00    -0.182 C  
HETATM    2  O   UNL     1      -8.675  13.919  67.628  1.00  0.00    -0.165 OA 
ENDROOT
BRANCH   2   3
HETATM    3  N   UNL     1      -8.476  13.153  66.474  1.00  0.00    -0.406 NA 
HETATM    4  H   UNL     1      -7.699  13.293  65.828  1.00  0.00     0.000 HD 
BRANCH   3   5
HETATM    5  C   UNL     1      -9.396  12.239  66.316  1.00  0.00    -0.206 C  
BRANCH   5   6
HETATM    6  C   UNL     1      -9.454  10.917  67.114  1.00  0.00    -0.160 C  
HETATM    7  H   UNL     1      -7.484  10.492  66.589  1.00  0.00     0.000 HD 
HETATM    8  O   UNL     1     -10.457  10.579  67.729  1.00  0.00    -0.194 OA 
HETATM    9  N   UNL     1      -8.331  10.114  67.013  1.00  0.00    -0.125 N  
BRANCH   9  10
HETATM   10  CA  UNL     1      -8.332   8.706  67.510  1.00  0.00    -0.120 C  
HETATM   11  N   UNL     1      -9.524   7.955  69.036  1.00  0.00    -0.151 N  
HETATM   12  C   UNL     1      -9.753   8.067  67.709  1.00  0.00    -0.156 C  
HETATM   13  C   UNL     1      -8.169   8.456  69.033  1.00  0.00    -0.118 C  
HETATM   14  O   UNL     1     -10.722   7.918  67.006  1.00  0.00    -0.339 OA 
HETATM   15  S   UNL     1      -8.149   9.879  70.149  1.00  0.00    -0.063 SA 
HETATM   16  C   UNL     1      -8.592   8.861  71.570  1.00  0.00    -0.135 C  
HETATM   17  C   UNL     1      -9.780   7.943  71.390  1.00  0.00    -0.199 C  
HETATM   18  CA  UNL     1     -10.206   7.550  70.154  1.00  0.00    -0.206 C  
HETATM   19  O   UNL     1     -11.236   5.592  69.234  1.00  0.00    -0.206 OA 
HETATM   20  C   UNL     1     -11.438   6.580  69.990  1.00  0.00    -0.412 C  
HETATM   21  OXT UNL     1     -12.402   6.833  70.775  1.00  0.00    -0.377 OA 
BRANCH  17  22
HETATM   22  C   UNL     1     -10.342   7.377  72.695  1.00  0.00    -0.244 C  
BRANCH  22  23
HETATM   23  N   UNL     1      -9.529   6.308  73.516  1.00  0.00    -0.138 N  
HETATM   24  C   UNL     1      -8.703   5.302  72.735  1.00  0.00    -0.119 C  
HETATM   25  C   UNL     1      -8.684   7.049  74.544  1.00  0.00    -0.195 C  
HETATM   26  C   UNL     1      -9.742   4.386  72.132  1.00  0.00    -0.220 C  
HETATM   27  C   UNL     1     -10.659   4.137  73.316  1.00  0.00    -0.267 C  
HETATM   28  C   UNL     1     -10.540   5.373  74.221  1.00  0.00    -0.195 C  
ENDBRANCH  22  23
ENDBRANCH  17  22
ENDBRANCH   9  10
ENDBRANCH   5   6
BRANCH   5  29
HETATM   29  C   UNL     1     -10.427  12.541  65.316  1.00  0.00    -0.287 A  
HETATM   30  S   UNL     1     -12.084  12.387  63.386  1.00  0.00    -0.467 SA 
HETATM   31  C   UNL     1     -10.912  11.638  64.385  1.00  0.00    -0.337 A  
HETATM   32  H2  UNL     1     -13.249  14.918  63.178  1.00  0.00     0.000 HD 
HETATM   33  H1  UNL     1     -12.468  15.819  64.471  1.00  0.00     0.000 HD 
HETATM   34  C   UNL     1     -11.887  13.848  64.260  1.00  0.00    -0.412 A  
HETATM   35  N   UNL     1     -12.585  14.950  63.952  1.00  0.00    -0.760 NA 
HETATM   36  N   UNL     1     -11.019  13.804  65.240  1.00  0.00    -0.310 NA 
ENDBRANCH   5  29
ENDBRANCH   3   5
ENDBRANCH   2   3
TORSDOF 7
ENDMDL
MODEL       90
REMARK 921   NORMALIZED FREE ENERGY PREDICTED BY IDOCK:   -4.49 KCAL/MOL
REMARK 922        TOTAL FREE ENERGY PREDICTED BY IDOCK:   -7.44 KCAL/MOL
REMARK 923 INTER-LIGAND FREE ENERGY PREDICTED BY IDOCK:   -6.53 KCAL/MOL
REMARK 924 INTRA-LIGAND FREE ENERGY PREDICTED BY IDOCK:   -0.91 KCAL/MOL
REMARK 927      BINDING AFFINITY PREDICTED BY RF-SCORE:    0.00 PKD
ROOT
HETATM    1  C   UNL     1     -10.035   4.481  70.954  1.00  0.00    -0.193 C  
HETATM    2  O   UNL     1     -10.659   5.301  69.974  1.00  0.00    -0.302 OA 
ENDROOT
BRANCH   2   3
HETATM    3  N   UNL     1      -9.932   5.211  68.782  1.00  0.00    -0.168 NA 
HETATM    4  H   UNL     1      -9.881   4.367  68.211  1.00  0.00     0.000 HD 
BRANCH   3   5
HETATM    5  C   UNL     1      -9.324   6.328  68.482  1.00  0.00    -0.121 C  
BRANCH   5   6
HETATM    6  C   UNL     1      -9.359   7.600  69.360  1.00  0.00    -0.152 C  
HETATM    7  H   UNL     1     -10.958   8.343  68.251  1.00  0.00     0.000 HD 
HETATM    8  O   UNL     1      -8.587   7.758  70.296  1.00  0.00    -0.135 OA 
HETATM    9  N   UNL     1     -10.261   8.571  68.960  1.00  0.00    -0.204 N  
BRANCH   9  10
HETATM   10  CA  UNL     1     -10.236   9.946  69.542  1.00  0.00    -0.225 C  
HETATM   11  N   UNL     1     -10.621  11.709  68.516  1.00  0.00    -0.208 N  
HETATM   12  C   UNL     1     -11.454  10.859  69.155  1.00  0.00    -0.303 C  
HETATM   13  C   UNL     1      -9.384  11.035  68.838  1.00  0.00    -0.145 C  
HETATM   14  O   UNL     1     -12.653  10.749  69.228  1.00  0.00    -0.324 OA 
HETATM   15  S   UNL     1      -8.595  10.636  67.260  1.00  0.00    -0.126 SA 
HETATM   16  C   UNL     1      -8.433  12.377  66.819  1.00  0.00    -0.095 C  
HETATM   17  C   UNL     1      -9.682  13.219  66.951  1.00  0.00    -0.248 C  
HETATM   18  CA  UNL     1     -10.717  12.850  67.762  1.00  0.00    -0.224 C  
HETATM   19  O   UNL     1     -12.357  13.993  69.081  1.00  0.00    -0.313 OA 
HETATM   20  C   UNL     1     -12.004  13.752  67.896  1.00  0.00    -0.356 C  
HETATM   21  OXT UNL     1     -12.402  14.248  66.800  1.00  0.00    -0.429 OA 
BRANCH  17  22
HETATM   22  C   UNL     1      -9.608  14.571  66.240  1.00  0.00    -0.304 C  
BRANCH  22  23
HETATM   23  N   UNL     1      -9.233  15.873  67.041  1.00  0.00    -0.207 N  
HETATM   24  C   UNL     1      -7.928  16.563  66.690  1.00  0.00    -0.284 C  
HETATM   25  C   UNL     1     -10.414  16.832  66.957  1.00  0.00    -0.285 C  
HETATM   26  C   UNL     1      -6.877  15.635  67.254  1.00  0.00    -0.197 C  
HETATM   27  C   UNL     1      -7.441  15.331  68.630  1.00  0.00    -0.126 C  
HETATM   28  C   UNL     1      -8.966  15.473  68.512  1.00  0.00    -0.191 C  
ENDBRANCH  22  23
ENDBRANCH  17  22
ENDBRANCH   9  10
ENDBRANCH   5   6
BRANCH   5  29
HETATM   29  C   UNL     1      -8.560   6.319  67.230  1.00  0.00    -0.107 A  
HETATM   30  S   UNL     1      -6.799   6.733  65.434  1.00  0.00    -0.052 SA 
HETATM   31  C   UNL     1      -7.350   6.964  67.039  1.00  0.00    -0.086 A  
HETATM   32  H2  UNL     1      -7.706   5.394  63.155  1.00  0.00     0.000 HD 
HETATM   33  H1  UNL     1      -9.216   4.671  63.697  1.00  0.00     0.000 HD 
HETATM   34  C   UNL     1      -8.186   5.781  65.103  1.00  0.00    -0.140 A  
HETATM   35  N   UNL     1      -8.391   5.237  63.895  1.00  0.00    -0.131 NA 
HETATM   36  N   UNL     1      -9.013   5.625  66.106  1.00  0.00    -0.147 NA 
ENDBRANCH   5  29
ENDBRANCH   3   5
ENDBRANCH   2   3
TORSDOF 7
ENDMDL
MODEL       91
REMARK 921   NORMALIZED FREE ENERGY PREDICTED BY IDOCK:   -4.45 KCAL/MOL
REMARK 922        TOTAL FREE ENERGY PREDICTED BY IDOCK:   -7.39 KCAL/MOL
REMARK 923 INTER-LIGAND FREE ENERGY PREDICTED BY IDOCK:   -6.57 KCAL/MOL
REMARK 924 INTRA-LIGAND FREE ENERGY PREDICTED BY IDOCK:   -0.82 KCAL/MOL
REMARK 927      BINDING AFFINITY PREDICTED BY RF-SCORE:    0.00 PKD
ROOT
HETATM    1  C   UNL     1      -7.527   7.829  64.901  1.00  0.00    -0.094 C  
HETATM    2  O   UNL     1      -8.399   6.731  65.141  1.00  0.00    -0.136 OA 
ENDROOT
BRANCH   2   3
HETATM    3  N   UNL     1      -9.426   7.151  65.994  1.00  0.00    -0.397 NA 
HETATM    4  H   UNL     1     -10.260   7.645  65.677  1.00  0.00     0.000 HD 
BRANCH   3   5
HETATM    5  C   UNL     1      -9.197   6.839  67.242  1.00  0.00    -0.133 C  
BRANCH   5   6
HETATM    6  C   UNL     1      -9.218   7.853  68.409  1.00  0.00    -0.134 C  
HETATM    7  H   UNL     1     -10.903   8.775  67.603  1.00  0.00     0.000 HD 
HETATM    8  O   UNL     1      -8.397   7.810  69.315  1.00  0.00    -0.132 OA 
HETATM    9  N   UNL     1     -10.172   8.852  68.310  1.00  0.00    -0.195 N  
BRANCH   9  10
HETATM   10  CA  UNL     1     -10.154  10.040  69.213  1.00  0.00    -0.213 C  
HETATM   11  N   UNL     1     -10.476  12.010  68.640  1.00  0.00    -0.227 N  
HETATM   12  C   UNL     1     -11.344  11.047  69.020  1.00  0.00    -0.277 C  
HETATM   13  C   UNL     1      -9.262  11.251  68.830  1.00  0.00    -0.126 C  
HETATM   14  O   UNL     1     -12.546  10.948  69.020  1.00  0.00    -0.350 OA 
HETATM   15  S   UNL     1      -8.415  11.235  67.232  1.00  0.00    -0.149 SA 
HETATM   16  C   UNL     1      -8.215  13.027  67.239  1.00  0.00    -0.172 C  
HETATM   17  C   UNL     1      -9.458  13.837  67.530  1.00  0.00    -0.220 C  
HETATM   18  CA  UNL     1     -10.529  13.303  68.187  1.00  0.00    -0.245 C  
HETATM   19  O   UNL     1     -12.207  14.121  69.688  1.00  0.00    -0.326 OA 
HETATM   20  C   UNL     1     -11.809  14.171  68.493  1.00  0.00    -0.355 C  
HETATM   21  OXT UNL     1     -12.158  14.930  67.539  1.00  0.00    -0.246 OA 
BRANCH  17  22
HETATM   22  C   UNL     1      -9.340  15.320  67.177  1.00  0.00    -0.216 C  
BRANCH  22  23
HETATM   23  N   UNL     1      -9.087  16.390  68.304  1.00  0.00    -0.202 N  
HETATM   24  C   UNL     1     -10.198  17.383  68.593  1.00  0.00    -0.361 C  
HETATM   25  C   UNL     1      -8.653  15.652  69.563  1.00  0.00    -0.191 C  
HETATM   26  C   UNL     1     -10.170  18.301  67.394  1.00  0.00    -0.385 C  
HETATM   27  C   UNL     1      -8.683  18.569  67.244  1.00  0.00    -0.272 C  
HETATM   28  C   UNL     1      -7.964  17.340  67.821  1.00  0.00    -0.190 C  
ENDBRANCH  22  23
ENDBRANCH  17  22
ENDBRANCH   9  10
ENDBRANCH   5   6
BRANCH   5  29
HETATM   29  C   UNL     1      -8.923   5.422  67.504  1.00  0.00    -0.108 A  
HETATM   30  S   UNL     1      -9.146   2.902  67.808  1.00  0.00    -0.195 SA 
HETATM   31  C   UNL     1      -9.854   4.404  67.392  1.00  0.00    -0.143 A  
HETATM   32  H2  UNL     1      -6.628   2.007  68.625  1.00  0.00     0.000 HD 
HETATM   33  H1  UNL     1      -5.675   3.486  68.656  1.00  0.00     0.000 HD 
HETATM   34  C   UNL     1      -7.651   3.692  68.091  1.00  0.00    -0.061 A  
HETATM   35  N   UNL     1      -6.564   3.016  68.488  1.00  0.00    -0.036 NA 
HETATM   36  N   UNL     1      -7.653   4.986  67.887  1.00  0.00    -0.082 NA 
ENDBRANCH   5  29
ENDBRANCH   3   5
ENDBRANCH   2   3
TORSDOF 7
ENDMDL
MODEL       92
REMARK 921   NORMALIZED FREE ENERGY PREDICTED BY IDOCK:   -4.44 KCAL/MOL
REMARK 922        TOTAL FREE ENERGY PREDICTED BY IDOCK:   -7.37 KCAL/MOL
REMARK 923 INTER-LIGAND FREE ENERGY PREDICTED BY IDOCK:   -6.27 KCAL/MOL
REMARK 924 INTRA-LIGAND FREE ENERGY PREDICTED BY IDOCK:   -1.10 KCAL/MOL
REMARK 927      BINDING AFFINITY PREDICTED BY RF-SCORE:    0.00 PKD
ROOT
HETATM    1  C   UNL     1     -11.194   3.407  73.598  1.00  0.00    -0.182 C  
HETATM    2  O   UNL     1     -11.808   4.617  73.173  1.00  0.00    -0.227 OA 
ENDROOT
BRANCH   2   3
HETATM    3  N   UNL     1     -11.032   5.695  73.613  1.00  0.00    -0.424 NA 
HETATM    4  H   UNL     1     -11.192   6.188  74.491  1.00  0.00     0.000 HD 
BRANCH   3   5
HETATM    5  C   UNL     1     -10.079   5.999  72.773  1.00  0.00    -0.183 C  
BRANCH   5   6
HETATM    6  C   UNL     1     -10.272   6.114  71.243  1.00  0.00    -0.207 C  
HETATM    7  H   UNL     1     -10.060   8.183  71.353  1.00  0.00     0.000 HD 
HETATM    8  O   UNL     1     -10.441   5.128  70.539  1.00  0.00    -0.258 OA 
HETATM    9  N   UNL     1     -10.323   7.406  70.748  1.00  0.00    -0.202 N  
BRANCH   9  10
HETATM   10  CA  UNL     1     -10.755   7.687  69.346  1.00  0.00    -0.184 C  
HETATM   11  N   UNL     1      -9.985   9.167  68.110  1.00  0.00    -0.169 N  
HETATM   12  C   UNL     1      -9.588   7.892  68.314  1.00  0.00    -0.156 C  
HETATM   13  C   UNL     1     -11.147   9.140  68.968  1.00  0.00     0.093 C  
HETATM   14  O   UNL     1      -8.624   7.246  67.987  1.00  0.00    -0.125 OA 
HETATM   15  S   UNL     1     -10.908  10.451  70.190  1.00  0.00    -0.220 SA 
HETATM   16  C   UNL     1     -10.914  11.734  68.923  1.00  0.00    -0.239 C  
HETATM   17  C   UNL     1     -10.004  11.506  67.738  1.00  0.00    -0.195 C  
HETATM   18  CA  UNL     1      -9.564  10.259  67.395  1.00  0.00    -0.158 C  
HETATM   19  O   UNL     1      -9.002   9.135  65.356  1.00  0.00    -0.187 OA 
HETATM   20  C   UNL     1      -8.627  10.043  66.146  1.00  0.00    -0.133 C  
HETATM   21  OXT UNL     1      -7.724  10.924  66.020  1.00  0.00    -0.153 OA 
BRANCH  17  22
HETATM   22  C   UNL     1      -9.761  12.749  66.881  1.00  0.00    -0.234 C  
BRANCH  22  23
HETATM   23  N   UNL     1     -10.944  13.402  66.072  1.00  0.00    -0.272 N  
HETATM   24  C   UNL     1     -11.968  12.471  65.449  1.00  0.00    -0.437 C  
HETATM   25  C   UNL     1     -11.604  14.444  66.964  1.00  0.00    -0.384 C  
HETATM   26  C   UNL     1     -11.218  11.844  64.296  1.00  0.00    -0.424 C  
HETATM   27  C   UNL     1     -10.542  13.053  63.674  1.00  0.00    -0.024 C  
HETATM   28  C   UNL     1     -10.350  14.071  64.809  1.00  0.00    -0.380 C  
ENDBRANCH  22  23
ENDBRANCH  17  22
ENDBRANCH   9  10
ENDBRANCH   5   6
BRANCH   5  29
HETATM   29  C   UNL     1      -8.763   6.254  73.369  1.00  0.00    -0.125 A  
HETATM   30  S   UNL     1      -6.711   7.377  74.382  1.00  0.00    -0.097 SA 
HETATM   31  C   UNL     1      -8.301   7.500  73.758  1.00  0.00    -0.177 A  
HETATM   32  H2  UNL     1      -4.861   5.329  74.819  1.00  0.00     0.000 HD 
HETATM   33  H1  UNL     1      -5.718   3.897  74.261  1.00  0.00     0.000 HD 
HETATM   34  C   UNL     1      -6.746   5.683  74.116  1.00  0.00    -0.080 A  
HETATM   35  N   UNL     1      -5.698   4.904  74.420  1.00  0.00    -0.028 NA 
HETATM   36  N   UNL     1      -7.858   5.218  73.605  1.00  0.00    -0.102 NA 
ENDBRANCH   5  29
ENDBRANCH   3   5
ENDBRANCH   2   3
TORSDOF 7
ENDMDL
MODEL       93
REMARK 921   NORMALIZED FREE ENERGY PREDICTED BY IDOCK:   -4.44 KCAL/MOL
REMARK 922        TOTAL FREE ENERGY PREDICTED BY IDOCK:   -7.37 KCAL/MOL
REMARK 923 INTER-LIGAND FREE ENERGY PREDICTED BY IDOCK:   -7.84 KCAL/MOL
REMARK 924 INTRA-LIGAND FREE ENERGY PREDICTED BY IDOCK:    0.47 KCAL/MOL
REMARK 927      BINDING AFFINITY PREDICTED BY RF-SCORE:    0.00 PKD
ROOT
HETATM    1  C   UNL     1     -12.479  14.186  71.175  1.00  0.00    -0.371 C  
HETATM    2  O   UNL     1     -12.327  13.234  70.129  1.00  0.00    -0.301 OA 
ENDROOT
BRANCH   2   3
HETATM    3  N   UNL     1     -12.409  13.898  68.900  1.00  0.00    -0.454 NA 
HETATM    4  H   UNL     1     -12.944  14.753  68.753  1.00  0.00     0.000 HD 
BRANCH   3   5
HETATM    5  C   UNL     1     -11.724  13.299  67.962  1.00  0.00    -0.359 C  
BRANCH   5   6
HETATM    6  C   UNL     1     -10.994  11.949  68.147  1.00  0.00    -0.227 C  
HETATM    7  H   UNL     1      -9.297  12.940  68.835  1.00  0.00     0.000 HD 
HETATM    8  O   UNL     1     -11.539  10.882  67.898  1.00  0.00    -0.497 OA 
HETATM    9  N   UNL     1      -9.666  12.041  68.528  1.00  0.00    -0.193 N  
BRANCH   9  10
HETATM   10  CA  UNL     1      -8.762  10.853  68.500  1.00  0.00    -0.153 C  
HETATM   11  N   UNL     1      -9.364   8.865  68.524  1.00  0.00    -0.140 N  
HETATM   12  C   UNL     1      -9.178   9.719  67.494  1.00  0.00    -0.130 C  
HETATM   13  C   UNL     1      -8.945   9.755  69.582  1.00  0.00    -0.215 C  
HETATM   14  O   UNL     1      -9.419   9.681  66.313  1.00  0.00    -0.170 OA 
HETATM   15  S   UNL     1     -10.341   9.884  70.724  1.00  0.00     0.018 SA 
HETATM   16  C   UNL     1     -10.272   8.127  71.121  1.00  0.00    -0.195 C  
HETATM   17  C   UNL     1     -10.225   7.178  69.945  1.00  0.00    -0.215 C  
HETATM   18  CA  UNL     1      -9.802   7.579  68.710  1.00  0.00    -0.166 C  
HETATM   19  O   UNL     1      -8.657   6.560  66.870  1.00  0.00    -0.112 OA 
HETATM   20  C   UNL     1      -9.748   6.568  67.502  1.00  0.00    -0.122 C  
HETATM   21  OXT UNL     1     -10.742   5.785  67.439  1.00  0.00    -0.255 OA 
BRANCH  17  22
HETATM   22  C   UNL     1     -10.530   5.721  70.299  1.00  0.00    -0.280 C  
BRANCH  22  23
HETATM   23  N   UNL     1      -9.505   4.875  71.143  1.00  0.00    -0.149 N  
HETATM   24  C   UNL     1      -8.067   5.358  71.192  1.00  0.00    -0.111 C  
HETATM   25  C   UNL     1     -10.084   4.696  72.541  1.00  0.00    -0.174 C  
HETATM   26  C   UNL     1      -7.543   5.042  69.811  1.00  0.00    -0.060 C  
HETATM   27  C   UNL     1      -8.055   3.629  69.602  1.00  0.00    -0.063 C  
HETATM   28  C   UNL     1      -9.329   3.503  70.451  1.00  0.00    -0.169 C  
ENDBRANCH  22  23
ENDBRANCH  17  22
ENDBRANCH   9  10
ENDBRANCH   5   6
BRANCH   5  29
HETATM   29  C   UNL     1     -11.689  13.983  66.665  1.00  0.00    -0.399 A  
HETATM   30  S   UNL     1     -11.288  15.671  64.799  1.00  0.00    -0.264 SA 
HETATM   31  C   UNL     1     -11.084  15.206  66.434  1.00  0.00    -0.312 A  
HETATM   32  H2  UNL     1     -12.498  14.593  62.523  1.00  0.00     0.000 HD 
HETATM   33  H1  UNL     1     -13.148  13.066  63.107  1.00  0.00     0.000 HD 
HETATM   34  C   UNL     1     -12.146  14.217  64.499  1.00  0.00    -0.480 A  
HETATM   35  N   UNL     1     -12.637  13.930  63.286  1.00  0.00    -0.697 NA 
HETATM   36  N   UNL     1     -12.277  13.420  65.530  1.00  0.00    -0.427 NA 
ENDBRANCH   5  29
ENDBRANCH   3   5
ENDBRANCH   2   3
TORSDOF 7
ENDMDL
MODEL       94
REMARK 921   NORMALIZED FREE ENERGY PREDICTED BY IDOCK:   -4.43 KCAL/MOL
REMARK 922        TOTAL FREE ENERGY PREDICTED BY IDOCK:   -7.36 KCAL/MOL
REMARK 923 INTER-LIGAND FREE ENERGY PREDICTED BY IDOCK:   -6.36 KCAL/MOL
REMARK 924 INTRA-LIGAND FREE ENERGY PREDICTED BY IDOCK:   -1.00 KCAL/MOL
REMARK 927      BINDING AFFINITY PREDICTED BY RF-SCORE:    0.00 PKD
ROOT
HETATM    1  C   UNL     1     -11.556  14.558  67.369  1.00  0.00    -0.385 C  
HETATM    2  O   UNL     1     -11.957  13.590  68.331  1.00  0.00    -0.354 OA 
ENDROOT
BRANCH   2   3
HETATM    3  N   UNL     1     -10.815  13.078  68.958  1.00  0.00    -0.398 NA 
HETATM    4  H   UNL     1     -10.106  13.659  69.407  1.00  0.00     0.000 HD 
BRANCH   3   5
HETATM    5  C   UNL     1     -10.757  11.774  68.903  1.00  0.00    -0.205 C  
BRANCH   5   6
HETATM    6  C   UNL     1     -11.349  10.832  69.975  1.00  0.00    -0.319 C  
HETATM    7  H   UNL     1      -9.435  10.223  70.524  1.00  0.00     0.000 HD 
HETATM    8  O   UNL     1     -12.555  10.751  70.167  1.00  0.00    -0.327 OA 
HETATM    9  N   UNL     1     -10.430  10.034  70.635  1.00  0.00    -0.228 N  
BRANCH   9  10
HETATM   10  CA  UNL     1     -10.865   8.902  71.506  1.00  0.00    -0.326 C  
HETATM   11  N   UNL     1      -9.909   7.066  71.683  1.00  0.00    -0.164 N  
HETATM   12  C   UNL     1      -9.722   8.228  72.348  1.00  0.00    -0.303 C  
HETATM   13  C   UNL     1     -11.024   7.494  70.871  1.00  0.00    -0.253 C  
HETATM   14  O   UNL     1      -8.891   8.630  73.124  1.00  0.00    -0.343 OA 
HETATM   15  S   UNL     1     -10.523   7.257  69.150  1.00  0.00    -0.211 SA 
HETATM   16  C   UNL     1     -10.366   5.473  69.366  1.00  0.00    -0.278 C  
HETATM   17  C   UNL     1      -9.553   5.014  70.556  1.00  0.00    -0.252 C  
HETATM   18  CA  UNL     1      -9.341   5.819  71.638  1.00  0.00    -0.146 C  
HETATM   19  O   UNL     1      -9.054   5.491  73.994  1.00  0.00    -0.125 OA 
HETATM   20  C   UNL     1      -8.503   5.314  72.874  1.00  0.00    -0.116 C  
HETATM   21  OXT UNL     1      -7.472   4.646  72.560  1.00  0.00    -0.080 OA 
BRANCH  17  22
HETATM   22  C   UNL     1      -9.142   3.542  70.507  1.00  0.00    -0.122 C  
BRANCH  22  23
HETATM   23  N   UNL     1      -8.294   2.991  69.300  1.00  0.00    -0.058 N  
HETATM   24  C   UNL     1      -7.382   1.807  69.565  1.00  0.00    -0.039 C  
HETATM   25  C   UNL     1      -9.246   2.718  68.144  1.00  0.00    -0.202 C  
HETATM   26  C   UNL     1      -6.260   2.402  70.382  1.00  0.00    -0.024 C  
HETATM   27  C   UNL     1      -5.954   3.672  69.607  1.00  0.00    -0.023 C  
HETATM   28  C   UNL     1      -7.261   4.073  68.905  1.00  0.00    -0.054 C  
ENDBRANCH  22  23
ENDBRANCH  17  22
ENDBRANCH   9  10
ENDBRANCH   5   6
BRANCH   5  29
HETATM   29  C   UNL     1     -10.091  11.217  67.720  1.00  0.00    -0.179 A  
HETATM   30  S   UNL     1      -9.613  10.184  65.440  1.00  0.00    -0.285 SA 
HETATM   31  C   UNL     1     -10.742  10.792  66.575  1.00  0.00    -0.181 A  
HETATM   32  H2  UNL     1      -6.840   9.857  65.318  1.00  0.00     0.000 HD 
HETATM   33  H1  UNL     1      -6.300  10.489  66.869  1.00  0.00     0.000 HD 
HETATM   34  C   UNL     1      -8.337  10.540  66.529  1.00  0.00    -0.141 A  
HETATM   35  N   UNL     1      -7.059  10.278  66.221  1.00  0.00    -0.110 NA 
HETATM   36  N   UNL     1      -8.702  11.083  67.664  1.00  0.00    -0.127 NA 
ENDBRANCH   5  29
ENDBRANCH   3   5
ENDBRANCH   2   3
TORSDOF 7
ENDMDL
MODEL       95
REMARK 921   NORMALIZED FREE ENERGY PREDICTED BY IDOCK:   -4.43 KCAL/MOL
REMARK 922        TOTAL FREE ENERGY PREDICTED BY IDOCK:   -7.35 KCAL/MOL
REMARK 923 INTER-LIGAND FREE ENERGY PREDICTED BY IDOCK:   -8.30 KCAL/MOL
REMARK 924 INTRA-LIGAND FREE ENERGY PREDICTED BY IDOCK:    0.95 KCAL/MOL
REMARK 927      BINDING AFFINITY PREDICTED BY RF-SCORE:    0.00 PKD
ROOT
HETATM    1  C   UNL     1      -7.476   8.289  69.899  1.00  0.00    -0.065 C  
HETATM    2  O   UNL     1      -8.533   9.157  70.290  1.00  0.00    -0.150 OA 
ENDROOT
BRANCH   2   3
HETATM    3  N   UNL     1      -9.349   9.401  69.180  1.00  0.00    -0.155 NA 
HETATM    4  H   UNL     1      -9.192   8.991  68.260  1.00  0.00     0.000 HD 
BRANCH   3   5
HETATM    5  C   UNL     1     -10.335  10.213  69.455  1.00  0.00    -0.232 C  
BRANCH   5   6
HETATM    6  C   UNL     1     -10.507  11.615  68.829  1.00  0.00    -0.204 C  
HETATM    7  H   UNL     1     -12.570  11.501  69.092  1.00  0.00     0.000 HD 
HETATM    8  O   UNL     1      -9.548  12.274  68.449  1.00  0.00    -0.213 OA 
HETATM    9  N   UNL     1     -11.816  12.030  68.654  1.00  0.00    -0.322 N  
BRANCH   9  10
HETATM   10  CA  UNL     1     -12.150  13.235  67.839  1.00  0.00    -0.228 C  
HETATM   11  N   UNL     1     -10.856  14.795  67.386  1.00  0.00    -0.292 N  
HETATM   12  C   UNL     1     -11.086  13.624  66.751  1.00  0.00    -0.307 C  
HETATM   13  C   UNL     1     -11.844  14.638  68.428  1.00  0.00    -0.295 C  
HETATM   14  O   UNL     1     -10.552  13.041  65.840  1.00  0.00    -0.268 OA 
HETATM   15  S   UNL     1     -10.952  14.746  69.997  1.00  0.00    -0.101 SA 
HETATM   16  C   UNL     1     -10.436  16.443  69.670  1.00  0.00    -0.278 C  
HETATM   17  C   UNL     1      -9.808  16.702  68.320  1.00  0.00    -0.253 C  
HETATM   18  CA  UNL     1     -10.019  15.873  67.255  1.00  0.00    -0.240 C  
HETATM   19  O   UNL     1     -10.165  16.132  64.878  1.00  0.00    -0.502 OA 
HETATM   20  C   UNL     1      -9.365  16.171  65.852  1.00  0.00    -0.281 C  
HETATM   21  OXT UNL     1      -8.166  16.576  65.917  1.00  0.00    -0.345 OA 
BRANCH  17  22
HETATM   22  C   UNL     1      -9.067  18.036  68.215  1.00  0.00    -0.278 C  
BRANCH  22  23
HETATM   23  N   UNL     1      -9.869  19.385  68.089  1.00  0.00    -0.366 N  
HETATM   24  C   UNL     1     -11.121  19.381  67.231  1.00  0.00    -0.181 C  
HETATM   25  C   UNL     1     -10.155  19.894  69.495  1.00  0.00     0.004 C  
HETATM   26  C   UNL     1     -10.582  19.301  65.822  1.00  0.00    -0.450 C  
HETATM   27  C   UNL     1      -9.468  20.332  65.859  1.00  0.00    -0.188 C  
HETATM   28  C   UNL     1      -8.989  20.397  67.317  1.00  0.00    -0.343 C  
ENDBRANCH  22  23
ENDBRANCH  17  22
ENDBRANCH   9  10
ENDBRANCH   5   6
BRANCH   5  29
HETATM   29  C   UNL     1     -11.326   9.708  70.412  1.00  0.00    -0.277 A  
HETATM   30  S   UNL     1     -13.060   9.524  72.271  1.00  0.00    -0.361 SA 
HETATM   31  C   UNL     1     -12.022  10.494  71.315  1.00  0.00    -0.289 A  
HETATM   32  H2  UNL     1     -13.700   6.809  72.449  1.00  0.00     0.000 HD 
HETATM   33  H1  UNL     1     -12.698   6.085  71.196  1.00  0.00     0.000 HD 
HETATM   34  C   UNL     1     -12.536   8.133  71.416  1.00  0.00    -0.292 A  
HETATM   35  N   UNL     1     -13.010   6.912  71.704  1.00  0.00    -0.356 NA 
HETATM   36  N   UNL     1     -11.654   8.352  70.473  1.00  0.00    -0.191 NA 
ENDBRANCH   5  29
ENDBRANCH   3   5
ENDBRANCH   2   3
TORSDOF 7
ENDMDL
MODEL       96
REMARK 921   NORMALIZED FREE ENERGY PREDICTED BY IDOCK:   -4.42 KCAL/MOL
REMARK 922        TOTAL FREE ENERGY PREDICTED BY IDOCK:   -7.35 KCAL/MOL
REMARK 923 INTER-LIGAND FREE ENERGY PREDICTED BY IDOCK:   -6.52 KCAL/MOL
REMARK 924 INTRA-LIGAND FREE ENERGY PREDICTED BY IDOCK:   -0.82 KCAL/MOL
REMARK 927      BINDING AFFINITY PREDICTED BY RF-SCORE:    0.00 PKD
ROOT
HETATM    1  C   UNL     1     -11.584   5.316  72.839  1.00  0.00    -0.219 C  
HETATM    2  O   UNL     1     -12.248   6.520  72.476  1.00  0.00    -0.111 OA 
ENDROOT
BRANCH   2   3
HETATM    3  N   UNL     1     -11.508   7.605  72.959  1.00  0.00    -0.609 NA 
HETATM    4  H   UNL     1     -11.645   8.018  73.882  1.00  0.00     0.000 HD 
BRANCH   3   5
HETATM    5  C   UNL     1     -10.623   8.030  72.098  1.00  0.00    -0.272 C  
BRANCH   5   6
HETATM    6  C   UNL     1     -10.945   8.401  70.632  1.00  0.00    -0.243 C  
HETATM    7  H   UNL     1     -11.216  10.393  71.177  1.00  0.00     0.000 HD 
HETATM    8  O   UNL     1     -10.927   7.566  69.737  1.00  0.00    -0.244 OA 
HETATM    9  N   UNL     1     -11.332   9.714  70.424  1.00  0.00    -0.264 N  
BRANCH   9  10
HETATM   10  CA  UNL     1     -11.916  10.159  69.124  1.00  0.00     0.237 C  
HETATM   11  N   UNL     1     -11.214  11.718  67.945  1.00  0.00    -0.246 N  
HETATM   12  C   UNL     1     -10.875  10.410  67.974  1.00  0.00    -0.270 C  
HETATM   13  C   UNL     1     -12.260  11.661  68.940  1.00  0.00    -0.050 C  
HETATM   14  O   UNL     1     -10.001   9.754  67.464  1.00  0.00    -0.166 OA 
HETATM   15  S   UNL     1     -11.790  12.826  70.241  1.00  0.00    -0.114 SA 
HETATM   16  C   UNL     1     -11.873  14.230  69.114  1.00  0.00    -0.330 C  
HETATM   17  C   UNL     1     -11.132  14.080  67.804  1.00  0.00    -0.284 C  
HETATM   18  CA  UNL     1     -10.817  12.855  67.290  1.00  0.00    -0.255 C  
HETATM   19  O   UNL     1     -10.583  11.920  65.097  1.00  0.00    -0.267 OA 
HETATM   20  C   UNL     1     -10.057  12.722  65.915  1.00  0.00    -0.276 C  
HETATM   21  OXT UNL     1      -9.124  13.565  65.758  1.00  0.00     0.192 OA 
BRANCH  17  22
HETATM   22  C   UNL     1     -10.921  15.391  67.046  1.00  0.00    -0.306 C  
BRANCH  22  23
HETATM   23  N   UNL     1     -10.041  16.539  67.669  1.00  0.00    -0.259 N  
HETATM   24  C   UNL     1      -9.367  17.506  66.713  1.00  0.00    -0.265 C  
HETATM   25  C   UNL     1     -10.888  17.272  68.701  1.00  0.00    -0.199 C  
HETATM   26  C   UNL     1      -8.263  16.679  66.097  1.00  0.00    -0.295 C  
HETATM   27  C   UNL     1      -7.672  15.994  67.316  1.00  0.00    -0.215 C  
HETATM   28  C   UNL     1      -8.810  15.889  68.344  1.00  0.00    -0.184 C  
ENDBRANCH  22  23
ENDBRANCH  17  22
ENDBRANCH   9  10
ENDBRANCH   5   6
BRANCH   5  29
HETATM   29  C   UNL     1      -9.253   8.160  72.605  1.00  0.00    -0.263 A  
HETATM   30  S   UNL     1      -7.177   8.125  74.084  1.00  0.00    -0.174 SA 
HETATM   31  C   UNL     1      -8.842   7.786  73.873  1.00  0.00    -0.272 A  
HETATM   32  H2  UNL     1      -5.120   9.210  72.534  1.00  0.00     0.000 HD 
HETATM   33  H1  UNL     1      -5.920   9.563  71.007  1.00  0.00     0.000 HD 
HETATM   34  C   UNL     1      -7.104   8.727  72.480  1.00  0.00     0.109 A  
HETATM   35  N   UNL     1      -5.964   9.204  71.961  1.00  0.00    -0.164 NA 
HETATM   36  N   UNL     1      -8.229   8.681  71.811  1.00  0.00    -0.246 NA 
ENDBRANCH   5  29
ENDBRANCH   3   5
ENDBRANCH   2   3
TORSDOF 7
ENDMDL
MODEL       97
REMARK 921   NORMALIZED FREE ENERGY PREDICTED BY IDOCK:   -4.37 KCAL/MOL
REMARK 922        TOTAL FREE ENERGY PREDICTED BY IDOCK:   -7.28 KCAL/MOL
REMARK 923 INTER-LIGAND FREE ENERGY PREDICTED BY IDOCK:   -6.75 KCAL/MOL
REMARK 924 INTRA-LIGAND FREE ENERGY PREDICTED BY IDOCK:   -0.53 KCAL/MOL
REMARK 927      BINDING AFFINITY PREDICTED BY RF-SCORE:    0.00 PKD
ROOT
HETATM    1  C   UNL     1     -12.200  14.689  70.465  1.00  0.00    -0.324 C  
HETATM    2  O   UNL     1     -11.487  13.567  69.959  1.00  0.00    -0.193 OA 
ENDROOT
BRANCH   2   3
HETATM    3  N   UNL     1     -12.141  12.398  70.363  1.00  0.00    -0.449 NA 
HETATM    4  H   UNL     1     -12.925  12.384  71.016  1.00  0.00     0.000 HD 
BRANCH   3   5
HETATM    5  C   UNL     1     -11.636  11.327  69.811  1.00  0.00    -0.333 C  
BRANCH   5   6
HETATM    6  C   UNL     1     -11.572   9.943  70.497  1.00  0.00    -0.309 C  
HETATM    7  H   UNL     1     -10.555   9.157  68.858  1.00  0.00     0.000 HD 
HETATM    8  O   UNL     1     -12.036   9.755  71.614  1.00  0.00    -0.383 OA 
HETATM    9  N   UNL     1     -11.032   8.926  69.729  1.00  0.00    -0.202 N  
BRANCH   9  10
HETATM   10  CA  UNL     1     -11.133   7.496  70.147  1.00  0.00    -0.231 C  
HETATM   11  N   UNL     1      -9.893   5.954  69.515  1.00  0.00    -0.161 N  
HETATM   12  C   UNL     1      -9.773   6.818  70.547  1.00  0.00    -0.176 C  
HETATM   13  C   UNL     1     -11.184   6.403  69.047  1.00  0.00    -0.331 C  
HETATM   14  O   UNL     1      -8.892   7.081  71.327  1.00  0.00    -0.133 OA 
HETATM   15  S   UNL     1     -10.957   6.895  67.321  1.00  0.00    -0.291 SA 
HETATM   16  C   UNL     1     -10.496   5.222  66.829  1.00  0.00    -0.273 C  
HETATM   17  C   UNL     1      -9.430   4.550  67.665  1.00  0.00    -0.196 C  
HETATM   18  CA  UNL     1      -9.159   4.947  68.943  1.00  0.00    -0.112 C  
HETATM   19  O   UNL     1      -8.424   3.876  70.956  1.00  0.00    -0.070 OA 
HETATM   20  C   UNL     1      -8.053   4.221  69.802  1.00  0.00    -0.059 C  
HETATM   21  OXT UNL     1      -7.003   3.934  69.153  1.00  0.00    -0.045 OA 
BRANCH  17  22
HETATM   22  C   UNL     1      -8.815   3.307  67.021  1.00  0.00    -0.138 C  
BRANCH  22  23
HETATM   23  N   UNL     1      -8.144   3.396  65.599  1.00  0.00    -0.092 N  
HETATM   24  C   UNL     1      -6.963   2.485  65.321  1.00  0.00    -0.052 C  
HETATM   25  C   UNL     1      -9.238   3.230  64.553  1.00  0.00    -0.138 C  
HETATM   26  C   UNL     1      -5.849   3.095  66.139  1.00  0.00    -0.023 C  
HETATM   27  C   UNL     1      -5.998   4.570  65.814  1.00  0.00    -0.023 C  
HETATM   28  C   UNL     1      -7.479   4.787  65.467  1.00  0.00    -0.081 C  
ENDBRANCH  22  23
ENDBRANCH  17  22
ENDBRANCH   9  10
ENDBRANCH   5   6
BRANCH   5  29
HETATM   29  C   UNL     1     -11.125  11.496  68.447  1.00  0.00    -0.235 A  
HETATM   30  S   UNL     1      -9.606  11.704  66.410  1.00  0.00    -0.223 SA 
HETATM   31  C   UNL     1      -9.789  11.425  68.090  1.00  0.00    -0.191 A  
HETATM   32  H2  UNL     1     -11.297  12.238  64.250  1.00  0.00     0.000 HD 
HETATM   33  H1  UNL     1     -12.893  12.247  64.991  1.00  0.00     0.000 HD 
HETATM   34  C   UNL     1     -11.305  11.880  66.262  1.00  0.00    -0.334 A  
HETATM   35  N   UNL     1     -11.882  12.142  65.080  1.00  0.00    -0.337 NA 
HETATM   36  N   UNL     1     -11.984  11.738  67.372  1.00  0.00    -0.612 NA 
ENDBRANCH   5  29
ENDBRANCH   3   5
ENDBRANCH   2   3
TORSDOF 7
ENDMDL
MODEL       98
REMARK 921   NORMALIZED FREE ENERGY PREDICTED BY IDOCK:   -4.34 KCAL/MOL
REMARK 922        TOTAL FREE ENERGY PREDICTED BY IDOCK:   -7.24 KCAL/MOL
REMARK 923 INTER-LIGAND FREE ENERGY PREDICTED BY IDOCK:   -6.95 KCAL/MOL
REMARK 924 INTRA-LIGAND FREE ENERGY PREDICTED BY IDOCK:   -0.29 KCAL/MOL
REMARK 927      BINDING AFFINITY PREDICTED BY RF-SCORE:    0.00 PKD
ROOT
HETATM    1  C   UNL     1      -9.160  17.025  65.958  1.00  0.00    -0.137 C  
HETATM    2  O   UNL     1      -9.552  15.675  65.739  1.00  0.00    -0.332 OA 
ENDROOT
BRANCH   2   3
HETATM    3  N   UNL     1      -8.750  14.840  66.524  1.00  0.00    -0.452 NA 
HETATM    4  H   UNL     1      -7.735  14.925  66.587  1.00  0.00     0.000 HD 
BRANCH   3   5
HETATM    5  C   UNL     1      -9.444  13.939  67.166  1.00  0.00    -0.246 C  
BRANCH   5   6
HETATM    6  C   UNL     1      -9.528  12.451  66.756  1.00  0.00    -0.228 C  
HETATM    7  H   UNL     1      -8.686  11.883  68.574  1.00  0.00     0.000 HD 
HETATM    8  O   UNL     1     -10.001  12.104  65.681  1.00  0.00    -0.244 OA 
HETATM    9  N   UNL     1      -8.958  11.557  67.646  1.00  0.00    -0.156 N  
BRANCH   9  10
HETATM   10  CA  UNL     1      -8.732  10.128  67.280  1.00  0.00    -0.129 C  
HETATM   11  N   UNL     1      -9.344   8.478  68.384  1.00  0.00    -0.135 N  
HETATM   12  C   UNL     1      -9.985   9.192  67.432  1.00  0.00    -0.206 C  
HETATM   13  C   UNL     1      -8.086   9.186  68.331  1.00  0.00    -0.104 C  
HETATM   14  O   UNL     1     -11.117   9.217  67.016  1.00  0.00     0.037 OA 
HETATM   15  S   UNL     1      -7.786   9.819  69.998  1.00  0.00    -0.183 SA 
HETATM   16  C   UNL     1      -7.708   8.157  70.693  1.00  0.00    -0.085 C  
HETATM   17  C   UNL     1      -8.845   7.228  70.332  1.00  0.00    -0.150 C  
HETATM   18  CA  UNL     1      -9.619   7.431  69.225  1.00  0.00    -0.154 C  
HETATM   19  O   UNL     1     -10.788   6.038  67.666  1.00  0.00    -0.281 OA 
HETATM   20  C   UNL     1     -10.790   6.441  68.860  1.00  0.00    -0.325 C  
HETATM   21  OXT UNL     1     -11.469   6.054  69.858  1.00  0.00    -0.388 OA 
BRANCH  17  22
HETATM   22  C   UNL     1      -8.940   5.978  71.208  1.00  0.00    -0.136 C  
BRANCH  22  23
HETATM   23  N   UNL     1      -9.721   6.019  72.574  1.00  0.00    -0.157 N  
HETATM   24  C   UNL     1     -10.442   7.305  72.933  1.00  0.00    -0.282 C  
HETATM   25  C   UNL     1     -10.660   4.820  72.614  1.00  0.00    -0.211 C  
HETATM   26  C   UNL     1      -9.318   8.252  73.282  1.00  0.00    -0.244 C  
HETATM   27  C   UNL     1      -8.445   7.382  74.169  1.00  0.00    -0.242 C  
HETATM   28  C   UNL     1      -8.687   5.933  73.722  1.00  0.00    -0.124 C  
ENDBRANCH  22  23
ENDBRANCH  17  22
ENDBRANCH   9  10
ENDBRANCH   5   6
BRANCH   5  29
HETATM   29  C   UNL     1     -10.160  14.416  68.354  1.00  0.00    -0.244 A  
HETATM   30  S   UNL     1     -10.853  15.704  70.441  1.00  0.00    -0.320 SA 
HETATM   31  C   UNL     1      -9.765  15.487  69.137  1.00  0.00    -0.252 A  
HETATM   32  H2  UNL     1     -13.188  14.472  71.357  1.00  0.00     0.000 HD 
HETATM   33  H1  UNL     1     -13.447  13.192  70.178  1.00  0.00     0.000 HD 
HETATM   34  C   UNL     1     -11.785  14.381  69.875  1.00  0.00    -0.303 A  
HETATM   35  N   UNL     1     -12.893  13.979  70.514  1.00  0.00    -0.275 NA 
HETATM   36  N   UNL     1     -11.340  13.806  68.786  1.00  0.00    -0.264 NA 
ENDBRANCH   5  29
ENDBRANCH   3   5
ENDBRANCH   2   3
TORSDOF 7
ENDMDL
MODEL       99
REMARK 921   NORMALIZED FREE ENERGY PREDICTED BY IDOCK:   -4.34 KCAL/MOL
REMARK 922        TOTAL FREE ENERGY PREDICTED BY IDOCK:   -7.24 KCAL/MOL
REMARK 923 INTER-LIGAND FREE ENERGY PREDICTED BY IDOCK:   -6.13 KCAL/MOL
REMARK 924 INTRA-LIGAND FREE ENERGY PREDICTED BY IDOCK:   -1.11 KCAL/MOL
REMARK 927      BINDING AFFINITY PREDICTED BY RF-SCORE:    0.00 PKD
ROOT
HETATM    1  C   UNL     1     -11.557   8.429  71.037  1.00  0.00    -0.275 C  
HETATM    2  O   UNL     1     -11.081   7.293  71.748  1.00  0.00    -0.230 OA 
ENDROOT
BRANCH   2   3
HETATM    3  N   UNL     1     -11.075   6.192  70.884  1.00  0.00    -0.301 NA 
HETATM    4  H   UNL     1     -11.916   5.790  70.472  1.00  0.00     0.000 HD 
BRANCH   3   5
HETATM    5  C   UNL     1      -9.870   5.736  70.666  1.00  0.00    -0.187 C  
BRANCH   5   6
HETATM    6  C   UNL     1      -9.007   6.112  69.440  1.00  0.00    -0.128 C  
HETATM    7  H   UNL     1      -8.359   7.841  70.404  1.00  0.00     0.000 HD 
HETATM    8  O   UNL     1      -8.951   5.399  68.447  1.00  0.00    -0.108 OA 
HETATM    9  N   UNL     1      -8.377   7.343  69.515  1.00  0.00    -0.131 N  
BRANCH   9  10
HETATM   10  CA  UNL     1      -7.722   7.957  68.322  1.00  0.00    -0.121 C  
HETATM   11  N   UNL     1      -7.916   9.933  67.711  1.00  0.00    -0.105 N  
HETATM   12  C   UNL     1      -7.050   9.355  68.573  1.00  0.00    -0.071 C  
HETATM   13  C   UNL     1      -8.606   8.730  67.306  1.00  0.00    -0.121 C  
HETATM   14  O   UNL     1      -6.233   9.775  69.354  1.00  0.00    -0.043 OA 
HETATM   15  S   UNL     1     -10.353   8.989  67.695  1.00  0.00    -0.261 SA 
HETATM   16  C   UNL     1     -10.477  10.373  66.546  1.00  0.00    -0.196 C  
HETATM   17  C   UNL     1      -9.415  11.442  66.671  1.00  0.00    -0.206 C  
HETATM   18  CA  UNL     1      -8.207  11.193  67.256  1.00  0.00    -0.136 C  
HETATM   19  O   UNL     1      -5.962  11.977  66.964  1.00  0.00    -0.148 OA 
HETATM   20  C   UNL     1      -7.108  12.319  67.362  1.00  0.00    -0.151 C  
HETATM   21  OXT UNL     1      -7.567  13.460  67.669  1.00  0.00    -0.144 OA 
BRANCH  17  22
HETATM   22  C   UNL     1      -9.749  12.748  65.949  1.00  0.00    -0.198 C  
BRANCH  22  23
HETATM   23  N   UNL     1     -10.881  13.695  66.497  1.00  0.00    -0.282 N  
HETATM   24  C   UNL     1     -12.250  13.602  65.848  1.00  0.00    -0.461 C  
HETATM   25  C   UNL     1     -10.962  13.505  68.006  1.00  0.00    -0.251 C  
HETATM   26  C   UNL     1     -12.044  14.247  64.498  1.00  0.00    -0.499 C  
HETATM   27  C   UNL     1     -11.259  15.493  64.868  1.00  0.00    -0.396 C  
HETATM   28  C   UNL     1     -10.495  15.154  66.156  1.00  0.00    -0.312 C  
ENDBRANCH  22  23
ENDBRANCH  17  22
ENDBRANCH   9  10
ENDBRANCH   5   6
BRANCH   5  29
HETATM   29  C   UNL     1      -9.341   4.823  71.685  1.00  0.00    -0.145 A  
HETATM   30  S   UNL     1      -8.956   2.821  73.215  1.00  0.00    -0.082 SA 
HETATM   31  C   UNL     1      -9.824   3.549  71.931  1.00  0.00    -0.167 A  
HETATM   32  H2  UNL     1      -6.841   3.542  74.894  1.00  0.00     0.000 HD 
HETATM   33  H1  UNL     1      -6.436   5.163  74.344  1.00  0.00     0.000 HD 
HETATM   34  C   UNL     1      -7.988   4.230  73.349  1.00  0.00    -0.090 A  
HETATM   35  N   UNL     1      -7.012   4.325  74.264  1.00  0.00    -0.067 NA 
HETATM   36  N   UNL     1      -8.268   5.187  72.501  1.00  0.00    -0.116 NA 
ENDBRANCH   5  29
ENDBRANCH   3   5
ENDBRANCH   2   3
TORSDOF 7
ENDMDL
MODEL      100
REMARK 921   NORMALIZED FREE ENERGY PREDICTED BY IDOCK:   -4.29 KCAL/MOL
REMARK 922        TOTAL FREE ENERGY PREDICTED BY IDOCK:   -7.17 KCAL/MOL
REMARK 923 INTER-LIGAND FREE ENERGY PREDICTED BY IDOCK:   -6.39 KCAL/MOL
REMARK 924 INTRA-LIGAND FREE ENERGY PREDICTED BY IDOCK:   -0.78 KCAL/MOL
REMARK 927      BINDING AFFINITY PREDICTED BY RF-SCORE:    0.00 PKD
ROOT
HETATM    1  C   UNL     1     -11.060  19.820  67.011  1.00  0.00    -0.070 C  
HETATM    2  O   UNL     1     -10.530  19.468  65.739  1.00  0.00    -0.486 OA 
ENDROOT
BRANCH   2   3
HETATM    3  N   UNL     1     -10.205  18.107  65.747  1.00  0.00    -0.597 NA 
HETATM    4  H   UNL     1     -10.630  17.419  65.126  1.00  0.00     0.000 HD 
BRANCH   3   5
HETATM    5  C   UNL     1      -9.297  17.816  66.640  1.00  0.00    -0.287 C  
BRANCH   5   6
HETATM    6  C   UNL     1      -9.506  16.814  67.798  1.00  0.00    -0.228 C  
HETATM    7  H   UNL     1      -7.675  15.915  67.376  1.00  0.00     0.000 HD 
HETATM    8  O   UNL     1     -10.500  16.850  68.511  1.00  0.00    -0.316 OA 
HETATM    9  N   UNL     1      -8.537  15.831  67.914  1.00  0.00    -0.158 N  
BRANCH   9  10
HETATM   10  CA  UNL     1      -8.726  14.651  68.808  1.00  0.00    -0.166 C  
HETATM   11  N   UNL     1      -8.074  12.717  68.425  1.00  0.00    -0.155 N  
HETATM   12  C   UNL     1      -7.450  13.758  69.018  1.00  0.00     0.002 C  
HETATM   13  C   UNL     1      -9.350  13.360  68.213  1.00  0.00    -0.205 C  
HETATM   14  O   UNL     1      -6.319  13.968  69.379  1.00  0.00    -0.103 OA 
HETATM   15  S   UNL     1      -9.668  13.290  66.434  1.00  0.00    -0.261 SA 
HETATM   16  C   UNL     1      -9.705  11.487  66.439  1.00  0.00    -0.207 C  
HETATM   17  C   UNL     1      -8.544  10.797  67.120  1.00  0.00    -0.128 C  
HETATM   18  CA  UNL     1      -7.774  11.432  68.052  1.00  0.00    -0.114 C  
HETATM   19  O   UNL     1      -6.569  10.780  70.017  1.00  0.00    -0.137 OA 
HETATM   20  C   UNL     1      -6.578  10.688  68.760  1.00  0.00    -0.053 C  
HETATM   21  OXT UNL     1      -5.891   9.960  67.983  1.00  0.00    -0.040 OA 
BRANCH  17  22
HETATM   22  C   UNL     1      -8.419   9.308  66.797  1.00  0.00    -0.127 C  
BRANCH  22  23
HETATM   23  N   UNL     1      -9.092   8.231  67.728  1.00  0.00    -0.132 N  
HETATM   24  C   UNL     1      -8.192   7.183  68.356  1.00  0.00    -0.125 C  
HETATM   25  C   UNL     1      -9.913   8.967  68.779  1.00  0.00    -0.184 C  
HETATM   26  C   UNL     1      -7.830   6.288  67.194  1.00  0.00    -0.105 C  
HETATM   27  C   UNL     1      -9.178   6.093  66.523  1.00  0.00    -0.161 C  
HETATM   28  C   UNL     1     -10.008   7.343  66.852  1.00  0.00    -0.236 C  
ENDBRANCH  22  23
ENDBRANCH  17  22
ENDBRANCH   9  10
ENDBRANCH   5   6
BRANCH   5  29
HETATM   29  C   UNL     1      -8.008  18.498  66.482  1.00  0.00    -0.274 A  
HETATM   30  S   UNL     1      -5.965  19.982  66.831  1.00  0.00    -0.170 SA 
HETATM   31  C   UNL     1      -7.467  19.385  67.397  1.00  0.00    -0.231 A  
HETATM   32  H2  UNL     1      -4.359  19.610  64.574  1.00  0.00     0.000 HD 
HETATM   33  H1  UNL     1      -5.275  18.444  63.626  1.00  0.00     0.000 HD 
HETATM   34  C   UNL     1      -6.120  19.016  65.423  1.00  0.00    -0.248 A  
HETATM   35  N   UNL     1      -5.183  19.019  64.464  1.00  0.00    -0.185 NA 
HETATM   36  N   UNL     1      -7.204  18.284  65.361  1.00  0.00    -0.501 NA 
ENDBRANCH   5  29
ENDBRANCH   3   5
ENDBRANCH   2   3
TORSDOF 7
ENDMDL
MODEL      101
REMARK 921   NORMALIZED FREE ENERGY PREDICTED BY IDOCK:   -4.29 KCAL/MOL
REMARK 922        TOTAL FREE ENERGY PREDICTED BY IDOCK:   -7.16 KCAL/MOL
REMARK 923 INTER-LIGAND FREE ENERGY PREDICTED BY IDOCK:   -6.34 KCAL/MOL
REMARK 924 INTRA-LIGAND FREE ENERGY PREDICTED BY IDOCK:   -0.82 KCAL/MOL
REMARK 927      BINDING AFFINITY PREDICTED BY RF-SCORE:    0.00 PKD
ROOT
HETATM    1  C   UNL     1      -6.535   2.278  70.692  1.00  0.00    -0.024 C  
HETATM    2  O   UNL     1      -7.062   3.238  71.598  1.00  0.00    -0.030 OA 
ENDROOT
BRANCH   2   3
HETATM    3  N   UNL     1      -7.076   4.489  70.971  1.00  0.00    -0.036 NA 
HETATM    4  H   UNL     1      -6.253   5.085  70.877  1.00  0.00     0.000 HD 
BRANCH   3   5
HETATM    5  C   UNL     1      -8.260   4.810  70.521  1.00  0.00    -0.090 C  
BRANCH   5   6
HETATM    6  C   UNL     1      -8.636   4.858  69.023  1.00  0.00    -0.084 C  
HETATM    7  H   UNL     1      -8.563   6.940  69.053  1.00  0.00     0.000 HD 
HETATM    8  O   UNL     1      -8.815   3.839  68.370  1.00  0.00    -0.097 OA 
HETATM    9  N   UNL     1      -8.838   6.126  68.504  1.00  0.00    -0.114 N  
BRANCH   9  10
HETATM   10  CA  UNL     1      -9.448   6.329  67.156  1.00  0.00    -0.124 C  
HETATM   11  N   UNL     1      -9.316   8.054  66.007  1.00  0.00    -0.139 N  
HETATM   12  C   UNL     1      -8.502   6.977  66.083  1.00  0.00    -0.135 C  
HETATM   13  C   UNL     1     -10.330   7.584  66.922  1.00  0.00    -0.309 C  
HETATM   14  O   UNL     1      -7.407   6.716  65.650  1.00  0.00    -0.071 OA 
HETATM   15  S   UNL     1     -10.444   8.823  68.235  1.00  0.00    -0.149 SA 
HETATM   16  C   UNL     1     -10.978  10.102  67.082  1.00  0.00    -0.134 C  
HETATM   17  C   UNL     1     -10.140  10.266  65.834  1.00  0.00    -0.319 C  
HETATM   18  CA  UNL     1      -9.340   9.264  65.364  1.00  0.00    -0.226 C  
HETATM   19  O   UNL     1      -8.600   8.521  63.211  1.00  0.00    -0.101 OA 
HETATM   20  C   UNL     1      -8.487   9.453  64.052  1.00  0.00    -0.195 C  
HETATM   21  OXT UNL     1      -7.941  10.593  63.951  1.00  0.00    -0.056 OA 
BRANCH  17  22
HETATM   22  C   UNL     1     -10.394  11.568  65.072  1.00  0.00    -0.281 C  
BRANCH  22  23
HETATM   23  N   UNL     1     -10.370  12.950  65.825  1.00  0.00    -0.280 N  
HETATM   24  C   UNL     1     -11.568  13.301  66.688  1.00  0.00    -0.365 C  
HETATM   25  C   UNL     1      -9.069  13.034  66.611  1.00  0.00    -0.176 C  
HETATM   26  C   UNL     1     -12.651  13.607  65.681  1.00  0.00    -0.531 C  
HETATM   27  C   UNL     1     -11.912  14.490  64.691  1.00  0.00    -0.478 C  
HETATM   28  C   UNL     1     -10.434  14.076  64.765  1.00  0.00    -0.421 C  
ENDBRANCH  22  23
ENDBRANCH  17  22
ENDBRANCH   9  10
ENDBRANCH   5   6
BRANCH   5  29
HETATM   29  C   UNL     1      -9.265   5.120  71.543  1.00  0.00    -0.146 A  
HETATM   30  S   UNL     1     -11.158   4.958  73.243  1.00  0.00    -0.347 SA 
HETATM   31  C   UNL     1     -10.121   4.193  72.115  1.00  0.00    -0.178 A  
HETATM   32  H2  UNL     1     -11.538   7.553  74.208  1.00  0.00     0.000 HD 
HETATM   33  H1  UNL     1     -10.325   8.481  73.334  1.00  0.00     0.000 HD 
HETATM   34  C   UNL     1     -10.397   6.459  72.914  1.00  0.00    -0.208 A  
HETATM   35  N   UNL     1     -10.777   7.588  73.529  1.00  0.00    -0.343 NA 
HETATM   36  N   UNL     1      -9.427   6.417  72.035  1.00  0.00    -0.152 NA 
ENDBRANCH   5  29
ENDBRANCH   3   5
ENDBRANCH   2   3
TORSDOF 7
ENDMDL
MODEL      102
REMARK 921   NORMALIZED FREE ENERGY PREDICTED BY IDOCK:   -4.28 KCAL/MOL
REMARK 922        TOTAL FREE ENERGY PREDICTED BY IDOCK:   -7.15 KCAL/MOL
REMARK 923 INTER-LIGAND FREE ENERGY PREDICTED BY IDOCK:   -6.41 KCAL/MOL
REMARK 924 INTRA-LIGAND FREE ENERGY PREDICTED BY IDOCK:   -0.74 KCAL/MOL
REMARK 927      BINDING AFFINITY PREDICTED BY RF-SCORE:    0.00 PKD
ROOT
HETATM    1  C   UNL     1     -12.260  14.317  70.003  1.00  0.00    -0.359 C  
HETATM    2  O   UNL     1     -11.499  14.549  68.824  1.00  0.00    -0.264 OA 
ENDROOT
BRANCH   2   3
HETATM    3  N   UNL     1     -10.146  14.343  69.114  1.00  0.00    -0.398 NA 
HETATM    4  H   UNL     1      -9.809  13.928  69.982  1.00  0.00     0.000 HD 
BRANCH   3   5
HETATM    5  C   UNL     1      -9.362  14.743  68.148  1.00  0.00    -0.197 C  
BRANCH   5   6
HETATM    6  C   UNL     1      -8.408  13.814  67.362  1.00  0.00    -0.193 C  
HETATM    7  H   UNL     1      -9.983  12.517  66.946  1.00  0.00     0.000 HD 
HETATM    8  O   UNL     1      -7.221  14.079  67.222  1.00  0.00    -0.143 OA 
HETATM    9  N   UNL     1      -8.971  12.634  66.907  1.00  0.00    -0.215 N  
BRANCH   9  10
HETATM   10  CA  UNL     1      -8.130  11.529  66.360  1.00  0.00    -0.069 C  
HETATM   11  N   UNL     1      -8.318   9.513  66.823  1.00  0.00    -0.116 N  
HETATM   12  C   UNL     1      -8.922  10.262  65.874  1.00  0.00    -0.158 C  
HETATM   13  C   UNL     1      -7.458  10.545  67.355  1.00  0.00    -0.094 C  
HETATM   14  O   UNL     1      -9.832  10.075  65.106  1.00  0.00    -0.302 OA 
HETATM   15  S   UNL     1      -7.854  10.683  69.114  1.00  0.00    -0.132 SA 
HETATM   16  C   UNL     1      -7.322   8.991  69.440  1.00  0.00    -0.075 C  
HETATM   17  C   UNL     1      -7.885   7.926  68.527  1.00  0.00    -0.119 C  
HETATM   18  CA  UNL     1      -8.372   8.224  67.286  1.00  0.00    -0.124 C  
HETATM   19  O   UNL     1      -8.483   7.107  65.170  1.00  0.00    -0.111 OA 
HETATM   20  C   UNL     1      -8.941   7.095  66.344  1.00  0.00    -0.155 C  
HETATM   21  OXT UNL     1      -9.647   6.229  66.945  1.00  0.00    -0.137 OA 
BRANCH  17  22
HETATM   22  C   UNL     1      -7.709   6.497  69.042  1.00  0.00    -0.109 C  
BRANCH  22  23
HETATM   23  N   UNL     1      -8.317   6.070  70.430  1.00  0.00    -0.122 N  
HETATM   24  C   UNL     1      -8.745   4.624  70.595  1.00  0.00    -0.099 C  
HETATM   25  C   UNL     1      -7.340   6.494  71.520  1.00  0.00    -0.087 C  
HETATM   26  C   UNL     1      -9.998   4.530  69.758  1.00  0.00    -0.268 C  
HETATM   27  C   UNL     1     -10.743   5.786  70.174  1.00  0.00    -0.390 C  
HETATM   28  C   UNL     1      -9.671   6.798  70.607  1.00  0.00    -0.172 C  
ENDBRANCH  22  23
ENDBRANCH  17  22
ENDBRANCH   9  10
ENDBRANCH   5   6
BRANCH   5  29
HETATM   29  C   UNL     1      -9.439  16.169  67.816  1.00  0.00    -0.217 A  
HETATM   30  S   UNL     1      -9.487  18.394  66.572  1.00  0.00    -0.305 SA 
HETATM   31  C   UNL     1      -9.393  16.684  66.532  1.00  0.00    -0.265 A  
HETATM   32  H2  UNL     1      -9.720  20.362  68.542  1.00  0.00     0.000 HD 
HETATM   33  H1  UNL     1      -9.774  19.426  70.031  1.00  0.00     0.000 HD 
HETATM   34  C   UNL     1      -9.601  18.340  68.282  1.00  0.00    -0.318 A  
HETATM   35  N   UNL     1      -9.707  19.458  69.014  1.00  0.00    -0.424 NA 
HETATM   36  N   UNL     1      -9.581  17.141  68.809  1.00  0.00    -0.273 NA 
ENDBRANCH   5  29
ENDBRANCH   3   5
ENDBRANCH   2   3
TORSDOF 7
ENDMDL
MODEL      103
REMARK 921   NORMALIZED FREE ENERGY PREDICTED BY IDOCK:   -4.27 KCAL/MOL
REMARK 922        TOTAL FREE ENERGY PREDICTED BY IDOCK:   -7.14 KCAL/MOL
REMARK 923 INTER-LIGAND FREE ENERGY PREDICTED BY IDOCK:   -6.50 KCAL/MOL
REMARK 924 INTRA-LIGAND FREE ENERGY PREDICTED BY IDOCK:   -0.63 KCAL/MOL
REMARK 927      BINDING AFFINITY PREDICTED BY RF-SCORE:    0.00 PKD
ROOT
HETATM    1  C   UNL     1      -9.819  18.962  67.712  1.00  0.00    -0.337 C  
HETATM    2  O   UNL     1     -10.160  17.885  68.577  1.00  0.00    -0.352 OA 
ENDROOT
BRANCH   2   3
HETATM    3  N   UNL     1     -10.993  16.999  67.886  1.00  0.00    -0.298 NA 
HETATM    4  H   UNL     1     -11.832  17.285  67.383  1.00  0.00     0.000 HD 
BRANCH   3   5
HETATM    5  C   UNL     1     -10.576  15.763  67.957  1.00  0.00    -0.279 C  
BRANCH   5   6
HETATM    6  C   UNL     1     -11.475  14.527  67.725  1.00  0.00    -0.340 C  
HETATM    7  H   UNL     1     -10.841  13.704  69.530  1.00  0.00     0.000 HD 
HETATM    8  O   UNL     1     -12.185  14.424  66.734  1.00  0.00    -0.420 OA 
HETATM    9  N   UNL     1     -11.353  13.520  68.668  1.00  0.00    -0.268 N  
BRANCH   9  10
HETATM   10  CA  UNL     1     -11.955  12.171  68.450  1.00  0.00    -0.198 C  
HETATM   11  N   UNL     1     -10.967  10.354  68.637  1.00  0.00    -0.229 N  
HETATM   12  C   UNL     1     -11.620  11.103  69.553  1.00  0.00    -0.321 C  
HETATM   13  C   UNL     1     -11.240  11.186  67.488  1.00  0.00    -0.301 C  
HETATM   14  O   UNL     1     -11.729  11.061  70.753  1.00  0.00    -0.313 OA 
HETATM   15  S   UNL     1      -9.633  11.652  66.803  1.00  0.00    -0.197 SA 
HETATM   16  C   UNL     1      -9.212   9.938  66.433  1.00  0.00    -0.158 C  
HETATM   17  C   UNL     1      -9.397   8.947  67.559  1.00  0.00    -0.160 C  
HETATM   18  CA  UNL     1     -10.234   9.196  68.609  1.00  0.00    -0.204 C  
HETATM   19  O   UNL     1     -11.622   7.879  70.051  1.00  0.00    -0.046 OA 
HETATM   20  C   UNL     1     -10.422   8.141  69.766  1.00  0.00    -0.227 C  
HETATM   21  OXT UNL     1      -9.347   7.577  70.130  1.00  0.00    -0.158 OA 
BRANCH  17  22
HETATM   22  C   UNL     1      -8.704   7.602  67.335  1.00  0.00    -0.124 C  
BRANCH  22  23
HETATM   23  N   UNL     1      -7.141   7.531  67.159  1.00  0.00    -0.082 N  
HETATM   24  C   UNL     1      -6.586   7.643  65.751  1.00  0.00    -0.045 C  
HETATM   25  C   UNL     1      -6.516   8.561  68.091  1.00  0.00    -0.057 C  
HETATM   26  C   UNL     1      -6.950   6.317  65.123  1.00  0.00    -0.056 C  
HETATM   27  C   UNL     1      -6.555   5.340  66.216  1.00  0.00    -0.052 C  
HETATM   28  C   UNL     1      -6.679   6.105  67.543  1.00  0.00    -0.058 C  
ENDBRANCH  22  23
ENDBRANCH  17  22
ENDBRANCH   9  10
ENDBRANCH   5   6
BRANCH   5  29
HETATM   29  C   UNL     1      -9.152  15.589  68.264  1.00  0.00    -0.186 A  
HETATM   30  S   UNL     1      -6.940  15.161  69.456  1.00  0.00    -0.199 SA 
HETATM   31  C   UNL     1      -8.650  15.233  69.505  1.00  0.00    -0.184 A  
HETATM   32  H2  UNL     1      -4.950  15.561  67.534  1.00  0.00     0.000 HD 
HETATM   33  H1  UNL     1      -5.871  15.973  66.093  1.00  0.00     0.000 HD 
HETATM   34  C   UNL     1      -6.976  15.588  67.795  1.00  0.00    -0.164 A  
HETATM   35  N   UNL     1      -5.850  15.719  67.080  1.00  0.00    -0.321 NA 
HETATM   36  N   UNL     1      -8.170  15.768  67.288  1.00  0.00    -0.168 NA 
ENDBRANCH   5  29
ENDBRANCH   3   5
ENDBRANCH   2   3
TORSDOF 7
ENDMDL
MODEL      104
REMARK 921   NORMALIZED FREE ENERGY PREDICTED BY IDOCK:   -4.21 KCAL/MOL
REMARK 922        TOTAL FREE ENERGY PREDICTED BY IDOCK:   -7.05 KCAL/MOL
REMARK 923 INTER-LIGAND FREE ENERGY PREDICTED BY IDOCK:   -6.37 KCAL/MOL
REMARK 924 INTRA-LIGAND FREE ENERGY PREDICTED BY IDOCK:   -0.67 KCAL/MOL
REMARK 927      BINDING AFFINITY PREDICTED BY RF-SCORE:    0.00 PKD
ROOT
HETATM    1  C   UNL     1     -12.548  13.752  70.576  1.00  0.00    -0.291 C  
HETATM    2  O   UNL     1     -11.951  13.438  69.324  1.00  0.00    -0.314 OA 
ENDROOT
BRANCH   2   3
HETATM    3  N   UNL     1     -10.560  13.457  69.471  1.00  0.00    -0.379 NA 
HETATM    4  H   UNL     1     -10.085  13.449  70.373  1.00  0.00     0.000 HD 
BRANCH   3   5
HETATM    5  C   UNL     1      -9.937  13.487  68.323  1.00  0.00    -0.237 C  
BRANCH   5   6
HETATM    6  C   UNL     1      -9.079  12.327  67.769  1.00  0.00    -0.191 C  
HETATM    7  H   UNL     1     -10.707  11.035  67.899  1.00  0.00     0.000 HD 
HETATM    8  O   UNL     1      -7.907  12.486  67.452  1.00  0.00    -0.158 OA 
HETATM    9  N   UNL     1      -9.702  11.091  67.738  1.00  0.00    -0.168 N  
BRANCH   9  10
HETATM   10  CA  UNL     1      -8.935   9.838  67.474  1.00  0.00    -0.131 C  
HETATM   11  N   UNL     1      -9.040   8.089  68.590  1.00  0.00    -0.140 N  
HETATM   12  C   UNL     1      -9.776   8.512  67.539  1.00  0.00    -0.162 C  
HETATM   13  C   UNL     1      -8.123   9.205  68.636  1.00  0.00    -0.102 C  
HETATM   14  O   UNL     1     -10.783   8.120  67.003  1.00  0.00    -0.321 OA 
HETATM   15  S   UNL     1      -8.273   9.920  70.290  1.00  0.00     0.068 SA 
HETATM   16  C   UNL     1      -7.687   8.407  71.076  1.00  0.00    -0.097 C  
HETATM   17  C   UNL     1      -8.362   7.125  70.644  1.00  0.00    -0.126 C  
HETATM   18  CA  UNL     1      -9.019   7.022  69.451  1.00  0.00    -0.139 C  
HETATM   19  O   UNL     1      -9.413   5.285  67.850  1.00  0.00    -0.116 OA 
HETATM   20  C   UNL     1      -9.703   5.671  69.014  1.00  0.00    -0.141 C  
HETATM   21  OXT UNL     1     -10.312   5.074  69.952  1.00  0.00    -0.279 OA 
BRANCH  17  22
HETATM   22  C   UNL     1      -8.104   5.934  71.569  1.00  0.00    -0.115 C  
BRANCH  22  23
HETATM   23  N   UNL     1      -8.557   5.984  73.076  1.00  0.00    -0.123 N  
HETATM   24  C   UNL     1      -8.841   4.663  73.768  1.00  0.00    -0.104 C  
HETATM   25  C   UNL     1      -7.537   6.812  73.846  1.00  0.00    -0.088 C  
HETATM   26  C   UNL     1     -10.145   4.215  73.150  1.00  0.00    -0.204 C  
HETATM   27  C   UNL     1     -10.961   5.495  73.191  1.00  0.00    -0.340 C  
HETATM   28  C   UNL     1      -9.952   6.652  73.137  1.00  0.00    -0.183 C  
ENDBRANCH  22  23
ENDBRANCH  17  22
ENDBRANCH   9  10
ENDBRANCH   5   6
BRANCH   5  29
HETATM   29  C   UNL     1     -10.106  14.716  67.540  1.00  0.00    -0.224 A  
HETATM   30  S   UNL     1     -10.292  16.397  65.633  1.00  0.00    -0.305 SA 
HETATM   31  C   UNL     1     -10.085  14.780  66.157  1.00  0.00    -0.296 A  
HETATM   32  H2  UNL     1     -10.669  18.886  66.846  1.00  0.00     0.000 HD 
HETATM   33  H1  UNL     1     -10.672  18.493  68.561  1.00  0.00     0.000 HD 
HETATM   34  C   UNL     1     -10.414  16.903  67.266  1.00  0.00    -0.301 A  
HETATM   35  N   UNL     1     -10.599  18.191  67.589  1.00  0.00    -0.420 NA 
HETATM   36  N   UNL     1     -10.319  15.950  68.159  1.00  0.00    -0.249 NA 
ENDBRANCH   5  29
ENDBRANCH   3   5
ENDBRANCH   2   3
TORSDOF 7
ENDMDL
MODEL      105
REMARK 921   NORMALIZED FREE ENERGY PREDICTED BY IDOCK:   -4.20 KCAL/MOL
REMARK 922        TOTAL FREE ENERGY PREDICTED BY IDOCK:   -7.04 KCAL/MOL
REMARK 923 INTER-LIGAND FREE ENERGY PREDICTED BY IDOCK:   -5.96 KCAL/MOL
REMARK 924 INTRA-LIGAND FREE ENERGY PREDICTED BY IDOCK:   -1.08 KCAL/MOL
REMARK 927      BINDING AFFINITY PREDICTED BY RF-SCORE:    0.00 PKD
ROOT
HETATM    1  C   UNL     1      -7.697  17.109  66.359  1.00  0.00    -0.310 C  
HETATM    2  O   UNL     1      -6.974  15.907  66.596  1.00  0.00    -0.203 OA 
ENDROOT
BRANCH   2   3
HETATM    3  N   UNL     1      -7.495  15.285  67.736  1.00  0.00    -0.144 NA 
HETATM    4  H   UNL     1      -7.413  15.668  68.678  1.00  0.00     0.000 HD 
BRANCH   3   5
HETATM    5  C   UNL     1      -8.097  14.159  67.460  1.00  0.00    -0.187 C  
BRANCH   5   6
HETATM    6  C   UNL     1      -7.363  12.836  67.143  1.00  0.00    -0.015 C  
HETATM    7  H   UNL     1      -9.164  11.949  66.587  1.00  0.00     0.000 HD 
HETATM    8  O   UNL     1      -6.151  12.725  67.270  1.00  0.00    -0.241 OA 
HETATM    9  N   UNL     1      -8.180  11.775  66.792  1.00  0.00    -0.165 N  
BRANCH   9  10
HETATM   10  CA  UNL     1      -7.654  10.380  66.706  1.00  0.00    -0.110 C  
HETATM   11  N   UNL     1      -8.698   8.653  67.195  1.00  0.00    -0.127 N  
HETATM   12  C   UNL     1      -8.620   9.340  66.034  1.00  0.00    -0.144 C  
HETATM   13  C   UNL     1      -7.773   9.464  67.953  1.00  0.00    -0.088 C  
HETATM   14  O   UNL     1      -9.204   9.284  64.981  1.00  0.00    -0.235 OA 
HETATM   15  S   UNL     1      -8.687  10.069  69.392  1.00  0.00    -0.191 SA 
HETATM   16  C   UNL     1      -8.945   8.399  70.021  1.00  0.00    -0.138 C  
HETATM   17  C   UNL     1      -9.490   7.391  69.036  1.00  0.00    -0.148 C  
HETATM   18  CA  UNL     1      -9.368   7.563  67.686  1.00  0.00    -0.137 C  
HETATM   19  O   UNL     1      -9.118   6.125  65.787  1.00  0.00    -0.135 OA 
HETATM   20  C   UNL     1      -9.932   6.490  66.677  1.00  0.00    -0.143 C  
HETATM   21  OXT UNL     1     -11.063   6.019  67.003  1.00  0.00    -0.303 OA 
BRANCH  17  22
HETATM   22  C   UNL     1     -10.029   6.111  69.677  1.00  0.00    -0.168 C  
BRANCH  22  23
HETATM   23  N   UNL     1      -9.058   5.126  70.429  1.00  0.00    -0.131 N  
HETATM   24  C   UNL     1      -7.679   4.908  69.834  1.00  0.00    -0.056 C  
HETATM   25  C   UNL     1      -8.978   5.567  71.884  1.00  0.00    -0.135 C  
HETATM   26  C   UNL     1      -7.953   4.070  68.608  1.00  0.00    -0.071 C  
HETATM   27  C   UNL     1      -8.919   3.033  69.152  1.00  0.00    -0.178 C  
HETATM   28  C   UNL     1      -9.649   3.699  70.328  1.00  0.00    -0.176 C  
ENDBRANCH  22  23
ENDBRANCH  17  22
ENDBRANCH   9  10
ENDBRANCH   5   6
BRANCH   5  29
HETATM   29  C   UNL     1      -9.563  14.201  67.479  1.00  0.00    -0.223 A  
HETATM   30  S   UNL     1     -11.998  14.334  68.219  1.00  0.00    -0.264 SA 
HETATM   31  C   UNL     1     -10.333  14.367  68.617  1.00  0.00    -0.245 A  
HETATM   32  H2  UNL     1     -13.518  14.049  65.891  1.00  0.00     0.000 HD 
HETATM   33  H1  UNL     1     -12.294  13.880  64.639  1.00  0.00     0.000 HD 
HETATM   34  C   UNL     1     -11.592  14.121  66.567  1.00  0.00    -0.375 A  
HETATM   35  N   UNL     1     -12.536  14.008  65.621  1.00  0.00    -0.489 NA 
HETATM   36  N   UNL     1     -10.309  14.082  66.304  1.00  0.00    -0.286 NA 
ENDBRANCH   5  29
ENDBRANCH   3   5
ENDBRANCH   2   3
TORSDOF 7
ENDMDL
MODEL      106
REMARK 921   NORMALIZED FREE ENERGY PREDICTED BY IDOCK:   -4.20 KCAL/MOL
REMARK 922        TOTAL FREE ENERGY PREDICTED BY IDOCK:   -7.04 KCAL/MOL
REMARK 923 INTER-LIGAND FREE ENERGY PREDICTED BY IDOCK:   -7.83 KCAL/MOL
REMARK 924 INTRA-LIGAND FREE ENERGY PREDICTED BY IDOCK:    0.80 KCAL/MOL
REMARK 927      BINDING AFFINITY PREDICTED BY RF-SCORE:    0.00 PKD
ROOT
HETATM    1  C   UNL     1     -12.444  13.739  70.899  1.00  0.00    -0.377 C  
HETATM    2  O   UNL     1     -12.194  13.839  69.502  1.00  0.00    -0.333 OA 
ENDROOT
BRANCH   2   3
HETATM    3  N   UNL     1     -10.886  13.414  69.247  1.00  0.00    -0.436 NA 
HETATM    4  H   UNL     1     -10.074  13.728  69.779  1.00  0.00     0.000 HD 
BRANCH   3   5
HETATM    5  C   UNL     1     -10.820  12.570  68.252  1.00  0.00    -0.234 C  
BRANCH   5   6
HETATM    6  C   UNL     1     -10.271  11.130  68.368  1.00  0.00    -0.188 C  
HETATM    7  H   UNL     1      -8.800  11.557  66.956  1.00  0.00     0.000 HD 
HETATM    8  O   UNL     1     -10.761  10.313  69.135  1.00  0.00    -0.201 OA 
HETATM    9  N   UNL     1      -9.250  10.812  67.488  1.00  0.00    -0.143 N  
BRANCH   9  10
HETATM   10  CA  UNL     1      -8.792   9.404  67.300  1.00  0.00    -0.128 C  
HETATM   11  N   UNL     1      -9.063   7.847  68.648  1.00  0.00    -0.137 N  
HETATM   12  C   UNL     1      -9.855   8.302  67.652  1.00  0.00    -0.169 C  
HETATM   13  C   UNL     1      -7.950   8.741  68.423  1.00  0.00    -0.109 C  
HETATM   14  O   UNL     1     -10.989   8.078  67.309  1.00  0.00    -0.175 OA 
HETATM   15  S   UNL     1      -7.702   9.644  69.970  1.00  0.00    -0.171 SA 
HETATM   16  C   UNL     1      -7.307   8.133  70.873  1.00  0.00    -0.059 C  
HETATM   17  C   UNL     1      -8.278   6.985  70.709  1.00  0.00    -0.121 C  
HETATM   18  CA  UNL     1      -9.117   6.898  69.636  1.00  0.00    -0.143 C  
HETATM   19  O   UNL     1     -10.084   5.123  68.350  1.00  0.00    -0.167 OA 
HETATM   20  C   UNL     1     -10.111   5.683  69.478  1.00  0.00    -0.225 C  
HETATM   21  OXT UNL     1     -10.672   5.333  70.559  1.00  0.00    -0.239 OA 
BRANCH  17  22
HETATM   22  C   UNL     1      -8.118   5.873  71.746  1.00  0.00    -0.118 C  
BRANCH  22  23
HETATM   23  N   UNL     1      -8.248   6.191  73.283  1.00  0.00    -0.114 N  
HETATM   24  C   UNL     1      -8.984   5.185  74.149  1.00  0.00    -0.115 C  
HETATM   25  C   UNL     1      -6.853   6.480  73.822  1.00  0.00    -0.077 C  
HETATM   26  C   UNL     1     -10.430   5.371  73.753  1.00  0.00    -0.305 C  
HETATM   27  C   UNL     1     -10.557   6.884  73.750  1.00  0.00    -0.333 C  
HETATM   28  C   UNL     1      -9.156   7.434  73.441  1.00  0.00    -0.187 C  
ENDBRANCH  22  23
ENDBRANCH  17  22
ENDBRANCH   9  10
ENDBRANCH   5   6
BRANCH   5  29
HETATM   29  C   UNL     1     -11.325  13.064  66.966  1.00  0.00    -0.301 A  
HETATM   30  S   UNL     1     -11.868  14.519  64.946  1.00  0.00    -0.422 SA 
HETATM   31  C   UNL     1     -11.081  14.327  66.454  1.00  0.00    -0.325 A  
HETATM   32  H2  UNL     1     -13.478  12.949  63.287  1.00  0.00     0.000 HD 
HETATM   33  H1  UNL     1     -13.594  11.432  64.170  1.00  0.00     0.000 HD 
HETATM   34  C   UNL     1     -12.465  12.916  65.060  1.00  0.00    -0.492 A  
HETATM   35  N   UNL     1     -13.238  12.385  64.102  1.00  0.00    -0.661 NA 
HETATM   36  N   UNL     1     -12.108  12.259  66.136  1.00  0.00    -0.627 NA 
ENDBRANCH   5  29
ENDBRANCH   3   5
ENDBRANCH   2   3
TORSDOF 7
ENDMDL
MODEL      107
REMARK 921   NORMALIZED FREE ENERGY PREDICTED BY IDOCK:   -4.19 KCAL/MOL
REMARK 922        TOTAL FREE ENERGY PREDICTED BY IDOCK:   -7.02 KCAL/MOL
REMARK 923 INTER-LIGAND FREE ENERGY PREDICTED BY IDOCK:   -5.96 KCAL/MOL
REMARK 924 INTRA-LIGAND FREE ENERGY PREDICTED BY IDOCK:   -1.06 KCAL/MOL
REMARK 927      BINDING AFFINITY PREDICTED BY RF-SCORE:    0.00 PKD
ROOT
HETATM    1  C   UNL     1      -6.427   7.239  62.374  1.00  0.00    -0.061 C  
HETATM    2  O   UNL     1      -6.667   5.837  62.414  1.00  0.00    -0.034 OA 
ENDROOT
BRANCH   2   3
HETATM    3  N   UNL     1      -6.102   5.317  63.584  1.00  0.00    -0.021 NA 
HETATM    4  H   UNL     1      -5.135   5.002  63.654  1.00  0.00     0.000 HD 
BRANCH   3   5
HETATM    5  C   UNL     1      -6.952   5.281  64.575  1.00  0.00    -0.049 C  
BRANCH   5   6
HETATM    6  C   UNL     1      -6.969   6.293  65.743  1.00  0.00    -0.057 C  
HETATM    7  H   UNL     1      -8.440   7.409  64.779  1.00  0.00     0.000 HD 
HETATM    8  O   UNL     1      -6.255   6.154  66.727  1.00  0.00    -0.033 OA 
HETATM    9  N   UNL     1      -7.780   7.399  65.557  1.00  0.00    -0.100 N  
BRANCH   9  10
HETATM   10  CA  UNL     1      -7.712   8.579  66.469  1.00  0.00    -0.092 C  
HETATM   11  N   UNL     1      -9.293   9.835  66.955  1.00  0.00    -0.145 N  
HETATM   12  C   UNL     1      -8.874   8.681  67.521  1.00  0.00    -0.135 C  
HETATM   13  C   UNL     1      -8.251   9.943  65.960  1.00  0.00    -0.119 C  
HETATM   14  O   UNL     1      -9.325   7.942  68.360  1.00  0.00    -0.141 OA 
HETATM   15  S   UNL     1      -9.083  10.004  64.356  1.00  0.00    -0.266 SA 
HETATM   16  C   UNL     1      -9.921  11.547  64.767  1.00  0.00    -0.260 C  
HETATM   17  C   UNL     1     -10.641  11.582  66.096  1.00  0.00    -0.314 C  
HETATM   18  CA  UNL     1     -10.321  10.728  67.112  1.00  0.00    -0.224 C  
HETATM   19  O   UNL     1     -10.324  10.826  69.506  1.00  0.00    -0.215 OA 
HETATM   20  C   UNL     1     -11.076  10.792  68.495  1.00  0.00    -0.262 C  
HETATM   21  OXT UNL     1     -12.327  10.973  68.392  1.00  0.00    -0.528 OA 
BRANCH  17  22
HETATM   22  C   UNL     1     -11.622  12.745  66.251  1.00  0.00    -0.379 C  
BRANCH  22  23
HETATM   23  N   UNL     1     -11.095  14.226  66.338  1.00  0.00    -0.319 N  
HETATM   24  C   UNL     1      -9.643  14.434  66.725  1.00  0.00    -0.268 C  
HETATM   25  C   UNL     1     -11.431  14.921  65.025  1.00  0.00    -0.379 C  
HETATM   26  C   UNL     1      -9.619  14.094  68.196  1.00  0.00    -0.218 C  
HETATM   27  C   UNL     1     -10.844  14.833  68.704  1.00  0.00    -0.257 C  
HETATM   28  C   UNL     1     -11.815  14.923  67.517  1.00  0.00    -0.232 C  
ENDBRANCH  22  23
ENDBRANCH  17  22
ENDBRANCH   9  10
ENDBRANCH   5   6
BRANCH   5  29
HETATM   29  C   UNL     1      -7.942   4.200  64.524  1.00  0.00    -0.086 A  
HETATM   30  S   UNL     1      -9.156   1.976  64.805  1.00  0.00    -0.126 SA 
HETATM   31  C   UNL     1      -7.790   2.960  65.120  1.00  0.00    -0.082 A  
HETATM   32  H2  UNL     1     -11.573   2.248  63.429  1.00  0.00     0.000 HD 
HETATM   33  H1  UNL     1     -11.492   3.893  62.811  1.00  0.00     0.000 HD 
HETATM   34  C   UNL     1      -9.867   3.260  63.917  1.00  0.00    -0.158 A  
HETATM   35  N   UNL     1     -11.069   3.130  63.339  1.00  0.00    -0.258 NA 
HETATM   36  N   UNL     1      -9.157   4.359  63.854  1.00  0.00    -0.143 NA 
ENDBRANCH   5  29
ENDBRANCH   3   5
ENDBRANCH   2   3
TORSDOF 7
ENDMDL
MODEL      108
REMARK 921   NORMALIZED FREE ENERGY PREDICTED BY IDOCK:   -4.16 KCAL/MOL
REMARK 922        TOTAL FREE ENERGY PREDICTED BY IDOCK:   -6.98 KCAL/MOL
REMARK 923 INTER-LIGAND FREE ENERGY PREDICTED BY IDOCK:   -6.94 KCAL/MOL
REMARK 924 INTRA-LIGAND FREE ENERGY PREDICTED BY IDOCK:   -0.04 KCAL/MOL
REMARK 927      BINDING AFFINITY PREDICTED BY RF-SCORE:    0.00 PKD
ROOT
HETATM    1  C   UNL     1     -10.724  18.023  67.701  1.00  0.00    -0.344 C  
HETATM    2  O   UNL     1     -10.359  16.761  68.244  1.00  0.00    -0.285 OA 
ENDROOT
BRANCH   2   3
HETATM    3  N   UNL     1     -10.838  16.680  69.557  1.00  0.00    -0.317 NA 
HETATM    4  H   UNL     1     -10.585  17.338  70.294  1.00  0.00     0.000 HD 
BRANCH   3   5
HETATM    5  C   UNL     1     -11.643  15.667  69.733  1.00  0.00    -0.352 C  
BRANCH   5   6
HETATM    6  C   UNL     1     -11.841  14.525  68.711  1.00  0.00    -0.315 C  
HETATM    7  H   UNL     1     -10.287  13.449  69.584  1.00  0.00     0.000 HD 
HETATM    8  O   UNL     1     -12.713  14.571  67.853  1.00  0.00     0.325 OA 
HETATM    9  N   UNL     1     -10.915  13.498  68.783  1.00  0.00    -0.255 N  
BRANCH   9  10
HETATM   10  CA  UNL     1     -10.816  12.461  67.713  1.00  0.00    -0.225 C  
HETATM   11  N   UNL     1      -9.923  10.596  67.906  1.00  0.00    -0.163 N  
HETATM   12  C   UNL     1     -11.187  11.001  68.160  1.00  0.00    -0.302 C  
HETATM   13  C   UNL     1      -9.424  11.852  67.396  1.00  0.00    -0.175 C  
HETATM   14  O   UNL     1     -12.143  10.495  68.693  1.00  0.00    -0.324 OA 
HETATM   15  S   UNL     1      -8.020  12.305  68.441  1.00  0.00    -0.131 SA 
HETATM   16  C   UNL     1      -7.086  10.844  67.944  1.00  0.00    -0.081 C  
HETATM   17  C   UNL     1      -7.816   9.523  68.032  1.00  0.00    -0.087 C  
HETATM   18  CA  UNL     1      -9.179   9.451  68.032  1.00  0.00    -0.130 C  
HETATM   19  O   UNL     1     -10.818   7.892  67.243  1.00  0.00    -0.272 OA 
HETATM   20  C   UNL     1      -9.919   8.061  68.111  1.00  0.00    -0.185 C  
HETATM   21  OXT UNL     1      -9.393   7.241  68.922  1.00  0.00    -0.145 OA 
BRANCH  17  22
HETATM   22  C   UNL     1      -6.907   8.295  67.956  1.00  0.00    -0.066 C  
BRANCH  22  23
HETATM   23  N   UNL     1      -6.376   7.783  66.565  1.00  0.00    -0.045 N  
HETATM   24  C   UNL     1      -5.970   8.825  65.540  1.00  0.00    -0.051 C  
HETATM   25  C   UNL     1      -5.253   6.788  66.829  1.00  0.00    -0.017 C  
HETATM   26  C   UNL     1      -7.288   9.403  65.084  1.00  0.00    -0.104 C  
HETATM   27  C   UNL     1      -8.119   8.150  64.874  1.00  0.00    -0.153 C  
HETATM   28  C   UNL     1      -7.548   7.090  65.829  1.00  0.00    -0.094 C  
ENDBRANCH  22  23
ENDBRANCH  17  22
ENDBRANCH   9  10
ENDBRANCH   5   6
BRANCH   5  29
HETATM   29  C   UNL     1     -12.373  15.650  71.006  1.00  0.00    -0.428 A  
HETATM   30  S   UNL     1     -14.153  15.331  72.802  1.00  0.00    -0.018 SA 
HETATM   31  C   UNL     1     -13.649  15.139  71.177  1.00  0.00    -0.456 A  
HETATM   32  H2  UNL     1     -13.062  16.383  75.150  1.00  0.00     0.000 HD 
HETATM   33  H1  UNL     1     -11.468  16.924  74.636  1.00  0.00     0.000 HD 
HETATM   34  C   UNL     1     -12.647  16.060  73.176  1.00  0.00    -0.520 A  
HETATM   35  N   UNL     1     -12.364  16.491  74.414  1.00  0.00    -0.712 NA 
HETATM   36  N   UNL     1     -11.806  16.156  72.177  1.00  0.00    -0.518 NA 
ENDBRANCH   5  29
ENDBRANCH   3   5
ENDBRANCH   2   3
TORSDOF 7
ENDMDL
MODEL      109
REMARK 921   NORMALIZED FREE ENERGY PREDICTED BY IDOCK:   -4.16 KCAL/MOL
REMARK 922        TOTAL FREE ENERGY PREDICTED BY IDOCK:   -6.98 KCAL/MOL
REMARK 923 INTER-LIGAND FREE ENERGY PREDICTED BY IDOCK:   -6.73 KCAL/MOL
REMARK 924 INTRA-LIGAND FREE ENERGY PREDICTED BY IDOCK:   -0.25 KCAL/MOL
REMARK 927      BINDING AFFINITY PREDICTED BY RF-SCORE:    0.00 PKD
ROOT
HETATM    1  C   UNL     1      -7.402  17.804  66.576  1.00  0.00    -0.248 C  
HETATM    2  O   UNL     1      -7.747  16.486  66.168  1.00  0.00    -0.257 OA 
ENDROOT
BRANCH   2   3
HETATM    3  N   UNL     1      -8.787  16.021  66.981  1.00  0.00    -0.198 NA 
HETATM    4  H   UNL     1      -9.309  16.613  67.628  1.00  0.00     0.000 HD 
BRANCH   3   5
HETATM    5  C   UNL     1      -9.015  14.745  66.820  1.00  0.00    -0.266 C  
BRANCH   5   6
HETATM    6  C   UNL     1      -8.052  13.626  67.277  1.00  0.00    -0.139 C  
HETATM    7  H   UNL     1      -8.985  12.274  65.996  1.00  0.00     0.000 HD 
HETATM    8  O   UNL     1      -7.167  13.831  68.097  1.00  0.00    -0.094 OA 
HETATM    9  N   UNL     1      -8.316  12.369  66.760  1.00  0.00    -0.115 N  
BRANCH   9  10
HETATM   10  CA  UNL     1      -7.645  11.148  67.297  1.00  0.00    -0.126 C  
HETATM   11  N   UNL     1      -8.557   9.318  67.660  1.00  0.00    -0.116 N  
HETATM   12  C   UNL     1      -7.982   9.812  66.542  1.00  0.00    -0.112 C  
HETATM   13  C   UNL     1      -8.269  10.437  68.527  1.00  0.00    -0.119 C  
HETATM   14  O   UNL     1      -7.927   9.451  65.392  1.00  0.00    -0.101 OA 
HETATM   15  S   UNL     1      -9.862  11.021  69.152  1.00  0.00    -0.026 SA 
HETATM   16  C   UNL     1     -10.188   9.458  69.991  1.00  0.00    -0.229 C  
HETATM   17  C   UNL     1     -10.011   8.206  69.162  1.00  0.00    -0.192 C  
HETATM   18  CA  UNL     1      -9.235   8.188  68.039  1.00  0.00    -0.132 C  
HETATM   19  O   UNL     1      -7.858   6.575  66.926  1.00  0.00    -0.104 OA 
HETATM   20  C   UNL     1      -9.054   6.867  67.198  1.00  0.00    -0.131 C  
HETATM   21  OXT UNL     1     -10.118   6.193  67.060  1.00  0.00    -0.145 OA 
BRANCH  17  22
HETATM   22  C   UNL     1     -10.631   6.951  69.778  1.00  0.00    -0.233 C  
BRANCH  22  23
HETATM   23  N   UNL     1      -9.895   6.186  70.940  1.00  0.00    -0.180 N  
HETATM   24  C   UNL     1     -10.680   5.127  71.693  1.00  0.00    -0.111 C  
HETATM   25  C   UNL     1      -8.593   5.626  70.383  1.00  0.00    -0.132 C  
HETATM   26  C   UNL     1     -11.649   5.934  72.526  1.00  0.00    -0.327 C  
HETATM   27  C   UNL     1     -10.745   7.015  73.090  1.00  0.00    -0.359 C  
HETATM   28  C   UNL     1      -9.606   7.198  72.075  1.00  0.00    -0.143 C  
ENDBRANCH  22  23
ENDBRANCH  17  22
ENDBRANCH   9  10
ENDBRANCH   5   6
BRANCH   5  29
HETATM   29  C   UNL     1     -10.286  14.403  66.173  1.00  0.00    -0.306 A  
HETATM   30  S   UNL     1     -12.457  13.250  65.498  1.00  0.00    -0.446 SA 
HETATM   31  C   UNL     1     -11.071  13.311  66.503  1.00  0.00    -0.294 A  
HETATM   32  H2  UNL     1     -13.516  14.780  63.414  1.00  0.00     0.000 HD 
HETATM   33  H1  UNL     1     -12.339  16.076  63.238  1.00  0.00     0.000 HD 
HETATM   34  C   UNL     1     -11.938  14.680  64.707  1.00  0.00    -0.433 A  
HETATM   35  N   UNL     1     -12.647  15.226  63.709  1.00  0.00    -0.521 NA 
HETATM   36  N   UNL     1     -10.816  15.191  65.149  1.00  0.00    -0.393 NA 
ENDBRANCH   5  29
ENDBRANCH   3   5
ENDBRANCH   2   3
TORSDOF 7
ENDMDL
MODEL      110
REMARK 921   NORMALIZED FREE ENERGY PREDICTED BY IDOCK:   -4.16 KCAL/MOL
REMARK 922        TOTAL FREE ENERGY PREDICTED BY IDOCK:   -6.98 KCAL/MOL
REMARK 923 INTER-LIGAND FREE ENERGY PREDICTED BY IDOCK:   -6.49 KCAL/MOL
REMARK 924 INTRA-LIGAND FREE ENERGY PREDICTED BY IDOCK:   -0.48 KCAL/MOL
REMARK 927      BINDING AFFINITY PREDICTED BY RF-SCORE:    0.00 PKD
ROOT
HETATM    1  C   UNL     1     -10.123   4.872  66.316  1.00  0.00    -0.257 C  
HETATM    2  O   UNL     1     -10.798   5.323  67.484  1.00  0.00    -0.088 OA 
ENDROOT
BRANCH   2   3
HETATM    3  N   UNL     1     -10.006   5.034  68.601  1.00  0.00    -0.160 NA 
HETATM    4  H   UNL     1      -9.745   4.089  68.881  1.00  0.00     0.000 HD 
BRANCH   3   5
HETATM    5  C   UNL     1      -9.638   6.110  69.244  1.00  0.00    -0.133 C  
BRANCH   5   6
HETATM    6  C   UNL     1      -8.448   7.006  68.832  1.00  0.00    -0.125 C  
HETATM    7  H   UNL     1      -9.709   8.659  68.715  1.00  0.00     0.000 HD 
HETATM    8  O   UNL     1      -7.312   6.563  68.733  1.00  0.00    -0.082 OA 
HETATM    9  N   UNL     1      -8.775   8.311  68.504  1.00  0.00    -0.133 N  
BRANCH   9  10
HETATM   10  CA  UNL     1      -7.789   9.220  67.848  1.00  0.00    -0.092 C  
HETATM   11  N   UNL     1      -7.918  11.291  67.755  1.00  0.00    -0.113 N  
HETATM   12  C   UNL     1      -7.376  10.480  68.691  1.00  0.00    -0.091 C  
HETATM   13  C   UNL     1      -8.308  10.261  66.820  1.00  0.00    -0.124 C  
HETATM   14  O   UNL     1      -6.935  10.650  69.800  1.00  0.00    -0.123 OA 
HETATM   15  S   UNL     1     -10.093  10.435  66.587  1.00  0.00    -0.232 SA 
HETATM   16  C   UNL     1      -9.913  12.086  65.885  1.00  0.00    -0.236 C  
HETATM   17  C   UNL     1      -9.064  13.057  66.673  1.00  0.00    -0.181 C  
HETATM   18  CA  UNL     1      -8.132  12.633  67.576  1.00  0.00    -0.178 C  
HETATM   19  O   UNL     1      -6.010  13.424  68.357  1.00  0.00    -0.078 OA 
HETATM   20  C   UNL     1      -7.247  13.664  68.376  1.00  0.00    -0.109 C  
HETATM   21  OXT UNL     1      -7.882  14.683  68.782  1.00  0.00    -0.134 OA 
BRANCH  17  22
HETATM   22  C   UNL     1      -9.225  14.519  66.253  1.00  0.00    -0.198 C  
BRANCH  22  23
HETATM   23  N   UNL     1     -10.584  15.275  66.501  1.00  0.00    -0.298 N  
HETATM   24  C   UNL     1     -11.868  14.544  66.153  1.00  0.00    -0.336 C  
HETATM   25  C   UNL     1     -10.592  15.765  67.943  1.00  0.00    -0.282 C  
HETATM   26  C   UNL     1     -11.875  14.547  64.642  1.00  0.00    -0.462 C  
HETATM   27  C   UNL     1     -11.496  15.985  64.334  1.00  0.00    -0.246 C  
HETATM   28  C   UNL     1     -10.654  16.472  65.523  1.00  0.00    -0.295 C  
ENDBRANCH  22  23
ENDBRANCH  17  22
ENDBRANCH   9  10
ENDBRANCH   5   6
BRANCH   5  29
HETATM   29  C   UNL     1     -10.448   6.456  70.417  1.00  0.00    -0.218 A  
HETATM   30  S   UNL     1     -11.237   6.921  72.796  1.00  0.00    -0.205 SA 
HETATM   31  C   UNL     1      -9.974   6.502  71.718  1.00  0.00    -0.176 A  
HETATM   32  H2  UNL     1     -13.955   7.535  72.591  1.00  0.00     0.000 HD 
HETATM   33  H1  UNL     1     -14.257   7.418  70.861  1.00  0.00     0.000 HD 
HETATM   34  C   UNL     1     -12.321   7.031  71.473  1.00  0.00    -0.379 A  
HETATM   35  N   UNL     1     -13.611   7.353  71.648  1.00  0.00    -0.380 NA 
HETATM   36  N   UNL     1     -11.800   6.786  70.297  1.00  0.00    -0.349 NA 
ENDBRANCH   5  29
ENDBRANCH   3   5
ENDBRANCH   2   3
TORSDOF 7
ENDMDL
MODEL      111
REMARK 921   NORMALIZED FREE ENERGY PREDICTED BY IDOCK:   -4.13 KCAL/MOL
REMARK 922        TOTAL FREE ENERGY PREDICTED BY IDOCK:   -6.93 KCAL/MOL
REMARK 923 INTER-LIGAND FREE ENERGY PREDICTED BY IDOCK:   -6.35 KCAL/MOL
REMARK 924 INTRA-LIGAND FREE ENERGY PREDICTED BY IDOCK:   -0.58 KCAL/MOL
REMARK 927      BINDING AFFINITY PREDICTED BY RF-SCORE:    0.00 PKD
ROOT
HETATM    1  C   UNL     1     -11.333   6.634  71.136  1.00  0.00    -0.306 C  
HETATM    2  O   UNL     1     -10.075   6.183  71.622  1.00  0.00    -0.183 OA 
ENDROOT
BRANCH   2   3
HETATM    3  N   UNL     1      -9.160   6.172  70.563  1.00  0.00    -0.152 NA 
HETATM    4  H   UNL     1      -9.223   5.538  69.766  1.00  0.00     0.000 HD 
BRANCH   3   5
HETATM    5  C   UNL     1      -8.218   7.065  70.708  1.00  0.00    -0.121 C  
BRANCH   5   6
HETATM    6  C   UNL     1      -7.612   7.886  69.547  1.00  0.00    -0.099 C  
HETATM    7  H   UNL     1      -8.282   9.653  70.421  1.00  0.00     0.000 HD 
HETATM    8  O   UNL     1      -7.005   7.352  68.628  1.00  0.00    -0.073 OA 
HETATM    9  N   UNL     1      -7.877   9.244  69.579  1.00  0.00    -0.080 N  
BRANCH   9  10
HETATM   10  CA  UNL     1      -7.583  10.125  68.410  1.00  0.00    -0.087 C  
HETATM   11  N   UNL     1      -8.609  11.858  67.904  1.00  0.00    -0.154 N  
HETATM   12  C   UNL     1      -7.551  11.664  68.722  1.00  0.00    -0.119 C  
HETATM   13  C   UNL     1      -8.744  10.494  67.448  1.00  0.00    -0.125 C  
HETATM   14  O   UNL     1      -6.958  12.357  69.512  1.00  0.00     0.007 OA 
HETATM   15  S   UNL     1     -10.424   9.978  67.876  1.00  0.00    -0.249 SA 
HETATM   16  C   UNL     1     -11.159  11.227  66.803  1.00  0.00    -0.250 C  
HETATM   17  C   UNL     1     -10.639  12.637  66.966  1.00  0.00    -0.255 C  
HETATM   18  CA  UNL     1      -9.418  12.896  67.519  1.00  0.00    -0.198 C  
HETATM   19  O   UNL     1      -7.721  14.563  67.235  1.00  0.00    -0.191 OA 
HETATM   20  C   UNL     1      -8.890  14.375  67.666  1.00  0.00    -0.193 C  
HETATM   21  OXT UNL     1      -9.774  15.203  68.039  1.00  0.00    -0.206 OA 
BRANCH  17  22
HETATM   22  C   UNL     1     -11.515  13.710  66.318  1.00  0.00    -0.333 C  
BRANCH  22  23
HETATM   23  N   UNL     1     -11.257  14.158  64.831  1.00  0.00    -0.355 N  
HETATM   24  C   UNL     1     -12.394  13.992  63.839  1.00  0.00    -0.234 C  
HETATM   25  C   UNL     1     -10.740  15.590  64.855  1.00  0.00    -0.392 C  
HETATM   26  C   UNL     1     -12.455  12.498  63.622  1.00  0.00    -0.570 C  
HETATM   27  C   UNL     1     -10.988  12.152  63.440  1.00  0.00    -0.480 C  
HETATM   28  C   UNL     1     -10.196  13.211  64.221  1.00  0.00    -0.261 C  
ENDBRANCH  22  23
ENDBRANCH  17  22
ENDBRANCH   9  10
ENDBRANCH   5   6
BRANCH   5  29
HETATM   29  C   UNL     1      -7.749   7.277  72.081  1.00  0.00    -0.089 A  
HETATM   30  S   UNL     1      -7.487   8.104  74.478  1.00  0.00    -0.226 SA 
HETATM   31  C   UNL     1      -8.354   8.116  73.001  1.00  0.00    -0.199 A  
HETATM   32  H2  UNL     1      -5.211   6.827  75.479  1.00  0.00     0.000 HD 
HETATM   33  H1  UNL     1      -4.686   5.836  74.124  1.00  0.00     0.000 HD 
HETATM   34  C   UNL     1      -6.380   6.976  73.811  1.00  0.00    -0.066 A  
HETATM   35  N   UNL     1      -5.345   6.506  74.520  1.00  0.00    -0.049 NA 
HETATM   36  N   UNL     1      -6.625   6.613  72.577  1.00  0.00    -0.062 NA 
ENDBRANCH   5  29
ENDBRANCH   3   5
ENDBRANCH   2   3
TORSDOF 7
ENDMDL
MODEL      112
REMARK 921   NORMALIZED FREE ENERGY PREDICTED BY IDOCK:   -4.10 KCAL/MOL
REMARK 922        TOTAL FREE ENERGY PREDICTED BY IDOCK:   -6.90 KCAL/MOL
REMARK 923 INTER-LIGAND FREE ENERGY PREDICTED BY IDOCK:   -6.37 KCAL/MOL
REMARK 924 INTRA-LIGAND FREE ENERGY PREDICTED BY IDOCK:   -0.53 KCAL/MOL
REMARK 927      BINDING AFFINITY PREDICTED BY RF-SCORE:    0.00 PKD
ROOT
HETATM    1  C   UNL     1      -6.908   9.393  69.829  1.00  0.00    -0.055 C  
HETATM    2  O   UNL     1      -6.225   8.248  69.332  1.00  0.00    -0.036 OA 
ENDROOT
BRANCH   2   3
HETATM    3  N   UNL     1      -6.338   8.226  67.938  1.00  0.00    -0.052 NA 
HETATM    4  H   UNL     1      -5.801   8.831  67.316  1.00  0.00     0.000 HD 
BRANCH   3   5
HETATM    5  C   UNL     1      -7.207   7.345  67.521  1.00  0.00    -0.094 C  
BRANCH   5   6
HETATM    6  C   UNL     1      -8.629   7.693  67.026  1.00  0.00    -0.122 C  
HETATM    7  H   UNL     1      -7.965   9.555  66.370  1.00  0.00     0.000 HD 
HETATM    8  O   UNL     1      -9.559   6.904  67.127  1.00  0.00    -0.135 OA 
HETATM    9  N   UNL     1      -8.790   8.981  66.542  1.00  0.00    -0.130 N  
BRANCH   9  10
HETATM   10  CA  UNL     1     -10.144   9.547  66.268  1.00  0.00    -0.257 C  
HETATM   11  N   UNL     1     -10.591  11.559  66.011  1.00  0.00    -0.255 N  
HETATM   12  C   UNL     1     -10.201  10.620  65.121  1.00  0.00    -0.299 C  
HETATM   13  C   UNL     1     -10.663  10.699  67.170  1.00  0.00    -0.272 C  
HETATM   14  O   UNL     1      -9.853  10.646  63.967  1.00  0.00    -0.291 OA 
HETATM   15  S   UNL     1      -9.545  11.409  68.401  1.00  0.00    -0.197 SA 
HETATM   16  C   UNL     1     -10.511  12.929  68.507  1.00  0.00    -0.247 C  
HETATM   17  C   UNL     1     -10.855  13.594  67.194  1.00  0.00    -0.292 C  
HETATM   18  CA  UNL     1     -10.861  12.903  66.015  1.00  0.00    -0.279 C  
HETATM   19  O   UNL     1     -12.100  13.009  63.968  1.00  0.00    -0.402 OA 
HETATM   20  C   UNL     1     -11.238  13.614  64.659  1.00  0.00    -0.373 C  
HETATM   21  OXT UNL     1     -10.750  14.778  64.534  1.00  0.00    -0.316 OA 
BRANCH  17  22
HETATM   22  C   UNL     1     -11.346  15.036  67.327  1.00  0.00    -0.332 C  
BRANCH  22  23
HETATM   23  N   UNL     1     -10.452  16.119  68.038  1.00  0.00    -0.271 N  
HETATM   24  C   UNL     1     -10.770  17.579  67.770  1.00  0.00    -0.332 C  
HETATM   25  C   UNL     1     -10.441  15.813  69.530  1.00  0.00    -0.270 C  
HETATM   26  C   UNL     1     -10.297  17.787  66.350  1.00  0.00    -0.351 C  
HETATM   27  C   UNL     1      -8.940  17.107  66.374  1.00  0.00    -0.291 C  
HETATM   28  C   UNL     1      -9.022  16.020  67.456  1.00  0.00    -0.194 C  
ENDBRANCH  22  23
ENDBRANCH  17  22
ENDBRANCH   9  10
ENDBRANCH   5   6
BRANCH   5  29
HETATM   29  C   UNL     1      -6.752   5.950  67.528  1.00  0.00    -0.058 A  
HETATM   30  S   UNL     1      -5.962   3.637  68.250  1.00  0.00    -0.028 SA 
HETATM   31  C   UNL     1      -6.500   5.208  68.669  1.00  0.00    -0.040 A  
HETATM   32  H2  UNL     1      -5.491   2.221  65.888  1.00  0.00     0.000 HD 
HETATM   33  H1  UNL     1      -5.908   3.388  64.639  1.00  0.00     0.000 HD 
HETATM   34  C   UNL     1      -6.116   4.035  66.590  1.00  0.00    -0.031 A  
HETATM   35  N   UNL     1      -5.817   3.151  65.627  1.00  0.00    -0.018 NA 
HETATM   36  N   UNL     1      -6.545   5.247  66.340  1.00  0.00    -0.051 NA 
ENDBRANCH   5  29
ENDBRANCH   3   5
ENDBRANCH   2   3
TORSDOF 7
ENDMDL
MODEL      113
REMARK 921   NORMALIZED FREE ENERGY PREDICTED BY IDOCK:   -4.10 KCAL/MOL
REMARK 922        TOTAL FREE ENERGY PREDICTED BY IDOCK:   -6.89 KCAL/MOL
REMARK 923 INTER-LIGAND FREE ENERGY PREDICTED BY IDOCK:   -6.27 KCAL/MOL
REMARK 924 INTRA-LIGAND FREE ENERGY PREDICTED BY IDOCK:   -0.63 KCAL/MOL
REMARK 927      BINDING AFFINITY PREDICTED BY RF-SCORE:    0.00 PKD
ROOT
HETATM    1  C   UNL     1     -12.223  15.440  63.962  1.00  0.00     0.051 C  
HETATM    2  O   UNL     1     -12.741  14.141  64.222  1.00  0.00    -0.660 OA 
ENDROOT
BRANCH   2   3
HETATM    3  N   UNL     1     -12.817  13.956  65.607  1.00  0.00    -0.601 NA 
HETATM    4  H   UNL     1     -13.693  13.936  66.128  1.00  0.00     0.000 HD 
BRANCH   3   5
HETATM    5  C   UNL     1     -11.641  13.812  66.157  1.00  0.00    -0.352 C  
BRANCH   5   6
HETATM    6  C   UNL     1     -10.593  12.768  65.708  1.00  0.00    -0.273 C  
HETATM    7  H   UNL     1     -10.617  11.902  67.602  1.00  0.00     0.000 HD 
HETATM    8  O   UNL     1     -10.151  12.748  64.567  1.00  0.00    -0.307 OA 
HETATM    9  N   UNL     1     -10.135  11.923  66.704  1.00  0.00    -0.198 N  
BRANCH   9  10
HETATM   10  CA  UNL     1      -8.949  11.040  66.493  1.00  0.00    -0.173 C  
HETATM   11  N   UNL     1      -8.889   8.988  66.806  1.00  0.00    -0.125 N  
HETATM   12  C   UNL     1      -9.238   9.705  65.715  1.00  0.00    -0.210 C  
HETATM   13  C   UNL     1      -8.509  10.100  67.647  1.00  0.00    -0.118 C  
HETATM   14  O   UNL     1      -9.745   9.435  64.655  1.00  0.00    -0.013 OA 
HETATM   15  S   UNL     1      -9.544   9.997  69.126  1.00  0.00    -0.221 SA 
HETATM   16  C   UNL     1      -8.844   8.402  69.593  1.00  0.00    -0.141 C  
HETATM   17  C   UNL     1      -8.807   7.347  68.511  1.00  0.00    -0.126 C  
HETATM   18  CA  UNL     1      -8.852   7.671  67.185  1.00  0.00    -0.125 C  
HETATM   19  O   UNL     1      -7.953   6.758  65.161  1.00  0.00    -0.116 OA 
HETATM   20  C   UNL     1      -8.798   6.554  66.074  1.00  0.00    -0.143 C  
HETATM   21  OXT UNL     1      -9.488   5.525  66.342  1.00  0.00    -0.146 OA 
BRANCH  17  22
HETATM   22  C   UNL     1      -8.553   5.928  69.023  1.00  0.00    -0.114 C  
BRANCH  22  23
HETATM   23  N   UNL     1      -7.083   5.381  69.156  1.00  0.00    -0.056 N  
HETATM   24  C   UNL     1      -6.668   4.798  70.495  1.00  0.00    -0.036 C  
HETATM   25  C   UNL     1      -6.843   4.396  68.019  1.00  0.00    -0.055 C  
HETATM   26  C   UNL     1      -6.542   6.014  71.383  1.00  0.00    -0.051 C  
HETATM   27  C   UNL     1      -5.770   6.970  70.492  1.00  0.00    -0.024 C  
HETATM   28  C   UNL     1      -6.111   6.580  69.046  1.00  0.00    -0.026 C  
ENDBRANCH  22  23
ENDBRANCH  17  22
ENDBRANCH   9  10
ENDBRANCH   5   6
BRANCH   5  29
HETATM   29  C   UNL     1     -11.337  14.733  67.257  1.00  0.00    -0.357 A  
HETATM   30  S   UNL     1     -11.263  15.902  69.521  1.00  0.00    -0.348 SA 
HETATM   31  C   UNL     1     -11.832  14.615  68.545  1.00  0.00    -0.311 A  
HETATM   32  H2  UNL     1      -9.607  18.127  69.175  1.00  0.00     0.000 HD 
HETATM   33  H1  UNL     1      -9.126  18.002  67.487  1.00  0.00     0.000 HD 
HETATM   34  C   UNL     1     -10.386  16.520  68.183  1.00  0.00    -0.296 A  
HETATM   35  N   UNL     1      -9.648  17.635  68.283  1.00  0.00    -0.293 NA 
HETATM   36  N   UNL     1     -10.488  15.827  67.076  1.00  0.00    -0.304 NA 
ENDBRANCH   5  29
ENDBRANCH   3   5
ENDBRANCH   2   3
TORSDOF 7
ENDMDL
MODEL      114
REMARK 921   NORMALIZED FREE ENERGY PREDICTED BY IDOCK:   -4.08 KCAL/MOL
REMARK 922        TOTAL FREE ENERGY PREDICTED BY IDOCK:   -6.87 KCAL/MOL
REMARK 923 INTER-LIGAND FREE ENERGY PREDICTED BY IDOCK:   -6.84 KCAL/MOL
REMARK 924 INTRA-LIGAND FREE ENERGY PREDICTED BY IDOCK:   -0.03 KCAL/MOL
REMARK 927      BINDING AFFINITY PREDICTED BY RF-SCORE:    0.00 PKD
ROOT
HETATM    1  C   UNL     1      -5.604  14.822  67.843  1.00  0.00    -0.106 C  
HETATM    2  O   UNL     1      -6.797  15.037  67.100  1.00  0.00    -0.260 OA 
ENDROOT
BRANCH   2   3
HETATM    3  N   UNL     1      -7.428  16.189  67.583  1.00  0.00    -0.135 NA 
HETATM    4  H   UNL     1      -6.981  16.859  68.209  1.00  0.00     0.000 HD 
BRANCH   3   5
HETATM    5  C   UNL     1      -8.652  16.309  67.145  1.00  0.00    -0.183 C  
BRANCH   5   6
HETATM    6  C   UNL     1      -9.574  15.117  66.800  1.00  0.00    -0.245 C  
HETATM    7  H   UNL     1     -10.072  14.896  68.810  1.00  0.00     0.000 HD 
HETATM    8  O   UNL     1      -9.729  14.734  65.648  1.00  0.00    -0.332 OA 
HETATM    9  N   UNL     1     -10.137  14.469  67.887  1.00  0.00    -0.225 N  
BRANCH   9  10
HETATM   10  CA  UNL     1     -10.836  13.159  67.737  1.00  0.00    -0.244 C  
HETATM   11  N   UNL     1     -10.623  11.516  68.989  1.00  0.00    -0.200 N  
HETATM   12  C   UNL     1     -11.457  12.576  69.057  1.00  0.00    -0.304 C  
HETATM   13  C   UNL     1      -9.987  11.859  67.738  1.00  0.00    -0.186 C  
HETATM   14  O   UNL     1     -12.222  12.995  69.891  1.00  0.00    -0.277 OA 
HETATM   15  S   UNL     1      -8.216  11.980  68.084  1.00  0.00    -0.168 SA 
HETATM   16  C   UNL     1      -8.115  10.240  68.548  1.00  0.00    -0.109 C  
HETATM   17  C   UNL     1      -9.141   9.755  69.547  1.00  0.00    -0.227 C  
HETATM   18  CA  UNL     1     -10.323  10.410  69.742  1.00  0.00    -0.208 C  
HETATM   19  O   UNL     1     -12.558   9.782  70.331  1.00  0.00    -0.092 OA 
HETATM   20  C   UNL     1     -11.385   9.878  70.780  1.00  0.00    -0.353 C  
HETATM   21  OXT UNL     1     -10.881   9.459  71.865  1.00  0.00    -0.310 OA 
BRANCH  17  22
HETATM   22  C   UNL     1      -8.811   8.404  70.183  1.00  0.00    -0.141 C  
BRANCH  22  23
HETATM   23  N   UNL     1      -7.808   8.316  71.393  1.00  0.00    -0.096 N  
HETATM   24  C   UNL     1      -6.638   9.282  71.408  1.00  0.00    -0.022 C  
HETATM   25  C   UNL     1      -8.617   8.395  72.681  1.00  0.00    -0.171 C  
HETATM   26  C   UNL     1      -5.733   8.756  70.320  1.00  0.00    -0.027 C  
HETATM   27  C   UNL     1      -5.728   7.266  70.615  1.00  0.00    -0.027 C  
HETATM   28  C   UNL     1      -7.066   6.960  71.304  1.00  0.00    -0.075 C  
ENDBRANCH  22  23
ENDBRANCH  17  22
ENDBRANCH   9  10
ENDBRANCH   5   6
BRANCH   5  29
HETATM   29  C   UNL     1      -9.144  17.684  67.002  1.00  0.00    -0.250 A  
HETATM   30  S   UNL     1      -9.613  20.164  67.354  1.00  0.00    -0.439 SA 
HETATM   31  C   UNL     1      -8.813  18.732  67.844  1.00  0.00    -0.296 A  
HETATM   32  H2  UNL     1     -11.372  20.904  65.312  1.00  0.00     0.000 HD 
HETATM   33  H1  UNL     1     -11.586  19.405  64.414  1.00  0.00     0.000 HD 
HETATM   34  C   UNL     1     -10.329  19.310  66.051  1.00  0.00    -0.475 A  
HETATM   35  N   UNL     1     -11.160  19.913  65.189  1.00  0.00    -0.107 NA 
HETATM   36  N   UNL     1     -10.003  18.045  65.962  1.00  0.00    -0.549 NA 
ENDBRANCH   5  29
ENDBRANCH   3   5
ENDBRANCH   2   3
TORSDOF 7
ENDMDL
MODEL      115
REMARK 921   NORMALIZED FREE ENERGY PREDICTED BY IDOCK:   -4.08 KCAL/MOL
REMARK 922        TOTAL FREE ENERGY PREDICTED BY IDOCK:   -6.86 KCAL/MOL
REMARK 923 INTER-LIGAND FREE ENERGY PREDICTED BY IDOCK:   -7.43 KCAL/MOL
REMARK 924 INTRA-LIGAND FREE ENERGY PREDICTED BY IDOCK:    0.57 KCAL/MOL
REMARK 927      BINDING AFFINITY PREDICTED BY RF-SCORE:    0.00 PKD
ROOT
HETATM    1  C   UNL     1     -13.006  14.030  71.560  1.00  0.00    -0.351 C  
HETATM    2  O   UNL     1     -12.084  13.309  70.752  1.00  0.00    -0.341 OA 
ENDROOT
BRANCH   2   3
HETATM    3  N   UNL     1     -12.464  11.963  70.726  1.00  0.00    -0.335 NA 
HETATM    4  H   UNL     1     -13.324  11.609  71.145  1.00  0.00     0.000 HD 
BRANCH   3   5
HETATM    5  C   UNL     1     -11.595  11.210  70.107  1.00  0.00    -0.323 C  
BRANCH   5   6
HETATM    6  C   UNL     1     -11.014   9.898  70.682  1.00  0.00    -0.337 C  
HETATM    7  H   UNL     1     -12.819   9.499  71.643  1.00  0.00     0.000 HD 
HETATM    8  O   UNL     1      -9.874   9.533  70.431  1.00  0.00    -0.239 OA 
HETATM    9  N   UNL     1     -11.842   9.219  71.560  1.00  0.00    -0.347 N  
BRANCH   9  10
HETATM   10  CA  UNL     1     -11.336   8.084  72.389  1.00  0.00    -0.382 C  
HETATM   11  N   UNL     1      -9.720   6.865  71.926  1.00  0.00    -0.162 N  
HETATM   12  C   UNL     1      -9.779   8.042  72.587  1.00  0.00    -0.264 C  
HETATM   13  C   UNL     1     -11.139   6.701  71.712  1.00  0.00    -0.249 C  
HETATM   14  O   UNL     1      -8.954   8.825  72.989  1.00  0.00    -0.309 OA 
HETATM   15  S   UNL     1     -11.373   6.567  69.924  1.00  0.00    -0.396 SA 
HETATM   16  C   UNL     1     -10.400   5.052  69.837  1.00  0.00    -0.228 C  
HETATM   17  C   UNL     1      -9.048   5.087  70.514  1.00  0.00    -0.180 C  
HETATM   18  CA  UNL     1      -8.757   5.988  71.498  1.00  0.00    -0.132 C  
HETATM   19  O   UNL     1      -7.382   6.007  73.459  1.00  0.00    -0.088 OA 
HETATM   20  C   UNL     1      -7.345   5.997  72.199  1.00  0.00    -0.094 C  
HETATM   21  OXT UNL     1      -6.373   5.820  71.405  1.00  0.00    -0.040 OA 
BRANCH  17  22
HETATM   22  C   UNL     1      -8.116   3.940  70.120  1.00  0.00    -0.056 C  
BRANCH  22  23
HETATM   23  N   UNL     1      -8.488   2.453  70.478  1.00  0.00    -0.049 N  
HETATM   24  C   UNL     1      -9.290   2.214  71.744  1.00  0.00    -0.106 C  
HETATM   25  C   UNL     1      -9.163   1.832  69.262  1.00  0.00    -0.116 C  
HETATM   26  C   UNL     1      -8.291   2.473  72.847  1.00  0.00    -0.070 C  
HETATM   27  C   UNL     1      -7.073   1.717  72.346  1.00  0.00    -0.023 C  
HETATM   28  C   UNL     1      -7.179   1.698  70.813  1.00  0.00    -0.033 C  
ENDBRANCH  22  23
ENDBRANCH  17  22
ENDBRANCH   9  10
ENDBRANCH   5   6
BRANCH   5  29
HETATM   29  C   UNL     1     -11.186  11.674  68.777  1.00  0.00    -0.245 A  
HETATM   30  S   UNL     1      -9.850  12.582  66.805  1.00  0.00    -0.234 SA 
HETATM   31  C   UNL     1      -9.909  12.097  68.446  1.00  0.00    -0.200 A  
HETATM   32  H2  UNL     1     -11.644  12.715  64.667  1.00  0.00     0.000 HD 
HETATM   33  H1  UNL     1     -13.140  12.110  65.368  1.00  0.00     0.000 HD 
HETATM   34  C   UNL     1     -11.509  12.184  66.634  1.00  0.00    -0.365 A  
HETATM   35  N   UNL     1     -12.153  12.346  65.470  1.00  0.00    -0.559 NA 
HETATM   36  N   UNL     1     -12.087  11.712  67.711  1.00  0.00    -0.579 NA 
ENDBRANCH   5  29
ENDBRANCH   3   5
ENDBRANCH   2   3
TORSDOF 7
ENDMDL
MODEL      116
REMARK 921   NORMALIZED FREE ENERGY PREDICTED BY IDOCK:   -4.07 KCAL/MOL
REMARK 922        TOTAL FREE ENERGY PREDICTED BY IDOCK:   -6.85 KCAL/MOL
REMARK 923 INTER-LIGAND FREE ENERGY PREDICTED BY IDOCK:   -5.84 KCAL/MOL
REMARK 924 INTRA-LIGAND FREE ENERGY PREDICTED BY IDOCK:   -1.01 KCAL/MOL
REMARK 927      BINDING AFFINITY PREDICTED BY RF-SCORE:    0.00 PKD
ROOT
HETATM    1  C   UNL     1      -7.775  16.421  69.391  1.00  0.00    -0.072 C  
HETATM    2  O   UNL     1      -8.928  16.309  68.566  1.00  0.00    -0.201 OA 
ENDROOT
BRANCH   2   3
HETATM    3  N   UNL     1      -9.430  15.007  68.668  1.00  0.00    -0.205 NA 
HETATM    4  H   UNL     1      -9.932  14.656  69.484  1.00  0.00     0.000 HD 
BRANCH   3   5
HETATM    5  C   UNL     1      -9.184  14.291  67.604  1.00  0.00    -0.194 C  
BRANCH   5   6
HETATM    6  C   UNL     1      -7.935  13.398  67.426  1.00  0.00    -0.163 C  
HETATM    7  H   UNL     1      -9.128  11.691  67.455  1.00  0.00     0.000 HD 
HETATM    8  O   UNL     1      -6.812  13.873  67.319  1.00  0.00    -0.205 OA 
HETATM    9  N   UNL     1      -8.168  12.035  67.483  1.00  0.00    -0.150 N  
BRANCH   9  10
HETATM   10  CA  UNL     1      -7.047  11.055  67.584  1.00  0.00    -0.088 C  
HETATM   11  N   UNL     1      -7.220   8.989  67.456  1.00  0.00    -0.079 N  
HETATM   12  C   UNL     1      -7.046   9.923  66.494  1.00  0.00    -0.094 C  
HETATM   13  C   UNL     1      -7.175   9.881  68.591  1.00  0.00    -0.072 C  
HETATM   14  O   UNL     1      -7.075   9.907  65.289  1.00  0.00    -0.116 OA 
HETATM   15  S   UNL     1      -8.737   9.661  69.475  1.00  0.00    -0.201 SA 
HETATM   16  C   UNL     1      -8.373   7.932  69.836  1.00  0.00    -0.122 C  
HETATM   17  C   UNL     1      -7.937   7.083  68.664  1.00  0.00    -0.120 C  
HETATM   18  CA  UNL     1      -7.407   7.633  67.532  1.00  0.00    -0.095 C  
HETATM   19  O   UNL     1      -5.787   6.973  65.895  1.00  0.00    -0.033 OA 
HETATM   20  C   UNL     1      -6.945   6.726  66.327  1.00  0.00    -0.062 C  
HETATM   21  OXT UNL     1      -7.732   5.765  66.074  1.00  0.00    -0.092 OA 
BRANCH  17  22
HETATM   22  C   UNL     1      -7.987   5.577  68.924  1.00  0.00    -0.095 C  
BRANCH  22  23
HETATM   23  N   UNL     1      -9.367   4.819  68.953  1.00  0.00    -0.125 N  
HETATM   24  C   UNL     1      -9.924   4.424  70.308  1.00  0.00    -0.177 C  
HETATM   25  C   UNL     1     -10.370   5.638  68.152  1.00  0.00    -0.197 C  
HETATM   26  C   UNL     1      -9.028   3.287  70.740  1.00  0.00    -0.165 C  
HETATM   27  C   UNL     1      -8.954   2.454  69.473  1.00  0.00    -0.165 C  
HETATM   28  C   UNL     1      -9.165   3.428  68.304  1.00  0.00    -0.179 C  
ENDBRANCH  22  23
ENDBRANCH  17  22
ENDBRANCH   9  10
ENDBRANCH   5   6
BRANCH   5  29
HETATM   29  C   UNL     1     -10.195  14.361  66.543  1.00  0.00    -0.274 A  
HETATM   30  S   UNL     1     -11.561  15.053  64.506  1.00  0.00    -0.281 SA 
HETATM   31  C   UNL     1     -10.202  15.294  65.520  1.00  0.00    -0.388 A  
HETATM   32  H2  UNL     1     -13.715  13.277  64.393  1.00  0.00     0.000 HD 
HETATM   33  H1  UNL     1     -13.431  12.224  65.775  1.00  0.00     0.000 HD 
HETATM   34  C   UNL     1     -12.040  13.722  65.474  1.00  0.00    -0.410 A  
HETATM   35  N   UNL     1     -13.145  13.016  65.198  1.00  0.00    -0.718 NA 
HETATM   36  N   UNL     1     -11.252  13.451  66.485  1.00  0.00    -0.301 NA 
ENDBRANCH   5  29
ENDBRANCH   3   5
ENDBRANCH   2   3
TORSDOF 7
ENDMDL
MODEL      117
REMARK 921   NORMALIZED FREE ENERGY PREDICTED BY IDOCK:   -4.05 KCAL/MOL
REMARK 922        TOTAL FREE ENERGY PREDICTED BY IDOCK:   -6.83 KCAL/MOL
REMARK 923 INTER-LIGAND FREE ENERGY PREDICTED BY IDOCK:   -5.84 KCAL/MOL
REMARK 924 INTRA-LIGAND FREE ENERGY PREDICTED BY IDOCK:   -0.99 KCAL/MOL
REMARK 927      BINDING AFFINITY PREDICTED BY RF-SCORE:    0.00 PKD
ROOT
HETATM    1  C   UNL     1      -9.999   7.138  73.744  1.00  0.00    -0.331 C  
HETATM    2  O   UNL     1     -11.356   6.949  73.362  1.00  0.00    -0.064 OA 
ENDROOT
BRANCH   2   3
HETATM    3  N   UNL     1     -11.936   8.201  73.127  1.00  0.00    -0.517 NA 
HETATM    4  H   UNL     1     -12.166   8.866  73.864  1.00  0.00     0.000 HD 
BRANCH   3   5
HETATM    5  C   UNL     1     -12.149   8.421  71.857  1.00  0.00    -0.342 C  
BRANCH   5   6
HETATM    6  C   UNL     1     -12.257   7.310  70.788  1.00  0.00    -0.217 C  
HETATM    7  H   UNL     1     -10.280   7.638  70.221  1.00  0.00     0.000 HD 
HETATM    8  O   UNL     1     -13.285   6.664  70.631  1.00  0.00     0.230 OA 
HETATM    9  N   UNL     1     -11.147   7.160  69.974  1.00  0.00    -0.267 N  
BRANCH   9  10
HETATM   10  CA  UNL     1     -11.189   6.316  68.744  1.00  0.00    -0.273 C  
HETATM   11  N   UNL     1      -9.567   5.840  67.538  1.00  0.00    -0.112 N  
HETATM   12  C   UNL     1     -10.059   5.229  68.638  1.00  0.00    -0.168 C  
HETATM   13  C   UNL     1     -10.568   6.876  67.437  1.00  0.00    -0.303 C  
HETATM   14  O   UNL     1      -9.673   4.336  69.351  1.00  0.00    -0.192 OA 
HETATM   15  S   UNL     1      -9.680   8.451  67.503  1.00  0.00    -0.174 SA 
HETATM   16  C   UNL     1      -8.784   8.092  65.979  1.00  0.00    -0.157 C  
HETATM   17  C   UNL     1      -8.108   6.741  65.905  1.00  0.00    -0.123 C  
HETATM   18  CA  UNL     1      -8.502   5.693  66.687  1.00  0.00    -0.113 C  
HETATM   19  O   UNL     1      -8.575   3.310  66.457  1.00  0.00    -0.107 OA 
HETATM   20  C   UNL     1      -7.792   4.289  66.581  1.00  0.00    -0.098 C  
HETATM   21  OXT UNL     1      -6.532   4.356  66.464  1.00  0.00    -0.036 OA 
BRANCH  17  22
HETATM   22  C   UNL     1      -7.078   6.614  64.782  1.00  0.00    -0.057 C  
BRANCH  22  23
HETATM   23  N   UNL     1      -7.543   6.497  63.283  1.00  0.00    -0.075 N  
HETATM   24  C   UNL     1      -8.708   5.574  62.978  1.00  0.00     0.088 C  
HETATM   25  C   UNL     1      -7.792   7.905  62.757  1.00  0.00    -0.143 C  
HETATM   26  C   UNL     1      -8.116   4.194  63.143  1.00  0.00    -0.081 C  
HETATM   27  C   UNL     1      -6.802   4.330  62.395  1.00  0.00    -0.031 C  
HETATM   28  C   UNL     1      -6.411   5.814  62.479  1.00  0.00    -0.025 C  
ENDBRANCH  22  23
ENDBRANCH  17  22
ENDBRANCH   9  10
ENDBRANCH   5   6
BRANCH   5  29
HETATM   29  C   UNL     1     -12.305   9.828  71.473  1.00  0.00    -0.405 A  
HETATM   30  S   UNL     1     -12.134  12.073  70.277  1.00  0.00    -0.245 SA 
HETATM   31  C   UNL     1     -11.734  10.409  70.354  1.00  0.00    -0.331 A  
HETATM   32  H2  UNL     1     -13.633  13.867  71.808  1.00  0.00     0.000 HD 
HETATM   33  H1  UNL     1     -14.237  12.860  73.118  1.00  0.00     0.000 HD 
HETATM   34  C   UNL     1     -13.050  11.911  71.718  1.00  0.00    -0.360 A  
HETATM   35  N   UNL     1     -13.692  12.955  72.261  1.00  0.00    -0.526 NA 
HETATM   36  N   UNL     1     -13.078  10.708  72.234  1.00  0.00    -0.282 NA 
ENDBRANCH   5  29
ENDBRANCH   3   5
ENDBRANCH   2   3
TORSDOF 7
ENDMDL
MODEL      118
REMARK 921   NORMALIZED FREE ENERGY PREDICTED BY IDOCK:   -4.03 KCAL/MOL
REMARK 922        TOTAL FREE ENERGY PREDICTED BY IDOCK:   -6.80 KCAL/MOL
REMARK 923 INTER-LIGAND FREE ENERGY PREDICTED BY IDOCK:   -6.33 KCAL/MOL
REMARK 924 INTRA-LIGAND FREE ENERGY PREDICTED BY IDOCK:   -0.46 KCAL/MOL
REMARK 927      BINDING AFFINITY PREDICTED BY RF-SCORE:    0.00 PKD
ROOT
HETATM    1  C   UNL     1     -13.234  15.837  72.351  1.00  0.00    -0.462 C  
HETATM    2  O   UNL     1     -13.210  15.228  71.066  1.00  0.00    -0.444 OA 
ENDROOT
BRANCH   2   3
HETATM    3  N   UNL     1     -12.233  14.226  71.061  1.00  0.00    -0.339 NA 
HETATM    4  H   UNL     1     -11.946  13.710  71.892  1.00  0.00     0.000 HD 
BRANCH   3   5
HETATM    5  C   UNL     1     -11.729  14.027  69.872  1.00  0.00    -0.303 C  
BRANCH   5   6
HETATM    6  C   UNL     1     -11.874  12.710  69.076  1.00  0.00    -0.294 C  
HETATM    7  H   UNL     1     -11.498  11.604  70.800  1.00  0.00     0.000 HD 
HETATM    8  O   UNL     1     -12.141  12.705  67.882  1.00  0.00    -0.334 OA 
HETATM    9  N   UNL     1     -11.599  11.554  69.787  1.00  0.00    -0.314 N  
BRANCH   9  10
HETATM   10  CA  UNL     1     -11.447  10.235  69.103  1.00  0.00    -0.147 C  
HETATM   11  N   UNL     1      -9.774   9.007  69.187  1.00  0.00    -0.164 N  
HETATM   12  C   UNL     1     -10.856   9.084  69.993  1.00  0.00    -0.231 C  
HETATM   13  C   UNL     1     -10.192   9.997  68.221  1.00  0.00    -0.173 C  
HETATM   14  O   UNL     1     -11.148   8.602  71.060  1.00  0.00    -0.244 OA 
HETATM   15  S   UNL     1      -8.897  11.260  68.193  1.00  0.00    -0.165 SA 
HETATM   16  C   UNL     1      -7.662  10.083  67.608  1.00  0.00    -0.091 C  
HETATM   17  C   UNL     1      -7.561   8.785  68.375  1.00  0.00    -0.095 C  
HETATM   18  CA  UNL     1      -8.591   8.315  69.138  1.00  0.00    -0.138 C  
HETATM   19  O   UNL     1      -9.434   6.158  69.749  1.00  0.00    -0.148 OA 
HETATM   20  C   UNL     1      -8.469   6.950  69.918  1.00  0.00    -0.140 C  
HETATM   21  OXT UNL     1      -7.341   6.770  70.467  1.00  0.00    -0.077 OA 
BRANCH  17  22
HETATM   22  C   UNL     1      -6.290   7.983  68.091  1.00  0.00    -0.054 C  
BRANCH  22  23
HETATM   23  N   UNL     1      -6.268   6.905  66.943  1.00  0.00    -0.039 N  
HETATM   24  C   UNL     1      -5.466   7.224  65.695  1.00  0.00    -0.028 C  
HETATM   25  C   UNL     1      -5.847   5.576  67.555  1.00  0.00    -0.017 C  
HETATM   26  C   UNL     1      -6.296   8.280  65.003  1.00  0.00    -0.049 C  
HETATM   27  C   UNL     1      -7.691   7.689  65.101  1.00  0.00    -0.110 C  
HETATM   28  C   UNL     1      -7.695   6.800  66.354  1.00  0.00    -0.098 C  
ENDBRANCH  22  23
ENDBRANCH  17  22
ENDBRANCH   9  10
ENDBRANCH   5   6
BRANCH   5  29
HETATM   29  C   UNL     1     -11.000  15.160  69.293  1.00  0.00    -0.258 A  
HETATM   30  S   UNL     1     -10.354  17.217  67.933  1.00  0.00    -0.364 SA 
HETATM   31  C   UNL     1     -11.533  16.060  68.385  1.00  0.00    -0.331 A  
HETATM   32  H2  UNL     1      -7.683  17.741  68.568  1.00  0.00     0.000 HD 
HETATM   33  H1  UNL     1      -7.298  16.476  69.729  1.00  0.00     0.000 HD 
HETATM   34  C   UNL     1      -9.223  16.464  68.980  1.00  0.00    -0.247 A  
HETATM   35  N   UNL     1      -7.971  16.924  69.107  1.00  0.00    -0.167 NA 
HETATM   36  N   UNL     1      -9.673  15.425  69.638  1.00  0.00    -0.267 NA 
ENDBRANCH   5  29
ENDBRANCH   3   5
ENDBRANCH   2   3
TORSDOF 7
ENDMDL
MODEL      119
REMARK 921   NORMALIZED FREE ENERGY PREDICTED BY IDOCK:   -3.98 KCAL/MOL
REMARK 922        TOTAL FREE ENERGY PREDICTED BY IDOCK:   -6.73 KCAL/MOL
REMARK 923 INTER-LIGAND FREE ENERGY PREDICTED BY IDOCK:   -5.67 KCAL/MOL
REMARK 924 INTRA-LIGAND FREE ENERGY PREDICTED BY IDOCK:   -1.06 KCAL/MOL
REMARK 927      BINDING AFFINITY PREDICTED BY RF-SCORE:    0.00 PKD
ROOT
HETATM    1  C   UNL     1     -11.014  14.839  67.524  1.00  0.00    -0.304 C  
HETATM    2  O   UNL     1      -9.866  14.001  67.490  1.00  0.00    -0.229 OA 
ENDROOT
BRANCH   2   3
HETATM    3  N   UNL     1      -9.862  13.197  68.635  1.00  0.00    -0.400 NA 
HETATM    4  H   UNL     1     -10.195  13.508  69.548  1.00  0.00     0.000 HD 
BRANCH   3   5
HETATM    5  C   UNL     1      -9.382  12.003  68.406  1.00  0.00    -0.175 C  
BRANCH   5   6
HETATM    6  C   UNL     1     -10.232  10.712  68.394  1.00  0.00    -0.173 C  
HETATM    7  H   UNL     1     -10.008  10.524  70.456  1.00  0.00     0.000 HD 
HETATM    8  O   UNL     1     -10.719  10.270  67.362  1.00  0.00    -0.255 OA 
HETATM    9  N   UNL     1     -10.330  10.056  69.609  1.00  0.00    -0.231 N  
BRANCH   9  10
HETATM   10  CA  UNL     1     -10.894   8.677  69.707  1.00  0.00    -0.183 C  
HETATM   11  N   UNL     1     -10.397   7.258  71.140  1.00  0.00    -0.199 N  
HETATM   12  C   UNL     1     -11.332   8.234  71.150  1.00  0.00    -0.263 C  
HETATM   13  C   UNL     1      -9.913   7.478  69.796  1.00  0.00    -0.186 C  
HETATM   14  O   UNL     1     -12.061   8.694  71.993  1.00  0.00    -0.325 OA 
HETATM   15  S   UNL     1      -8.142   7.813  69.941  1.00  0.00    -0.121 SA 
HETATM   16  C   UNL     1      -7.814   6.175  70.622  1.00  0.00    -0.106 C  
HETATM   17  C   UNL     1      -8.691   5.744  71.775  1.00  0.00    -0.136 C  
HETATM   18  CA  UNL     1      -9.915   6.305  72.000  1.00  0.00    -0.168 C  
HETATM   19  O   UNL     1     -12.010   5.559  72.890  1.00  0.00    -0.209 OA 
HETATM   20  C   UNL     1     -10.819   5.829  73.201  1.00  0.00    -0.276 C  
HETATM   21  OXT UNL     1     -10.180   5.619  74.276  1.00  0.00    -0.235 OA 
BRANCH  17  22
HETATM   22  C   UNL     1      -8.164   4.535  72.549  1.00  0.00    -0.109 C  
BRANCH  22  23
HETATM   23  N   UNL     1      -8.290   3.086  71.946  1.00  0.00    -0.058 N  
HETATM   24  C   UNL     1      -9.664   2.631  71.491  1.00  0.00    -0.152 C  
HETATM   25  C   UNL     1      -7.258   2.949  70.834  1.00  0.00    -0.033 C  
HETATM   26  C   UNL     1     -10.407   2.406  72.787  1.00  0.00    -0.240 C  
HETATM   27  C   UNL     1      -9.382   1.637  73.602  1.00  0.00    -0.077 C  
HETATM   28  C   UNL     1      -8.004   2.068  73.076  1.00  0.00    -0.049 C  
ENDBRANCH  22  23
ENDBRANCH  17  22
ENDBRANCH   9  10
ENDBRANCH   5   6
BRANCH   5  29
HETATM   29  C   UNL     1      -7.943  11.938  68.132  1.00  0.00    -0.151 A  
HETATM   30  S   UNL     1      -5.406  12.097  68.320  1.00  0.00    -0.057 SA 
HETATM   31  C   UNL     1      -6.951  12.289  69.032  1.00  0.00    -0.078 A  
HETATM   32  H2  UNL     1      -4.405  11.254  65.851  1.00  0.00     0.000 HD 
HETATM   33  H1  UNL     1      -5.863  10.865  64.946  1.00  0.00     0.000 HD 
HETATM   34  C   UNL     1      -6.147  11.545  66.876  1.00  0.00    -0.146 A  
HETATM   35  N   UNL     1      -5.422  11.192  65.805  1.00  0.00    -0.201 NA 
HETATM   36  N   UNL     1      -7.456  11.491  66.901  1.00  0.00    -0.149 NA 
ENDBRANCH   5  29
ENDBRANCH   3   5
ENDBRANCH   2   3
TORSDOF 7
ENDMDL
MODEL      120
REMARK 921   NORMALIZED FREE ENERGY PREDICTED BY IDOCK:   -3.94 KCAL/MOL
REMARK 922        TOTAL FREE ENERGY PREDICTED BY IDOCK:   -6.67 KCAL/MOL
REMARK 923 INTER-LIGAND FREE ENERGY PREDICTED BY IDOCK:   -5.83 KCAL/MOL
REMARK 924 INTRA-LIGAND FREE ENERGY PREDICTED BY IDOCK:   -0.83 KCAL/MOL
REMARK 927      BINDING AFFINITY PREDICTED BY RF-SCORE:    0.00 PKD
ROOT
HETATM    1  C   UNL     1     -11.615   6.594  70.519  1.00  0.00    -0.390 C  
HETATM    2  O   UNL     1     -10.702   5.505  70.471  1.00  0.00    -0.275 OA 
ENDROOT
BRANCH   2   3
HETATM    3  N   UNL     1     -10.204   5.391  69.168  1.00  0.00    -0.223 NA 
HETATM    4  H   UNL     1     -10.776   5.133  68.364  1.00  0.00     0.000 HD 
BRANCH   3   5
HETATM    5  C   UNL     1      -8.926   5.651  69.097  1.00  0.00    -0.113 C  
BRANCH   5   6
HETATM    6  C   UNL     1      -8.296   6.646  68.096  1.00  0.00    -0.117 C  
HETATM    7  H   UNL     1      -8.208   8.109  69.575  1.00  0.00     0.000 HD 
HETATM    8  O   UNL     1      -8.056   6.330  66.938  1.00  0.00    -0.107 OA 
HETATM    9  N   UNL     1      -8.104   7.930  68.577  1.00  0.00    -0.121 N  
BRANCH   9  10
HETATM   10  CA  UNL     1      -7.747   9.058  67.667  1.00  0.00    -0.097 C  
HETATM   11  N   UNL     1      -8.612  10.946  67.673  1.00  0.00    -0.123 N  
HETATM   12  C   UNL     1      -7.564  10.452  68.368  1.00  0.00    -0.093 C  
HETATM   13  C   UNL     1      -8.884   9.768  66.883  1.00  0.00    -0.138 C  
HETATM   14  O   UNL     1      -6.895  10.858  69.286  1.00  0.00    -0.081 OA 
HETATM   15  S   UNL     1     -10.597   9.306  67.230  1.00  0.00    -0.173 SA 
HETATM   16  C   UNL     1     -11.228  10.852  66.550  1.00  0.00     0.067 C  
HETATM   17  C   UNL     1     -10.574  12.119  67.055  1.00  0.00    -0.256 C  
HETATM   18  CA  UNL     1      -9.325  12.116  67.606  1.00  0.00    -0.187 C  
HETATM   19  O   UNL     1      -7.483  13.644  67.697  1.00  0.00    -0.153 OA 
HETATM   20  C   UNL     1      -8.657  13.451  68.112  1.00  0.00    -0.174 C  
HETATM   21  OXT UNL     1      -9.453  14.226  68.724  1.00  0.00    -0.197 OA 
BRANCH  17  22
HETATM   22  C   UNL     1     -11.355  13.397  66.745  1.00  0.00    -0.325 C  
BRANCH  22  23
HETATM   23  N   UNL     1     -11.138  14.153  65.382  1.00  0.00    -0.309 N  
HETATM   24  C   UNL     1     -12.347  14.347  64.485  1.00  0.00    -0.418 C  
HETATM   25  C   UNL     1     -10.446  15.476  65.684  1.00  0.00    -0.374 C  
HETATM   26  C   UNL     1     -12.608  12.963  63.941  1.00  0.00    -0.334 C  
HETATM   27  C   UNL     1     -11.210  12.515  63.554  1.00  0.00    -0.525 C  
HETATM   28  C   UNL     1     -10.244  13.270  64.479  1.00  0.00    -0.310 C  
ENDBRANCH  22  23
ENDBRANCH  17  22
ENDBRANCH   9  10
ENDBRANCH   5   6
BRANCH   5  29
HETATM   29  C   UNL     1      -8.078   4.941  70.061  1.00  0.00    -0.073 A  
HETATM   30  S   UNL     1      -6.519   4.372  71.995  1.00  0.00    -0.023 SA 
HETATM   31  C   UNL     1      -7.425   5.537  71.127  1.00  0.00    -0.086 A  
HETATM   32  H2  UNL     1      -6.050   1.623  71.811  1.00  0.00     0.000 HD 
HETATM   33  H1  UNL     1      -7.003   1.153  70.409  1.00  0.00     0.000 HD 
HETATM   34  C   UNL     1      -7.063   3.155  70.917  1.00  0.00    -0.033 A  
HETATM   35  N   UNL     1      -6.680   1.877  71.050  1.00  0.00    -0.024 NA 
HETATM   36  N   UNL     1      -7.873   3.563  69.971  1.00  0.00    -0.047 NA 
ENDBRANCH   5  29
ENDBRANCH   3   5
ENDBRANCH   2   3
TORSDOF 7
ENDMDL
MODEL      121
REMARK 921   NORMALIZED FREE ENERGY PREDICTED BY IDOCK:   -3.93 KCAL/MOL
REMARK 922        TOTAL FREE ENERGY PREDICTED BY IDOCK:   -6.65 KCAL/MOL
REMARK 923 INTER-LIGAND FREE ENERGY PREDICTED BY IDOCK:   -6.47 KCAL/MOL
REMARK 924 INTRA-LIGAND FREE ENERGY PREDICTED BY IDOCK:   -0.19 KCAL/MOL
REMARK 927      BINDING AFFINITY PREDICTED BY RF-SCORE:    0.00 PKD
ROOT
HETATM    1  C   UNL     1     -12.694  15.502  72.554  1.00  0.00    -0.407 C  
HETATM    2  O   UNL     1     -12.363  16.302  71.425  1.00  0.00    -0.307 OA 
ENDROOT
BRANCH   2   3
HETATM    3  N   UNL     1     -11.081  15.952  70.986  1.00  0.00    -0.300 NA 
HETATM    4  H   UNL     1     -10.266  15.906  71.596  1.00  0.00     0.000 HD 
BRANCH   3   5
HETATM    5  C   UNL     1     -11.045  15.692  69.706  1.00  0.00    -0.313 C  
BRANCH   5   6
HETATM    6  C   UNL     1     -11.729  14.472  69.047  1.00  0.00    -0.311 C  
HETATM    7  H   UNL     1     -11.059  13.241  70.588  1.00  0.00     0.000 HD 
HETATM    8  O   UNL     1     -12.368  14.575  68.008  1.00  0.00    -0.172 OA 
HETATM    9  N   UNL     1     -11.496  13.256  69.666  1.00  0.00    -0.235 N  
BRANCH   9  10
HETATM   10  CA  UNL     1     -11.869  11.966  69.016  1.00  0.00    -0.308 C  
HETATM   11  N   UNL     1     -10.604  10.347  68.708  1.00  0.00    -0.195 N  
HETATM   12  C   UNL     1     -11.382  10.673  69.764  1.00  0.00    -0.301 C  
HETATM   13  C   UNL     1     -10.992  11.442  67.848  1.00  0.00    -0.240 C  
HETATM   14  O   UNL     1     -11.500  10.249  70.887  1.00  0.00    -0.338 OA 
HETATM   15  S   UNL     1      -9.471  12.330  67.438  1.00  0.00    -0.186 SA 
HETATM   16  C   UNL     1      -8.774  10.896  66.596  1.00  0.00    -0.155 C  
HETATM   17  C   UNL     1      -8.813   9.590  67.358  1.00  0.00    -0.134 C  
HETATM   18  CA  UNL     1      -9.694   9.377  68.379  1.00  0.00    -0.149 C  
HETATM   19  O   UNL     1     -10.871   7.489  69.267  1.00  0.00    -0.206 OA 
HETATM   20  C   UNL     1      -9.726   8.002  69.150  1.00  0.00    -0.163 C  
HETATM   21  OXT UNL     1      -8.579   7.521  69.395  1.00  0.00    -0.132 OA 
BRANCH  17  22
HETATM   22  C   UNL     1      -7.909   8.499  66.783  1.00  0.00    -0.091 C  
BRANCH  22  23
HETATM   23  N   UNL     1      -6.345   8.678  66.782  1.00  0.00    -0.059 N  
HETATM   24  C   UNL     1      -5.537   7.806  67.726  1.00  0.00    -0.036 C  
HETATM   25  C   UNL     1      -5.858   8.548  65.345  1.00  0.00    -0.044 C  
HETATM   26  C   UNL     1      -5.834   8.390  69.087  1.00  0.00    -0.038 C  
HETATM   27  C   UNL     1      -5.689   9.878  68.823  1.00  0.00    -0.035 C  
HETATM   28  C   UNL     1      -6.021  10.086  67.337  1.00  0.00    -0.054 C  
ENDBRANCH  22  23
ENDBRANCH  17  22
ENDBRANCH   9  10
ENDBRANCH   5   6
BRANCH   5  29
HETATM   29  C   UNL     1     -10.310  16.657  68.882  1.00  0.00    -0.300 A  
HETATM   30  S   UNL     1      -9.698  18.520  67.252  1.00  0.00    -0.311 SA 
HETATM   31  C   UNL     1     -10.899  17.608  68.065  1.00  0.00    -0.234 A  
HETATM   32  H2  UNL     1      -6.905  18.579  67.177  1.00  0.00     0.000 HD 
HETATM   33  H1  UNL     1      -6.454  17.304  68.303  1.00  0.00     0.000 HD 
HETATM   34  C   UNL     1      -8.480  17.612  68.048  1.00  0.00    -0.244 A  
HETATM   35  N   UNL     1      -7.178  17.844  67.831  1.00  0.00    -0.215 NA 
HETATM   36  N   UNL     1      -8.914  16.692  68.873  1.00  0.00    -0.254 NA 
ENDBRANCH   5  29
ENDBRANCH   3   5
ENDBRANCH   2   3
TORSDOF 7
ENDMDL
MODEL      122
REMARK 921   NORMALIZED FREE ENERGY PREDICTED BY IDOCK:   -3.92 KCAL/MOL
REMARK 922        TOTAL FREE ENERGY PREDICTED BY IDOCK:   -6.63 KCAL/MOL
REMARK 923 INTER-LIGAND FREE ENERGY PREDICTED BY IDOCK:   -5.63 KCAL/MOL
REMARK 924 INTRA-LIGAND FREE ENERGY PREDICTED BY IDOCK:   -1.00 KCAL/MOL
REMARK 927      BINDING AFFINITY PREDICTED BY RF-SCORE:    0.00 PKD
ROOT
HETATM    1  C   UNL     1     -11.116   6.618  67.113  1.00  0.00    -0.357 C  
HETATM    2  O   UNL     1     -10.624   5.353  66.689  1.00  0.00    -0.280 OA 
ENDROOT
BRANCH   2   3
HETATM    3  N   UNL     1      -9.929   5.521  65.486  1.00  0.00    -0.360 NA 
HETATM    4  H   UNL     1     -10.372   5.505  64.568  1.00  0.00     0.000 HD 
BRANCH   3   5
HETATM    5  C   UNL     1      -8.648   5.701  65.671  1.00  0.00    -0.150 C  
BRANCH   5   6
HETATM    6  C   UNL     1      -7.864   6.939  65.179  1.00  0.00    -0.120 C  
HETATM    7  H   UNL     1      -8.312   7.947  66.945  1.00  0.00     0.000 HD 
HETATM    8  O   UNL     1      -7.293   6.952  64.097  1.00  0.00    -0.072 OA 
HETATM    9  N   UNL     1      -7.926   8.047  66.006  1.00  0.00    -0.097 N  
BRANCH   9  10
HETATM   10  CA  UNL     1      -7.442   9.385  65.555  1.00  0.00    -0.095 C  
HETATM   11  N   UNL     1      -7.766  11.189  66.532  1.00  0.00    -0.154 N  
HETATM   12  C   UNL     1      -6.785  10.271  66.674  1.00  0.00    -0.082 C  
HETATM   13  C   UNL     1      -8.465  10.546  65.443  1.00  0.00    -0.170 C  
HETATM   14  O   UNL     1      -5.890  10.110  67.467  1.00  0.00    -0.049 OA 
HETATM   15  S   UNL     1     -10.158  10.271  66.017  1.00  0.00    -0.227 SA 
HETATM   16  C   UNL     1     -10.463  12.039  66.193  1.00  0.00    -0.236 C  
HETATM   17  C   UNL     1      -9.425  12.822  66.964  1.00  0.00    -0.233 C  
HETATM   18  CA  UNL     1      -8.147  12.367  67.120  1.00  0.00    -0.167 C  
HETATM   19  O   UNL     1      -5.979  13.366  67.319  1.00  0.00    -0.341 OA 
HETATM   20  C   UNL     1      -7.077  13.208  67.917  1.00  0.00    -0.129 C  
HETATM   21  OXT UNL     1      -7.528  13.751  68.970  1.00  0.00    -0.088 OA 
BRANCH  17  22
HETATM   22  C   UNL     1      -9.882  14.215  67.400  1.00  0.00    -0.239 C  
BRANCH  22  23
HETATM   23  N   UNL     1      -9.732  15.444  66.428  1.00  0.00    -0.268 N  
HETATM   24  C   UNL     1      -8.368  16.102  66.333  1.00  0.00    -0.322 C  
HETATM   25  C   UNL     1     -10.249  15.025  65.058  1.00  0.00    -0.314 C  
HETATM   26  C   UNL     1      -8.237  16.833  67.648  1.00  0.00    -0.191 C  
HETATM   27  C   UNL     1      -9.597  17.497  67.769  1.00  0.00    -0.269 C  
HETATM   28  C   UNL     1     -10.580  16.609  66.991  1.00  0.00    -0.247 C  
ENDBRANCH  22  23
ENDBRANCH  17  22
ENDBRANCH   9  10
ENDBRANCH   5   6
BRANCH   5  29
HETATM   29  C   UNL     1      -7.958   4.639  66.411  1.00  0.00    -0.103 A  
HETATM   30  S   UNL     1      -7.059   2.384  67.189  1.00  0.00    -0.049 SA 
HETATM   31  C   UNL     1      -7.956   3.301  66.054  1.00  0.00    -0.088 A  
HETATM   32  H2  UNL     1      -5.613   2.905  69.523  1.00  0.00     0.000 HD 
HETATM   33  H1  UNL     1      -5.774   4.648  69.706  1.00  0.00     0.000 HD 
HETATM   34  C   UNL     1      -6.716   3.817  68.065  1.00  0.00    -0.046 A  
HETATM   35  N   UNL     1      -5.978   3.795  69.184  1.00  0.00    -0.023 NA 
HETATM   36  N   UNL     1      -7.218   4.917  67.562  1.00  0.00    -0.069 NA 
ENDBRANCH   5  29
ENDBRANCH   3   5
ENDBRANCH   2   3
TORSDOF 7
ENDMDL
MODEL      123
REMARK 921   NORMALIZED FREE ENERGY PREDICTED BY IDOCK:   -3.87 KCAL/MOL
REMARK 922        TOTAL FREE ENERGY PREDICTED BY IDOCK:   -6.57 KCAL/MOL
REMARK 923 INTER-LIGAND FREE ENERGY PREDICTED BY IDOCK:   -5.83 KCAL/MOL
REMARK 924 INTRA-LIGAND FREE ENERGY PREDICTED BY IDOCK:   -0.74 KCAL/MOL
REMARK 927      BINDING AFFINITY PREDICTED BY RF-SCORE:    0.00 PKD
ROOT
HETATM    1  C   UNL     1      -6.121   7.900  73.887  1.00  0.00    -0.078 C  
HETATM    2  O   UNL     1      -5.979   8.286  72.526  1.00  0.00    -0.050 OA 
ENDROOT
BRANCH   2   3
HETATM    3  N   UNL     1      -6.137   7.155  71.718  1.00  0.00    -0.037 NA 
HETATM    4  H   UNL     1      -5.772   6.233  71.957  1.00  0.00     0.000 HD 
BRANCH   3   5
HETATM    5  C   UNL     1      -6.802   7.412  70.623  1.00  0.00    -0.048 C  
BRANCH   5   6
HETATM    6  C   UNL     1      -6.336   8.407  69.536  1.00  0.00    -0.037 C  
HETATM    7  H   UNL     1      -7.498   9.911  70.389  1.00  0.00     0.000 HD 
HETATM    8  O   UNL     1      -5.544   8.083  68.661  1.00  0.00    -0.030 OA 
HETATM    9  N   UNL     1      -6.939   9.653  69.576  1.00  0.00    -0.054 N  
BRANCH   9  10
HETATM   10  CA  UNL     1      -6.789  10.628  68.456  1.00  0.00    -0.065 C  
HETATM   11  N   UNL     1      -8.137  12.128  67.960  1.00  0.00    -0.145 N  
HETATM   12  C   UNL     1      -7.098  12.124  68.824  1.00  0.00    -0.110 C  
HETATM   13  C   UNL     1      -7.960  10.788  67.449  1.00  0.00    -0.112 C  
HETATM   14  O   UNL     1      -6.700  12.889  69.667  1.00  0.00    -0.040 OA 
HETATM   15  S   UNL     1      -9.508   9.911  67.771  1.00  0.00    -0.141 SA 
HETATM   16  C   UNL     1     -10.445  11.025  66.706  1.00  0.00    -0.251 C  
HETATM   17  C   UNL     1     -10.244  12.504  66.947  1.00  0.00    -0.237 C  
HETATM   18  CA  UNL     1      -9.131  12.989  67.571  1.00  0.00    -0.191 C  
HETATM   19  O   UNL     1      -7.816  14.987  67.434  1.00  0.00    -0.169 OA 
HETATM   20  C   UNL     1      -8.936  14.537  67.798  1.00  0.00    -0.190 C  
HETATM   21  OXT UNL     1      -9.991  15.143  68.154  1.00  0.00    -0.218 OA 
BRANCH  17  22
HETATM   22  C   UNL     1     -11.300  13.397  66.293  1.00  0.00    -0.306 C  
BRANCH  22  23
HETATM   23  N   UNL     1     -11.121  13.885  64.806  1.00  0.00    -0.365 N  
HETATM   24  C   UNL     1     -12.310  13.746  63.873  1.00  0.00    -0.292 C  
HETATM   25  C   UNL     1     -10.600  15.316  64.841  1.00  0.00    -0.351 C  
HETATM   26  C   UNL     1     -12.386  12.258  63.620  1.00  0.00    -0.664 C  
HETATM   27  C   UNL     1     -10.931  11.916  63.350  1.00  0.00    -0.470 C  
HETATM   28  C   UNL     1     -10.096  12.954  64.115  1.00  0.00    -0.187 C  
ENDBRANCH  22  23
ENDBRANCH  17  22
ENDBRANCH   9  10
ENDBRANCH   5   6
BRANCH   5  29
HETATM   29  C   UNL     1      -8.056   6.671  70.453  1.00  0.00    -0.117 A  
HETATM   30  S   UNL     1     -10.322   5.854  69.620  1.00  0.00    -0.277 SA 
HETATM   31  C   UNL     1      -8.987   6.914  69.457  1.00  0.00    -0.143 A  
HETATM   32  H2  UNL     1     -11.070   3.789  71.349  1.00  0.00     0.000 HD 
HETATM   33  H1  UNL     1      -9.714   3.701  72.468  1.00  0.00     0.000 HD 
HETATM   34  C   UNL     1      -9.574   5.132  70.984  1.00  0.00    -0.171 A  
HETATM   35  N   UNL     1     -10.158   4.130  71.656  1.00  0.00    -0.164 NA 
HETATM   36  N   UNL     1      -8.405   5.625  71.310  1.00  0.00    -0.125 NA 
ENDBRANCH   5  29
ENDBRANCH   3   5
ENDBRANCH   2   3
TORSDOF 7
ENDMDL
MODEL      124
REMARK 921   NORMALIZED FREE ENERGY PREDICTED BY IDOCK:   -3.87 KCAL/MOL
REMARK 922        TOTAL FREE ENERGY PREDICTED BY IDOCK:   -6.57 KCAL/MOL
REMARK 923 INTER-LIGAND FREE ENERGY PREDICTED BY IDOCK:   -6.19 KCAL/MOL
REMARK 924 INTRA-LIGAND FREE ENERGY PREDICTED BY IDOCK:   -0.38 KCAL/MOL
REMARK 927      BINDING AFFINITY PREDICTED BY RF-SCORE:    0.00 PKD
ROOT
HETATM    1  C   UNL     1     -10.403   4.149  65.502  1.00  0.00    -0.124 C  
HETATM    2  O   UNL     1     -10.519   4.483  66.880  1.00  0.00    -0.118 OA 
ENDROOT
BRANCH   2   3
HETATM    3  N   UNL     1     -10.994   5.795  66.986  1.00  0.00    -0.498 NA 
HETATM    4  H   UNL     1     -11.833   6.134  66.515  1.00  0.00     0.000 HD 
BRANCH   3   5
HETATM    5  C   UNL     1     -10.243   6.537  67.755  1.00  0.00    -0.167 C  
BRANCH   5   6
HETATM    6  C   UNL     1      -9.249   7.601  67.236  1.00  0.00    -0.131 C  
HETATM    7  H   UNL     1     -10.513   9.125  67.882  1.00  0.00     0.000 HD 
HETATM    8  O   UNL     1      -8.189   7.290  66.709  1.00  0.00    -0.116 OA 
HETATM    9  N   UNL     1      -9.681   8.913  67.332  1.00  0.00    -0.166 N  
BRANCH   9  10
HETATM   10  CA  UNL     1      -8.956  10.024  66.649  1.00  0.00    -0.139 C  
HETATM   11  N   UNL     1      -8.399  11.828  67.516  1.00  0.00    -0.147 N  
HETATM   12  C   UNL     1      -7.758  10.640  67.458  1.00  0.00    -0.101 C  
HETATM   13  C   UNL     1      -9.550  11.456  66.726  1.00  0.00    -0.188 C  
HETATM   14  O   UNL     1      -6.768  10.190  67.980  1.00  0.00    -0.062 OA 
HETATM   15  S   UNL     1     -10.998  11.741  67.772  1.00  0.00    -0.242 SA 
HETATM   16  C   UNL     1     -10.669  13.511  67.871  1.00  0.00    -0.247 C  
HETATM   17  C   UNL     1      -9.260  13.907  68.250  1.00  0.00    -0.207 C  
HETATM   18  CA  UNL     1      -8.202  13.061  68.083  1.00  0.00    -0.157 C  
HETATM   19  O   UNL     1      -5.872  13.299  67.580  1.00  0.00    -0.268 OA 
HETATM   20  C   UNL     1      -6.739  13.501  68.472  1.00  0.00    -0.095 C  
HETATM   21  OXT UNL     1      -6.668  14.152  69.557  1.00  0.00    -0.125 OA 
BRANCH  17  22
HETATM   22  C   UNL     1      -9.110  15.369  68.674  1.00  0.00    -0.195 C  
BRANCH  22  23
HETATM   23  N   UNL     1      -8.894  16.494  67.593  1.00  0.00    -0.191 N  
HETATM   24  C   UNL     1      -8.377  17.838  68.070  1.00  0.00    -0.249 C  
HETATM   25  C   UNL     1      -8.021  15.919  66.485  1.00  0.00    -0.196 C  
HETATM   26  C   UNL     1      -9.562  18.436  68.791  1.00  0.00    -0.345 C  
HETATM   27  C   UNL     1     -10.691  18.153  67.815  1.00  0.00    -0.355 C  
HETATM   28  C   UNL     1     -10.280  16.896  67.034  1.00  0.00    -0.297 C  
ENDBRANCH  22  23
ENDBRANCH  17  22
ENDBRANCH   9  10
ENDBRANCH   5   6
BRANCH   5  29
HETATM   29  C   UNL     1     -10.401   6.320  69.197  1.00  0.00    -0.216 A  
HETATM   30  S   UNL     1     -10.701   6.662  71.706  1.00  0.00    -0.233 SA 
HETATM   31  C   UNL     1     -10.587   7.326  70.131  1.00  0.00    -0.232 A  
HETATM   32  H2  UNL     1     -10.621   4.108  72.837  1.00  0.00     0.000 HD 
HETATM   33  H1  UNL     1     -10.400   3.063  71.438  1.00  0.00     0.000 HD 
HETATM   34  C   UNL     1     -10.515   5.089  71.048  1.00  0.00    -0.141 A  
HETATM   35  N   UNL     1     -10.511   3.999  71.829  1.00  0.00     0.028 NA 
HETATM   36  N   UNL     1     -10.384   5.036  69.746  1.00  0.00    -0.267 NA 
ENDBRANCH   5  29
ENDBRANCH   3   5
ENDBRANCH   2   3
TORSDOF 7
ENDMDL
MODEL      125
REMARK 921   NORMALIZED FREE ENERGY PREDICTED BY IDOCK:   -3.85 KCAL/MOL
REMARK 922        TOTAL FREE ENERGY PREDICTED BY IDOCK:   -6.55 KCAL/MOL
REMARK 923 INTER-LIGAND FREE ENERGY PREDICTED BY IDOCK:   -5.43 KCAL/MOL
REMARK 924 INTRA-LIGAND FREE ENERGY PREDICTED BY IDOCK:   -1.12 KCAL/MOL
REMARK 927      BINDING AFFINITY PREDICTED BY RF-SCORE:    0.00 PKD
ROOT
HETATM    1  C   UNL     1      -8.255  15.451  69.216  1.00  0.00    -0.252 C  
HETATM    2  O   UNL     1      -9.179  14.964  68.250  1.00  0.00    -0.177 OA 
ENDROOT
BRANCH   2   3
HETATM    3  N   UNL     1      -9.824  13.837  68.771  1.00  0.00    -0.393 NA 
HETATM    4  H   UNL     1     -10.367  13.844  69.634  1.00  0.00     0.000 HD 
BRANCH   3   5
HETATM    5  C   UNL     1      -9.651  12.776  68.030  1.00  0.00    -0.217 C  
BRANCH   5   6
HETATM    6  C   UNL     1      -8.714  11.603  68.396  1.00  0.00    -0.158 C  
HETATM    7  H   UNL     1      -9.966  10.267  67.403  1.00  0.00     0.000 HD 
HETATM    8  O   UNL     1      -7.682  11.776  69.032  1.00  0.00    -0.083 OA 
HETATM    9  N   UNL     1      -9.165  10.346  68.030  1.00  0.00    -0.138 N  
BRANCH   9  10
HETATM   10  CA  UNL     1      -8.507   9.104  68.531  1.00  0.00    -0.128 C  
HETATM   11  N   UNL     1      -7.837   7.524  67.361  1.00  0.00    -0.116 N  
HETATM   12  C   UNL     1      -7.220   8.663  67.746  1.00  0.00    -0.088 C  
HETATM   13  C   UNL     1      -9.073   7.730  68.081  1.00  0.00    -0.129 C  
HETATM   14  O   UNL     1      -6.184   9.203  67.446  1.00  0.00    -0.057 OA 
HETATM   15  S   UNL     1     -10.393   7.697  66.845  1.00  0.00    -0.290 SA 
HETATM   16  C   UNL     1     -10.034   5.987  66.402  1.00  0.00    -0.093 C  
HETATM   17  C   UNL     1      -8.588   5.664  66.104  1.00  0.00    -0.132 C  
HETATM   18  CA  UNL     1      -7.565   6.441  66.567  1.00  0.00    -0.094 C  
HETATM   19  O   UNL     1      -5.302   6.069  67.260  1.00  0.00    -0.005 OA 
HETATM   20  C   UNL     1      -6.063   6.076  66.255  1.00  0.00    -0.032 C  
HETATM   21  OXT UNL     1      -5.865   5.675  65.069  1.00  0.00    -0.020 OA 
BRANCH  17  22
HETATM   22  C   UNL     1      -8.375   4.326  65.393  1.00  0.00    -0.110 C  
BRANCH  22  23
HETATM   23  N   UNL     1      -8.787   4.151  63.884  1.00  0.00    -0.121 N  
HETATM   24  C   UNL     1     -10.194   3.664  63.592  1.00  0.00    -0.216 C  
HETATM   25  C   UNL     1      -8.485   5.456  63.160  1.00  0.00    -0.070 C  
HETATM   26  C   UNL     1     -10.152   2.207  63.989  1.00  0.00    -0.052 C  
HETATM   27  C   UNL     1      -8.848   1.753  63.359  1.00  0.00    -0.087 C  
HETATM   28  C   UNL     1      -7.948   2.996  63.287  1.00  0.00    -0.069 C  
ENDBRANCH  22  23
ENDBRANCH  17  22
ENDBRANCH   9  10
ENDBRANCH   5   6
BRANCH   5  29
HETATM   29  C   UNL     1     -10.430  12.734  66.788  1.00  0.00    -0.241 A  
HETATM   30  S   UNL     1     -12.318  12.838  65.078  1.00  0.00    -0.492 SA 
HETATM   31  C   UNL     1     -11.780  13.030  66.693  1.00  0.00    -0.381 A  
HETATM   32  H2  UNL     1     -11.174  12.108  62.635  1.00  0.00     0.000 HD 
HETATM   33  H1  UNL     1      -9.490  11.819  63.059  1.00  0.00     0.000 HD 
HETATM   34  C   UNL     1     -10.729  12.396  64.609  1.00  0.00    -0.305 A  
HETATM   35  N   UNL     1     -10.435  12.083  63.339  1.00  0.00    -0.449 NA 
HETATM   36  N   UNL     1      -9.840  12.392  65.570  1.00  0.00    -0.236 NA 
ENDBRANCH   5  29
ENDBRANCH   3   5
ENDBRANCH   2   3
TORSDOF 7
ENDMDL
MODEL      126
REMARK 921   NORMALIZED FREE ENERGY PREDICTED BY IDOCK:   -3.84 KCAL/MOL
REMARK 922        TOTAL FREE ENERGY PREDICTED BY IDOCK:   -6.53 KCAL/MOL
REMARK 923 INTER-LIGAND FREE ENERGY PREDICTED BY IDOCK:   -6.58 KCAL/MOL
REMARK 924 INTRA-LIGAND FREE ENERGY PREDICTED BY IDOCK:    0.05 KCAL/MOL
REMARK 927      BINDING AFFINITY PREDICTED BY RF-SCORE:    0.00 PKD
ROOT
HETATM    1  C   UNL     1      -5.429   8.724  68.430  1.00  0.00    -0.038 C  
HETATM    2  O   UNL     1      -6.790   9.137  68.409  1.00  0.00    -0.063 OA 
ENDROOT
BRANCH   2   3
HETATM    3  N   UNL     1      -7.465   8.413  67.420  1.00  0.00    -0.092 NA 
HETATM    4  H   UNL     1      -7.015   8.043  66.583  1.00  0.00     0.000 HD 
BRANCH   3   5
HETATM    5  C   UNL     1      -8.735   8.266  67.687  1.00  0.00    -0.133 C  
BRANCH   5   6
HETATM    6  C   UNL     1      -9.864   9.086  67.023  1.00  0.00    -0.209 C  
HETATM    7  H   UNL     1      -9.243  10.797  68.035  1.00  0.00     0.000 HD 
HETATM    8  O   UNL     1     -10.641   8.583  66.222  1.00  0.00     0.051 OA 
HETATM    9  N   UNL     1      -9.982  10.394  67.460  1.00  0.00    -0.175 N  
BRANCH   9  10
HETATM   10  CA  UNL     1     -11.169  11.230  67.109  1.00  0.00    -0.275 C  
HETATM   11  N   UNL     1     -11.118  13.201  66.457  1.00  0.00    -0.289 N  
HETATM   12  C   UNL     1     -11.043  12.041  65.769  1.00  0.00    -0.324 C  
HETATM   13  C   UNL     1     -11.314  12.627  67.768  1.00  0.00    -0.297 C  
HETATM   14  O   UNL     1     -10.789  11.754  64.625  1.00  0.00    -0.284 OA 
HETATM   15  S   UNL     1      -9.965  13.245  68.802  1.00  0.00     0.045 SA 
HETATM   16  C   UNL     1     -10.510  14.954  68.618  1.00  0.00    -0.242 C  
HETATM   17  C   UNL     1     -10.776  15.422  67.205  1.00  0.00    -0.307 C  
HETATM   18  CA  UNL     1     -11.044  14.545  66.194  1.00  0.00    -0.334 C  
HETATM   19  O   UNL     1     -12.369  14.575  64.198  1.00  0.00    -0.622 OA 
HETATM   20  C   UNL     1     -11.333  15.056  64.730  1.00  0.00    -0.406 C  
HETATM   21  OXT UNL     1     -10.582  16.007  64.358  1.00  0.00    -0.350 OA 
BRANCH  17  22
HETATM   22  C   UNL     1     -10.880  16.940  67.054  1.00  0.00    -0.055 C  
BRANCH  22  23
HETATM   23  N   UNL     1      -9.627  17.855  67.317  1.00  0.00    -0.267 N  
HETATM   24  C   UNL     1      -8.634  18.031  66.183  1.00  0.00    -0.096 C  
HETATM   25  C   UNL     1     -10.126  19.196  67.838  1.00  0.00    -0.386 C  
HETATM   26  C   UNL     1      -7.933  16.694  66.118  1.00  0.00    -0.237 C  
HETATM   27  C   UNL     1      -7.650  16.423  67.585  1.00  0.00    -0.161 C  
HETATM   28  C   UNL     1      -8.739  17.161  68.377  1.00  0.00    -0.246 C  
ENDBRANCH  22  23
ENDBRANCH  17  22
ENDBRANCH   9  10
ENDBRANCH   5   6
BRANCH   5  29
HETATM   29  C   UNL     1      -9.060   7.233  68.676  1.00  0.00    -0.133 A  
HETATM   30  S   UNL     1      -9.925   5.998  70.732  1.00  0.00    -0.198 SA 
HETATM   31  C   UNL     1      -9.787   7.450  69.835  1.00  0.00    -0.178 A  
HETATM   32  H2  UNL     1      -9.082   3.350  70.440  1.00  0.00     0.000 HD 
HETATM   33  H1  UNL     1      -8.224   3.376  68.904  1.00  0.00     0.000 HD 
HETATM   34  C   UNL     1      -9.033   5.174  69.522  1.00  0.00    -0.099 A  
HETATM   35  N   UNL     1      -8.755   3.866  69.623  1.00  0.00    -0.072 NA 
HETATM   36  N   UNL     1      -8.654   5.908  68.505  1.00  0.00    -0.111 NA 
ENDBRANCH   5  29
ENDBRANCH   3   5
ENDBRANCH   2   3
TORSDOF 7
ENDMDL
MODEL      127
REMARK 921   NORMALIZED FREE ENERGY PREDICTED BY IDOCK:   -3.76 KCAL/MOL
REMARK 922        TOTAL FREE ENERGY PREDICTED BY IDOCK:   -6.42 KCAL/MOL
REMARK 923 INTER-LIGAND FREE ENERGY PREDICTED BY IDOCK:   -5.81 KCAL/MOL
REMARK 924 INTRA-LIGAND FREE ENERGY PREDICTED BY IDOCK:   -0.61 KCAL/MOL
REMARK 927      BINDING AFFINITY PREDICTED BY RF-SCORE:    0.00 PKD
ROOT
HETATM    1  C   UNL     1     -11.936  13.342  63.883  1.00  0.00    -0.483 C  
HETATM    2  O   UNL     1     -10.668  13.056  64.460  1.00  0.00    -0.340 OA 
ENDROOT
BRANCH   2   3
HETATM    3  N   UNL     1     -10.863  12.585  65.763  1.00  0.00    -0.270 NA 
HETATM    4  H   UNL     1     -11.591  11.920  66.023  1.00  0.00     0.000 HD 
BRANCH   3   5
HETATM    5  C   UNL     1     -10.008  13.093  66.611  1.00  0.00    -0.270 C  
BRANCH   5   6
HETATM    6  C   UNL     1      -8.589  12.533  66.856  1.00  0.00    -0.158 C  
HETATM    7  H   UNL     1      -9.208  10.643  66.235  1.00  0.00     0.000 HD 
HETATM    8  O   UNL     1      -7.675  13.243  67.252  1.00  0.00    -0.157 OA 
HETATM    9  N   UNL     1      -8.452  11.166  66.677  1.00  0.00    -0.159 N  
BRANCH   9  10
HETATM   10  CA  UNL     1      -7.223  10.441  67.117  1.00  0.00    -0.091 C  
HETATM   11  N   UNL     1      -7.170   8.563  68.001  1.00  0.00    -0.086 N  
HETATM   12  C   UNL     1      -7.154   8.928  66.700  1.00  0.00    -0.084 C  
HETATM   13  C   UNL     1      -7.165   9.892  68.567  1.00  0.00    -0.076 C  
HETATM   14  O   UNL     1      -7.245   8.331  65.656  1.00  0.00    -0.069 OA 
HETATM   15  S   UNL     1      -8.643  10.011  69.602  1.00  0.00    -0.161 SA 
HETATM   16  C   UNL     1      -8.068   8.702  70.700  1.00  0.00    -0.120 C  
HETATM   17  C   UNL     1      -7.602   7.428  70.034  1.00  0.00    -0.089 C  
HETATM   18  CA  UNL     1      -7.199   7.402  68.729  1.00  0.00    -0.090 C  
HETATM   19  O   UNL     1      -5.605   6.155  67.447  1.00  0.00    -0.008 OA 
HETATM   20  C   UNL     1      -6.703   6.063  68.059  1.00  0.00    -0.061 C  
HETATM   21  OXT UNL     1      -7.389   5.044  68.372  1.00  0.00    -0.065 OA 
BRANCH  17  22
HETATM   22  C   UNL     1      -7.469   6.234  70.980  1.00  0.00    -0.085 C  
BRANCH  22  23
HETATM   23  N   UNL     1      -8.718   5.710  71.783  1.00  0.00    -0.135 N  
HETATM   24  C   UNL     1      -9.013   4.223  71.733  1.00  0.00    -0.120 C  
HETATM   25  C   UNL     1      -8.597   6.209  73.217  1.00  0.00    -0.123 C  
HETATM   26  C   UNL     1      -9.537   4.015  70.332  1.00  0.00    -0.265 C  
HETATM   27  C   UNL     1     -10.508   5.173  70.191  1.00  0.00    -0.305 C  
HETATM   28  C   UNL     1      -9.992   6.283  71.118  1.00  0.00    -0.181 C  
ENDBRANCH  22  23
ENDBRANCH  17  22
ENDBRANCH   9  10
ENDBRANCH   5   6
BRANCH   5  29
HETATM   29  C   UNL     1     -10.466  14.280  67.341  1.00  0.00    -0.264 A  
HETATM   30  S   UNL     1     -10.786  16.666  68.178  1.00  0.00    -0.323 SA 
HETATM   31  C   UNL     1     -10.034  15.573  67.096  1.00  0.00    -0.242 A  
HETATM   32  H2  UNL     1     -12.641  16.500  70.261  1.00  0.00     0.000 HD 
HETATM   33  H1  UNL     1     -13.012  14.781  70.323  1.00  0.00     0.000 HD 
HETATM   34  C   UNL     1     -11.647  15.363  68.886  1.00  0.00    -0.354 A  
HETATM   35  N   UNL     1     -12.501  15.556  69.901  1.00  0.00    -0.290 NA 
HETATM   36  N   UNL     1     -11.413  14.186  68.363  1.00  0.00    -0.283 NA 
ENDBRANCH   5  29
ENDBRANCH   3   5
ENDBRANCH   2   3
TORSDOF 7
ENDMDL
MODEL      128
REMARK 921   NORMALIZED FREE ENERGY PREDICTED BY IDOCK:   -3.76 KCAL/MOL
REMARK 922        TOTAL FREE ENERGY PREDICTED BY IDOCK:   -6.41 KCAL/MOL
REMARK 923 INTER-LIGAND FREE ENERGY PREDICTED BY IDOCK:   -5.62 KCAL/MOL
REMARK 924 INTRA-LIGAND FREE ENERGY PREDICTED BY IDOCK:   -0.79 KCAL/MOL
REMARK 927      BINDING AFFINITY PREDICTED BY RF-SCORE:    0.00 PKD
ROOT
HETATM    1  C   UNL     1     -12.029  12.589  63.773  1.00  0.00    -0.517 C  
HETATM    2  O   UNL     1     -10.864  12.175  64.476  1.00  0.00    -0.282 OA 
ENDROOT
BRANCH   2   3
HETATM    3  N   UNL     1     -10.419  13.235  65.274  1.00  0.00    -0.303 NA 
HETATM    4  H   UNL     1     -10.427  14.211  64.976  1.00  0.00     0.000 HD 
BRANCH   3   5
HETATM    5  C   UNL     1      -9.992  12.836  66.442  1.00  0.00    -0.265 C  
BRANCH   5   6
HETATM    6  C   UNL     1      -8.814  11.858  66.649  1.00  0.00    -0.191 C  
HETATM    7  H   UNL     1     -10.129  10.243  66.640  1.00  0.00     0.000 HD 
HETATM    8  O   UNL     1      -7.656  12.248  66.723  1.00  0.00    -0.046 OA 
HETATM    9  N   UNL     1      -9.169  10.531  66.827  1.00  0.00    -0.154 N  
BRANCH   9  10
HETATM   10  CA  UNL     1      -8.179   9.514  67.288  1.00  0.00    -0.114 C  
HETATM   11  N   UNL     1      -8.367   7.455  67.089  1.00  0.00    -0.117 N  
HETATM   12  C   UNL     1      -7.851   8.380  66.251  1.00  0.00    -0.098 C  
HETATM   13  C   UNL     1      -8.675   8.347  68.183  1.00  0.00    -0.143 C  
HETATM   14  O   UNL     1      -7.476   8.363  65.105  1.00  0.00    -0.079 OA 
HETATM   15  S   UNL     1     -10.449   8.182  68.491  1.00  0.00    -0.115 SA 
HETATM   16  C   UNL     1     -10.284   6.443  68.936  1.00  0.00    -0.184 C  
HETATM   17  C   UNL     1      -9.509   5.577  67.969  1.00  0.00    -0.129 C  
HETATM   18  CA  UNL     1      -8.614   6.106  67.085  1.00  0.00    -0.103 C  
HETATM   19  O   UNL     1      -6.563   5.388  66.078  1.00  0.00    -0.045 OA 
HETATM   20  C   UNL     1      -7.806   5.182  66.095  1.00  0.00    -0.103 C  
HETATM   21  OXT UNL     1      -8.494   4.248  65.584  1.00  0.00    -0.112 OA 
BRANCH  17  22
HETATM   22  C   UNL     1      -9.694   4.074  68.183  1.00  0.00    -0.074 C  
BRANCH  22  23
HETATM   23  N   UNL     1      -8.773   3.293  69.193  1.00  0.00    -0.076 N  
HETATM   24  C   UNL     1      -9.448   2.554  70.334  1.00  0.00    -0.108 C  
HETATM   25  C   UNL     1      -7.867   2.372  68.387  1.00  0.00    -0.054 C  
HETATM   26  C   UNL     1      -9.906   3.665  71.250  1.00  0.00    -0.211 C  
HETATM   27  C   UNL     1      -8.674   4.551  71.301  1.00  0.00    -0.137 C  
HETATM   28  C   UNL     1      -7.930   4.330  69.975  1.00  0.00    -0.055 C  
ENDBRANCH  22  23
ENDBRANCH  17  22
ENDBRANCH   9  10
ENDBRANCH   5   6
BRANCH   5  29
HETATM   29  C   UNL     1     -10.698  13.393  67.601  1.00  0.00    -0.247 A  
HETATM   30  S   UNL     1     -11.782  14.978  69.277  1.00  0.00    -0.331 SA 
HETATM   31  C   UNL     1     -10.966  14.738  67.791  1.00  0.00    -0.291 A  
HETATM   32  H2  UNL     1     -12.704  13.365  71.365  1.00  0.00     0.000 HD 
HETATM   33  H1  UNL     1     -12.248  11.747  70.844  1.00  0.00     0.000 HD 
HETATM   34  C   UNL     1     -11.744  13.288  69.563  1.00  0.00    -0.322 A  
HETATM   35  N   UNL     1     -12.271  12.752  70.673  1.00  0.00    -0.357 NA 
HETATM   36  N   UNL     1     -11.175  12.572  68.625  1.00  0.00    -0.258 NA 
ENDBRANCH   5  29
ENDBRANCH   3   5
ENDBRANCH   2   3
TORSDOF 7
ENDMDL
MODEL      129
REMARK 921   NORMALIZED FREE ENERGY PREDICTED BY IDOCK:   -3.75 KCAL/MOL
REMARK 922        TOTAL FREE ENERGY PREDICTED BY IDOCK:   -6.40 KCAL/MOL
REMARK 923 INTER-LIGAND FREE ENERGY PREDICTED BY IDOCK:   -6.85 KCAL/MOL
REMARK 924 INTRA-LIGAND FREE ENERGY PREDICTED BY IDOCK:    0.44 KCAL/MOL
REMARK 927      BINDING AFFINITY PREDICTED BY RF-SCORE:    0.00 PKD
ROOT
HETATM    1  C   UNL     1     -12.744  14.146  71.018  1.00  0.00    -0.362 C  
HETATM    2  O   UNL     1     -12.457  15.085  69.989  1.00  0.00    -0.320 OA 
ENDROOT
BRANCH   2   3
HETATM    3  N   UNL     1     -11.071  15.138  69.802  1.00  0.00    -0.264 NA 
HETATM    4  H   UNL     1     -10.416  15.462  70.513  1.00  0.00     0.000 HD 
BRANCH   3   5
HETATM    5  C   UNL     1     -10.712  14.729  68.615  1.00  0.00    -0.253 C  
BRANCH   5   6
HETATM    6  C   UNL     1     -10.381  13.260  68.265  1.00  0.00    -0.249 C  
HETATM    7  H   UNL     1     -12.379  12.901  67.799  1.00  0.00     0.000 HD 
HETATM    8  O   UNL     1      -9.240  12.823  68.333  1.00  0.00    -0.198 OA 
HETATM    9  N   UNL     1     -11.471  12.464  67.956  1.00  0.00    -0.299 N  
BRANCH   9  10
HETATM   10  CA  UNL     1     -11.347  10.980  67.847  1.00  0.00    -0.311 C  
HETATM   11  N   UNL     1      -9.607   9.933  67.415  1.00  0.00    -0.152 N  
HETATM   12  C   UNL     1     -10.115  10.354  68.594  1.00  0.00    -0.176 C  
HETATM   13  C   UNL     1     -10.692  10.381  66.574  1.00  0.00    -0.092 C  
HETATM   14  O   UNL     1      -9.697  10.400  69.725  1.00  0.00    -0.182 OA 
HETATM   15  S   UNL     1      -9.963  11.507  65.360  1.00  0.00    -0.257 SA 
HETATM   16  C   UNL     1      -8.933  10.202  64.661  1.00  0.00    -0.209 C  
HETATM   17  C   UNL     1      -8.130   9.386  65.648  1.00  0.00    -0.112 C  
HETATM   18  CA  UNL     1      -8.477   9.300  66.965  1.00  0.00    -0.124 C  
HETATM   19  O   UNL     1      -8.308   7.639  68.683  1.00  0.00    -0.127 OA 
HETATM   20  C   UNL     1      -7.631   8.431  67.974  1.00  0.00    -0.098 C  
HETATM   21  OXT UNL     1      -6.378   8.524  67.810  1.00  0.00    -0.055 OA 
BRANCH  17  22
HETATM   22  C   UNL     1      -7.016   8.550  65.014  1.00  0.00    -0.075 C  
BRANCH  22  23
HETATM   23  N   UNL     1      -7.361   7.244  64.206  1.00  0.00    -0.079 N  
HETATM   24  C   UNL     1      -8.304   6.246  64.852  1.00  0.00    -0.076 C  
HETATM   25  C   UNL     1      -7.847   7.661  62.824  1.00  0.00    -0.130 C  
HETATM   26  C   UNL     1      -7.466   5.626  65.945  1.00  0.00    -0.078 C  
HETATM   27  C   UNL     1      -6.162   5.354  65.218  1.00  0.00    -0.034 C  
HETATM   28  C   UNL     1      -6.072   6.395  64.092  1.00  0.00    -0.026 C  
ENDBRANCH  22  23
ENDBRANCH  17  22
ENDBRANCH   9  10
ENDBRANCH   5   6
BRANCH   5  29
HETATM   29  C   UNL     1     -10.647  15.764  67.578  1.00  0.00    -0.309 A  
HETATM   30  S   UNL     1     -10.314  17.962  66.331  1.00  0.00    -0.333 SA 
HETATM   31  C   UNL     1     -10.211  17.062  67.784  1.00  0.00    -0.312 A  
HETATM   32  H2  UNL     1     -11.112  17.472  63.698  1.00  0.00     0.000 HD 
HETATM   33  H1  UNL     1     -11.583  15.777  63.737  1.00  0.00     0.000 HD 
HETATM   34  C   UNL     1     -10.910  16.573  65.521  1.00  0.00    -0.188 A  
HETATM   35  N   UNL     1     -11.228  16.603  64.219  1.00  0.00    -1.080 NA 
HETATM   36  N   UNL     1     -11.026  15.498  66.260  1.00  0.00    -0.287 NA 
ENDBRANCH   5  29
ENDBRANCH   3   5
ENDBRANCH   2   3
TORSDOF 7
ENDMDL
MODEL      130
REMARK 921   NORMALIZED FREE ENERGY PREDICTED BY IDOCK:   -3.75 KCAL/MOL
REMARK 922        TOTAL FREE ENERGY PREDICTED BY IDOCK:   -6.40 KCAL/MOL
REMARK 923 INTER-LIGAND FREE ENERGY PREDICTED BY IDOCK:   -7.15 KCAL/MOL
REMARK 924 INTRA-LIGAND FREE ENERGY PREDICTED BY IDOCK:    0.75 KCAL/MOL
REMARK 927      BINDING AFFINITY PREDICTED BY RF-SCORE:    0.00 PKD
ROOT
HETATM    1  C   UNL     1     -12.825  10.807  71.146  1.00  0.00    -0.414 C  
HETATM    2  O   UNL     1     -11.754  10.742  70.213  1.00  0.00    -0.295 OA 
ENDROOT
BRANCH   2   3
HETATM    3  N   UNL     1     -12.284  10.566  68.930  1.00  0.00    -0.773 NA 
HETATM    4  H   UNL     1     -13.221  10.206  68.749  1.00  0.00     0.000 HD 
BRANCH   3   5
HETATM    5  C   UNL     1     -11.445  10.912  67.991  1.00  0.00    -0.281 C  
BRANCH   5   6
HETATM    6  C   UNL     1     -10.319  10.001  67.452  1.00  0.00    -0.238 C  
HETATM    7  H   UNL     1      -9.041  10.654  68.961  1.00  0.00     0.000 HD 
HETATM    8  O   UNL     1     -10.486   9.275  66.480  1.00  0.00    -0.227 OA 
HETATM    9  N   UNL     1      -9.096  10.128  68.089  1.00  0.00    -0.127 N  
BRANCH   9  10
HETATM   10  CA  UNL     1      -7.856   9.513  67.529  1.00  0.00    -0.102 C  
HETATM   11  N   UNL     1      -7.781   7.902  66.221  1.00  0.00    -0.090 N  
HETATM   12  C   UNL     1      -7.889   9.228  65.984  1.00  0.00    -0.102 C  
HETATM   13  C   UNL     1      -7.665   7.978  67.659  1.00  0.00    -0.110 C  
HETATM   14  O   UNL     1      -8.114   9.894  65.004  1.00  0.00    -0.127 OA 
HETATM   15  S   UNL     1      -9.020   6.988  68.333  1.00  0.00    -0.120 SA 
HETATM   16  C   UNL     1      -8.382   5.476  67.586  1.00  0.00    -0.100 C  
HETATM   17  C   UNL     1      -8.038   5.551  66.116  1.00  0.00    -0.107 C  
HETATM   18  CA  UNL     1      -7.777   6.739  65.496  1.00  0.00    -0.101 C  
HETATM   19  O   UNL     1      -6.377   7.466  63.693  1.00  0.00    -0.051 OA 
HETATM   20  C   UNL     1      -7.407   6.791  63.964  1.00  0.00    -0.082 C  
HETATM   21  OXT UNL     1      -8.094   6.010  63.240  1.00  0.00    -0.119 OA 
BRANCH  17  22
HETATM   22  C   UNL     1      -7.851   4.190  65.443  1.00  0.00    -0.086 C  
BRANCH  22  23
HETATM   23  N   UNL     1      -9.015   3.130  65.450  1.00  0.00    -0.137 N  
HETATM   24  C   UNL     1      -9.026   2.090  64.345  1.00  0.00    -0.112 C  
HETATM   25  C   UNL     1      -9.053   2.484  66.829  1.00  0.00    -0.113 C  
HETATM   26  C   UNL     1      -9.440   2.878  63.124  1.00  0.00    -0.093 C  
HETATM   27  C   UNL     1     -10.603   3.693  63.663  1.00  0.00    -0.279 C  
HETATM   28  C   UNL     1     -10.343   3.873  65.166  1.00  0.00    -0.068 C  
ENDBRANCH  22  23
ENDBRANCH  17  22
ENDBRANCH   9  10
ENDBRANCH   5   6
BRANCH   5  29
HETATM   29  C   UNL     1     -11.634  12.256  67.433  1.00  0.00    -0.355 A  
HETATM   30  S   UNL     1     -11.710  14.783  67.110  1.00  0.00    -0.272 SA 
HETATM   31  C   UNL     1     -11.314  13.434  68.087  1.00  0.00    -0.287 A  
HETATM   32  H2  UNL     1     -12.805  15.193  64.572  1.00  0.00     0.000 HD 
HETATM   33  H1  UNL     1     -13.083  13.554  63.993  1.00  0.00     0.000 HD 
HETATM   34  C   UNL     1     -12.261  13.722  65.881  1.00  0.00    -0.466 A  
HETATM   35  N   UNL     1     -12.755  14.185  64.724  1.00  0.00    -0.678 NA 
HETATM   36  N   UNL     1     -12.159  12.445  66.153  1.00  0.00    -0.641 NA 
ENDBRANCH   5  29
ENDBRANCH   3   5
ENDBRANCH   2   3
TORSDOF 7
ENDMDL
MODEL      131
REMARK 921   NORMALIZED FREE ENERGY PREDICTED BY IDOCK:   -3.75 KCAL/MOL
REMARK 922        TOTAL FREE ENERGY PREDICTED BY IDOCK:   -6.40 KCAL/MOL
REMARK 923 INTER-LIGAND FREE ENERGY PREDICTED BY IDOCK:   -5.48 KCAL/MOL
REMARK 924 INTRA-LIGAND FREE ENERGY PREDICTED BY IDOCK:   -0.93 KCAL/MOL
REMARK 927      BINDING AFFINITY PREDICTED BY RF-SCORE:    0.00 PKD
ROOT
HETATM    1  C   UNL     1      -7.427  17.813  66.018  1.00  0.00    -0.249 C  
HETATM    2  O   UNL     1      -7.109  16.511  66.493  1.00  0.00    -0.218 OA 
ENDROOT
BRANCH   2   3
HETATM    3  N   UNL     1      -8.179  16.038  67.260  1.00  0.00    -0.169 NA 
HETATM    4  H   UNL     1      -8.681  16.605  67.943  1.00  0.00     0.000 HD 
BRANCH   3   5
HETATM    5  C   UNL     1      -8.464  14.789  67.005  1.00  0.00    -0.222 C  
BRANCH   5   6
HETATM    6  C   UNL     1      -7.446  13.629  67.098  1.00  0.00     0.108 C  
HETATM    7  H   UNL     1      -8.818  12.330  66.221  1.00  0.00     0.000 HD 
HETATM    8  O   UNL     1      -6.324  13.791  67.559  1.00  0.00    -0.264 OA 
HETATM    9  N   UNL     1      -7.923  12.389  66.705  1.00  0.00    -0.030 N  
BRANCH   9  10
HETATM   10  CA  UNL     1      -7.155  11.138  66.974  1.00  0.00    -0.124 C  
HETATM   11  N   UNL     1      -7.658   9.235  66.309  1.00  0.00    -0.096 N  
HETATM   12  C   UNL     1      -6.927  10.211  65.726  1.00  0.00    -0.123 C  
HETATM   13  C   UNL     1      -7.910   9.915  67.559  1.00  0.00    -0.098 C  
HETATM   14  O   UNL     1      -6.462  10.371  64.625  1.00  0.00    -0.121 OA 
HETATM   15  S   UNL     1      -9.707  10.006  67.736  1.00  0.00    -0.153 SA 
HETATM   16  C   UNL     1      -9.866   8.211  67.787  1.00  0.00    -0.166 C  
HETATM   17  C   UNL     1      -9.162   7.447  66.690  1.00  0.00    -0.196 C  
HETATM   18  CA  UNL     1      -8.119   7.984  65.991  1.00  0.00    -0.110 C  
HETATM   19  O   UNL     1      -6.132   7.143  64.950  1.00  0.00    -0.036 OA 
HETATM   20  C   UNL     1      -7.389   7.163  64.860  1.00  0.00    -0.084 C  
HETATM   21  OXT UNL     1      -8.173   6.496  64.120  1.00  0.00    -0.081 OA 
BRANCH  17  22
HETATM   22  C   UNL     1      -9.606   5.990  66.552  1.00  0.00    -0.154 C  
BRANCH  22  23
HETATM   23  N   UNL     1      -9.119   4.907  67.586  1.00  0.00    -0.112 N  
HETATM   24  C   UNL     1      -7.634   4.845  67.892  1.00  0.00    -0.083 C  
HETATM   25  C   UNL     1      -9.946   5.063  68.855  1.00  0.00    -0.166 C  
HETATM   26  C   UNL     1      -7.041   4.248  66.637  1.00  0.00    -0.063 C  
HETATM   27  C   UNL     1      -7.994   3.099  66.360  1.00  0.00    -0.084 C  
HETATM   28  C   UNL     1      -9.347   3.509  66.962  1.00  0.00    -0.194 C  
ENDBRANCH  22  23
ENDBRANCH  17  22
ENDBRANCH   9  10
ENDBRANCH   5   6
BRANCH   5  29
HETATM   29  C   UNL     1      -9.854  14.518  66.624  1.00  0.00    -0.273 A  
HETATM   30  S   UNL     1     -12.331  13.917  66.665  1.00  0.00    -0.278 SA 
HETATM   31  C   UNL     1     -10.862  14.173  67.508  1.00  0.00    -0.275 A  
HETATM   32  H2  UNL     1     -13.188  14.034  64.008  1.00  0.00     0.000 HD 
HETATM   33  H1  UNL     1     -11.730  14.506  63.144  1.00  0.00     0.000 HD 
HETATM   34  C   UNL     1     -11.543  14.297  65.191  1.00  0.00    -0.355 A  
HETATM   35  N   UNL     1     -12.198  14.280  64.021  1.00  0.00    -0.625 NA 
HETATM   36  N   UNL     1     -10.274  14.606  65.295  1.00  0.00    -0.384 NA 
ENDBRANCH   5  29
ENDBRANCH   3   5
ENDBRANCH   2   3
TORSDOF 7
ENDMDL
MODEL      132
REMARK 921   NORMALIZED FREE ENERGY PREDICTED BY IDOCK:   -3.70 KCAL/MOL
REMARK 922        TOTAL FREE ENERGY PREDICTED BY IDOCK:   -6.33 KCAL/MOL
REMARK 923 INTER-LIGAND FREE ENERGY PREDICTED BY IDOCK:   -6.96 KCAL/MOL
REMARK 924 INTRA-LIGAND FREE ENERGY PREDICTED BY IDOCK:    0.62 KCAL/MOL
REMARK 927      BINDING AFFINITY PREDICTED BY RF-SCORE:    0.00 PKD
ROOT
HETATM    1  C   UNL     1     -12.410  12.965  64.960  1.00  0.00    -0.485 C  
HETATM    2  O   UNL     1     -11.331  13.874  65.137  1.00  0.00    -0.302 OA 
ENDROOT
BRANCH   2   3
HETATM    3  N   UNL     1     -10.133  13.152  65.163  1.00  0.00    -0.460 NA 
HETATM    4  H   UNL     1      -9.626  12.864  64.327  1.00  0.00     0.000 HD 
BRANCH   3   5
HETATM    5  C   UNL     1      -9.737  12.885  66.379  1.00  0.00    -0.263 C  
BRANCH   5   6
HETATM    6  C   UNL     1      -9.695  11.465  66.988  1.00  0.00    -0.190 C  
HETATM    7  H   UNL     1      -7.738  11.216  66.320  1.00  0.00     0.000 HD 
HETATM    8  O   UNL     1     -10.648  10.995  67.596  1.00  0.00    -0.192 OA 
HETATM    9  N   UNL     1      -8.544  10.741  66.725  1.00  0.00    -0.133 N  
BRANCH   9  10
HETATM   10  CA  UNL     1      -8.457   9.281  67.022  1.00  0.00    -0.124 C  
HETATM   11  N   UNL     1      -9.383   8.302  68.602  1.00  0.00    -0.143 N  
HETATM   12  C   UNL     1      -9.824   8.582  67.356  1.00  0.00    -0.187 C  
HETATM   13  C   UNL     1      -8.049   8.837  68.452  1.00  0.00    -0.117 C  
HETATM   14  O   UNL     1     -10.891   8.500  66.801  1.00  0.00    -0.153 OA 
HETATM   15  S   UNL     1      -7.859  10.099  69.733  1.00  0.00    -0.140 SA 
HETATM   16  C   UNL     1      -8.062   8.891  71.056  1.00  0.00    -0.170 C  
HETATM   17  C   UNL     1      -9.258   7.973  70.944  1.00  0.00    -0.163 C  
HETATM   18  CA  UNL     1      -9.875   7.734  69.749  1.00  0.00    -0.178 C  
HETATM   19  O   UNL     1     -11.027   5.888  68.748  1.00  0.00    -0.300 OA 
HETATM   20  C   UNL     1     -11.111   6.761  69.654  1.00  0.00    -0.292 C  
HETATM   21  OXT UNL     1     -11.938   6.881  70.607  1.00  0.00    -0.369 OA 
BRANCH  17  22
HETATM   22  C   UNL     1      -9.600   7.224  72.233  1.00  0.00    -0.146 C  
BRANCH  22  23
HETATM   23  N   UNL     1      -8.976   5.808  72.521  1.00  0.00    -0.133 N  
HETATM   24  C   UNL     1      -9.747   4.590  72.046  1.00  0.00    -0.170 C  
HETATM   25  C   UNL     1      -7.548   5.807  71.994  1.00  0.00    -0.101 C  
HETATM   26  C   UNL     1     -10.920   4.523  72.996  1.00  0.00    -0.308 C  
HETATM   27  C   UNL     1     -10.244   4.745  74.337  1.00  0.00    -0.300 C  
HETATM   28  C   UNL     1      -8.987   5.581  74.052  1.00  0.00    -0.119 C  
ENDBRANCH  22  23
ENDBRANCH  17  22
ENDBRANCH   9  10
ENDBRANCH   5   6
BRANCH   5  29
HETATM   29  C   UNL     1      -9.301  14.039  67.173  1.00  0.00    -0.242 A  
HETATM   30  S   UNL     1      -8.840  15.663  69.083  1.00  0.00    -0.261 SA 
HETATM   31  C   UNL     1      -9.457  14.159  68.543  1.00  0.00    -0.202 A  
HETATM   32  H2  UNL     1      -7.608  17.882  67.915  1.00  0.00     0.000 HD 
HETATM   33  H1  UNL     1      -7.529  17.440  66.214  1.00  0.00     0.000 HD 
HETATM   34  C   UNL     1      -8.390  16.047  67.474  1.00  0.00    -0.161 A  
HETATM   35  N   UNL     1      -7.796  17.210  67.171  1.00  0.00    -0.176 NA 
HETATM   36  N   UNL     1      -8.663  15.130  66.580  1.00  0.00    -0.277 NA 
ENDBRANCH   5  29
ENDBRANCH   3   5
ENDBRANCH   2   3
TORSDOF 7
ENDMDL
MODEL      133
REMARK 921   NORMALIZED FREE ENERGY PREDICTED BY IDOCK:   -3.67 KCAL/MOL
REMARK 922        TOTAL FREE ENERGY PREDICTED BY IDOCK:   -6.29 KCAL/MOL
REMARK 923 INTER-LIGAND FREE ENERGY PREDICTED BY IDOCK:   -5.47 KCAL/MOL
REMARK 924 INTRA-LIGAND FREE ENERGY PREDICTED BY IDOCK:   -0.82 KCAL/MOL
REMARK 927      BINDING AFFINITY PREDICTED BY RF-SCORE:    0.00 PKD
ROOT
HETATM    1  C   UNL     1      -9.119   7.420  73.419  1.00  0.00    -0.187 C  
HETATM    2  O   UNL     1     -10.529   7.562  73.298  1.00  0.00    -0.329 OA 
ENDROOT
BRANCH   2   3
HETATM    3  N   UNL     1     -10.808   8.798  72.705  1.00  0.00    -0.032 NA 
HETATM    4  H   UNL     1     -10.635   9.696  73.157  1.00  0.00     0.000 HD 
BRANCH   3   5
HETATM    5  C   UNL     1     -11.316   8.674  71.507  1.00  0.00    -0.289 C  
BRANCH   5   6
HETATM    6  C   UNL     1     -11.596   7.320  70.818  1.00  0.00    -0.302 C  
HETATM    7  H   UNL     1      -9.712   7.360  69.931  1.00  0.00     0.000 HD 
HETATM    8  O   UNL     1     -12.649   6.718  70.983  1.00  0.00    -0.347 OA 
HETATM    9  N   UNL     1     -10.615   6.886  69.943  1.00  0.00    -0.219 N  
BRANCH   9  10
HETATM   10  CA  UNL     1     -10.847   5.738  69.016  1.00  0.00    -0.260 C  
HETATM   11  N   UNL     1      -9.378   4.671  68.008  1.00  0.00    -0.128 N  
HETATM   12  C   UNL     1      -9.910   4.497  69.238  1.00  0.00    -0.171 C  
HETATM   13  C   UNL     1     -10.207   5.784  67.603  1.00  0.00    -0.193 C  
HETATM   14  O   UNL     1      -9.637   3.800  70.183  1.00  0.00    -0.181 OA 
HETATM   15  S   UNL     1      -9.079   7.140  67.204  1.00  0.00    -0.133 SA 
HETATM   16  C   UNL     1      -8.323   6.210  65.856  1.00  0.00    -0.140 C  
HETATM   17  C   UNL     1      -7.874   4.805  66.185  1.00  0.00    -0.099 C  
HETATM   18  CA  UNL     1      -8.392   4.110  67.240  1.00  0.00    -0.099 C  
HETATM   19  O   UNL     1      -8.851   1.809  67.723  1.00  0.00    -0.096 OA 
HETATM   20  C   UNL     1      -7.918   2.639  67.555  1.00  0.00    -0.068 C  
HETATM   21  OXT UNL     1      -6.670   2.460  67.426  1.00  0.00    -0.038 OA 
BRANCH  17  22
HETATM   22  C   UNL     1      -6.930   4.187  65.151  1.00  0.00    -0.058 C  
BRANCH  22  23
HETATM   23  N   UNL     1      -7.496   3.280  63.997  1.00  0.00    -0.066 N  
HETATM   24  C   UNL     1      -7.296   3.752  62.569  1.00  0.00    -0.045 C  
HETATM   25  C   UNL     1      -6.958   1.870  64.201  1.00  0.00    -0.032 C  
HETATM   26  C   UNL     1      -8.257   4.911  62.443  1.00  0.00    -0.087 C  
HETATM   27  C   UNL     1      -9.512   4.341  63.079  1.00  0.00    -0.123 C  
HETATM   28  C   UNL     1      -9.041   3.287  64.093  1.00  0.00    -0.115 C  
ENDBRANCH  22  23
ENDBRANCH  17  22
ENDBRANCH   9  10
ENDBRANCH   5   6
BRANCH   5  29
HETATM   29  C   UNL     1     -11.638   9.930  70.821  1.00  0.00    -0.349 A  
HETATM   30  S   UNL     1     -12.427  12.293  70.284  1.00  0.00    -0.006 SA 
HETATM   31  C   UNL     1     -12.174  11.050  71.434  1.00  0.00    -0.186 A  
HETATM   32  H2  UNL     1     -12.022  12.626  67.539  1.00  0.00     0.000 HD 
HETATM   33  H1  UNL     1     -11.330  11.084  67.052  1.00  0.00     0.000 HD 
HETATM   34  C   UNL     1     -11.794  11.277  69.056  1.00  0.00    -0.352 A  
HETATM   35  N   UNL     1     -11.705  11.688  67.783  1.00  0.00    -0.557 NA 
HETATM   36  N   UNL     1     -11.407  10.091  69.453  1.00  0.00    -0.185 NA 
ENDBRANCH   5  29
ENDBRANCH   3   5
ENDBRANCH   2   3
TORSDOF 7
ENDMDL
MODEL      134
REMARK 921   NORMALIZED FREE ENERGY PREDICTED BY IDOCK:   -3.65 KCAL/MOL
REMARK 922        TOTAL FREE ENERGY PREDICTED BY IDOCK:   -6.27 KCAL/MOL
REMARK 923 INTER-LIGAND FREE ENERGY PREDICTED BY IDOCK:   -5.98 KCAL/MOL
REMARK 924 INTRA-LIGAND FREE ENERGY PREDICTED BY IDOCK:   -0.29 KCAL/MOL
REMARK 927      BINDING AFFINITY PREDICTED BY RF-SCORE:    0.00 PKD
ROOT
HETATM    1  C   UNL     1      -5.168  21.220  67.449  1.00  0.00    -0.278 C  
HETATM    2  O   UNL     1      -6.407  21.007  66.785  1.00  0.00    -0.259 OA 
ENDROOT
BRANCH   2   3
HETATM    3  N   UNL     1      -7.403  20.801  67.746  1.00  0.00    -0.245 NA 
HETATM    4  H   UNL     1      -7.788  21.543  68.331  1.00  0.00     0.000 HD 
BRANCH   3   5
HETATM    5  C   UNL     1      -7.786  19.554  67.810  1.00  0.00    -0.288 C  
BRANCH   5   6
HETATM    6  C   UNL     1      -6.985  18.434  68.511  1.00  0.00    -0.261 C  
HETATM    7  H   UNL     1      -7.857  17.007  67.269  1.00  0.00     0.000 HD 
HETATM    8  O   UNL     1      -6.196  18.674  69.415  1.00  0.00    -0.251 OA 
HETATM    9  N   UNL     1      -7.285  17.145  68.102  1.00  0.00    -0.187 N  
BRANCH   9  10
HETATM   10  CA  UNL     1      -6.790  15.953  68.852  1.00  0.00    -0.138 C  
HETATM   11  N   UNL     1      -7.029  13.971  68.282  1.00  0.00    -0.094 N  
HETATM   12  C   UNL     1      -6.064  14.867  67.980  1.00  0.00    -0.152 C  
HETATM   13  C   UNL     1      -7.790  14.812  69.176  1.00  0.00    -0.141 C  
HETATM   14  O   UNL     1      -5.139  14.881  67.206  1.00  0.00    -0.303 OA 
HETATM   15  S   UNL     1      -9.462  14.902  68.492  1.00  0.00    -0.215 SA 
HETATM   16  C   UNL     1      -9.718  13.128  68.695  1.00  0.00    -0.057 C  
HETATM   17  C   UNL     1      -8.629  12.230  68.154  1.00  0.00    -0.181 C  
HETATM   18  CA  UNL     1      -7.357  12.681  67.951  1.00  0.00    -0.116 C  
HETATM   19  O   UNL     1      -5.159  11.733  68.058  1.00  0.00    -0.044 OA 
HETATM   20  C   UNL     1      -6.233  11.722  67.398  1.00  0.00    -0.108 C  
HETATM   21  OXT UNL     1      -6.624  10.949  66.473  1.00  0.00    -0.108 OA 
BRANCH  17  22
HETATM   22  C   UNL     1      -9.034  10.762  68.015  1.00  0.00    -0.139 C  
BRANCH  22  23
HETATM   23  N   UNL     1     -10.397  10.373  67.330  1.00  0.00    -0.214 N  
HETATM   24  C   UNL     1     -10.480   9.019  66.649  1.00  0.00    -0.165 C  
HETATM   25  C   UNL     1     -11.507  10.552  68.357  1.00  0.00    -0.214 C  
HETATM   26  C   UNL     1      -9.641   9.198  65.406  1.00  0.00    -0.166 C  
HETATM   27  C   UNL     1     -10.129  10.541  64.895  1.00  0.00    -0.403 C  
HETATM   28  C   UNL     1     -10.618  11.319  66.126  1.00  0.00    -0.258 C  
ENDBRANCH  22  23
ENDBRANCH  17  22
ENDBRANCH   9  10
ENDBRANCH   5   6
BRANCH   5  29
HETATM   29  C   UNL     1      -9.073  19.251  67.174  1.00  0.00    -0.299 A  
HETATM   30  S   UNL     1     -11.535  19.238  66.517  1.00  0.00     1.194 SA 
HETATM   31  C   UNL     1     -10.262  19.906  67.447  1.00  0.00    -0.425 A  
HETATM   32  H2  UNL     1     -11.806  17.209  64.614  1.00  0.00     0.000 HD 
HETATM   33  H1  UNL     1     -10.166  16.589  64.464  1.00  0.00     0.000 HD 
HETATM   34  C   UNL     1     -10.429  18.141  65.802  1.00  0.00    -0.207 A  
HETATM   35  N   UNL     1     -10.824  17.242  64.889  1.00  0.00    -0.793 NA 
HETATM   36  N   UNL     1      -9.188  18.251  66.206  1.00  0.00    -0.461 NA 
ENDBRANCH   5  29
ENDBRANCH   3   5
ENDBRANCH   2   3
TORSDOF 7
ENDMDL
MODEL      135
REMARK 921   NORMALIZED FREE ENERGY PREDICTED BY IDOCK:   -3.62 KCAL/MOL
REMARK 922        TOTAL FREE ENERGY PREDICTED BY IDOCK:   -6.22 KCAL/MOL
REMARK 923 INTER-LIGAND FREE ENERGY PREDICTED BY IDOCK:   -7.19 KCAL/MOL
REMARK 924 INTRA-LIGAND FREE ENERGY PREDICTED BY IDOCK:    0.97 KCAL/MOL
REMARK 927      BINDING AFFINITY PREDICTED BY RF-SCORE:    0.00 PKD
ROOT
HETATM    1  C   UNL     1     -12.852  13.505  64.812  1.00  0.00    -0.136 C  
HETATM    2  O   UNL     1     -12.184  14.749  64.639  1.00  0.00    -0.442 OA 
ENDROOT
BRANCH   2   3
HETATM    3  N   UNL     1     -10.822  14.504  64.433  1.00  0.00    -0.609 NA 
HETATM    4  H   UNL     1     -10.413  14.309  63.519  1.00  0.00     0.000 HD 
BRANCH   3   5
HETATM    5  C   UNL     1     -10.133  14.552  65.541  1.00  0.00    -0.366 C  
BRANCH   5   6
HETATM    6  C   UNL     1      -9.694  13.308  66.347  1.00  0.00    -0.276 C  
HETATM    7  H   UNL     1      -8.959  14.529  67.866  1.00  0.00     0.000 HD 
HETATM    8  O   UNL     1      -9.893  12.172  65.938  1.00  0.00    -0.241 OA 
HETATM    9  N   UNL     1      -8.994  13.573  67.512  1.00  0.00    -0.199 N  
BRANCH   9  10
HETATM   10  CA  UNL     1      -8.287  12.492  68.260  1.00  0.00    -0.167 C  
HETATM   11  N   UNL     1      -8.802  10.480  68.265  1.00  0.00    -0.134 N  
HETATM   12  C   UNL     1      -8.001  11.185  67.437  1.00  0.00    -0.125 C  
HETATM   13  C   UNL     1      -9.121  11.555  69.175  1.00  0.00     0.271 C  
HETATM   14  O   UNL     1      -7.453  10.946  66.389  1.00  0.00    -0.139 OA 
HETATM   15  S   UNL     1     -10.923  11.712  69.167  1.00  0.00    -0.192 SA 
HETATM   16  C   UNL     1     -11.143  10.050  69.830  1.00  0.00    -0.288 C  
HETATM   17  C   UNL     1     -10.386   8.945  69.128  1.00  0.00    -0.230 C  
HETATM   18  CA  UNL     1      -9.279   9.199  68.369  1.00  0.00    -0.132 C  
HETATM   19  O   UNL     1      -7.251   8.036  67.846  1.00  0.00    -0.087 OA 
HETATM   20  C   UNL     1      -8.497   8.029  67.657  1.00  0.00    -0.131 C  
HETATM   21  OXT UNL     1      -9.247   7.148  67.138  1.00  0.00    -0.128 OA 
BRANCH  17  22
HETATM   22  C   UNL     1     -10.866   7.535  69.473  1.00  0.00    -0.175 C  
BRANCH  22  23
HETATM   23  N   UNL     1     -10.188   6.726  70.642  1.00  0.00    -0.195 N  
HETATM   24  C   UNL     1     -11.049   6.365  71.838  1.00  0.00    -0.268 C  
HETATM   25  C   UNL     1      -9.523   5.496  70.038  1.00  0.00    -0.159 C  
HETATM   26  C   UNL     1     -11.235   7.685  72.549  1.00  0.00    -0.399 C  
HETATM   27  C   UNL     1      -9.823   8.243  72.539  1.00  0.00    -0.368 C  
HETATM   28  C   UNL     1      -9.131   7.640  71.308  1.00  0.00    -0.137 C  
ENDBRANCH  22  23
ENDBRANCH  17  22
ENDBRANCH   9  10
ENDBRANCH   5   6
BRANCH   5  29
HETATM   29  C   UNL     1      -9.763  15.895  66.002  1.00  0.00    -0.343 A  
HETATM   30  S   UNL     1      -8.461  17.994  66.633  1.00  0.00    -0.264 SA 
HETATM   31  C   UNL     1      -8.476  16.406  65.991  1.00  0.00    -0.170 A  
HETATM   32  H2  UNL     1     -10.348  19.780  67.662  1.00  0.00     0.000 HD 
HETATM   33  H1  UNL     1     -11.855  18.880  67.531  1.00  0.00     0.000 HD 
HETATM   34  C   UNL     1     -10.158  17.908  66.866  1.00  0.00    -0.348 A  
HETATM   35  N   UNL     1     -10.846  18.931  67.393  1.00  0.00    -0.441 NA 
HETATM   36  N   UNL     1     -10.720  16.787  66.490  1.00  0.00    -0.176 NA 
ENDBRANCH   5  29
ENDBRANCH   3   5
ENDBRANCH   2   3
TORSDOF 7
ENDMDL
MODEL      136
REMARK 921   NORMALIZED FREE ENERGY PREDICTED BY IDOCK:   -3.61 KCAL/MOL
REMARK 922        TOTAL FREE ENERGY PREDICTED BY IDOCK:   -6.21 KCAL/MOL
REMARK 923 INTER-LIGAND FREE ENERGY PREDICTED BY IDOCK:   -5.80 KCAL/MOL
REMARK 924 INTRA-LIGAND FREE ENERGY PREDICTED BY IDOCK:   -0.40 KCAL/MOL
REMARK 927      BINDING AFFINITY PREDICTED BY RF-SCORE:    0.00 PKD
ROOT
HETATM    1  C   UNL     1     -13.030  13.509  65.644  1.00  0.00    -0.168 C  
HETATM    2  O   UNL     1     -12.878  14.772  65.007  1.00  0.00    -0.359 OA 
ENDROOT
BRANCH   2   3
HETATM    3  N   UNL     1     -11.665  14.780  64.309  1.00  0.00    -0.661 NA 
HETATM    4  H   UNL     1     -11.565  15.112  63.350  1.00  0.00     0.000 HD 
BRANCH   3   5
HETATM    5  C   UNL     1     -10.675  14.315  65.023  1.00  0.00    -0.420 C  
BRANCH   5   6
HETATM    6  C   UNL     1     -10.087  12.893  64.872  1.00  0.00    -0.208 C  
HETATM    7  H   UNL     1      -9.544  12.885  66.883  1.00  0.00     0.000 HD 
HETATM    8  O   UNL     1     -10.127  12.289  63.809  1.00  0.00    -0.385 OA 
HETATM    9  N   UNL     1      -9.446  12.395  65.994  1.00  0.00    -0.208 N  
BRANCH   9  10
HETATM   10  CA  UNL     1      -8.614  11.157  65.931  1.00  0.00    -0.135 C  
HETATM   11  N   UNL     1      -8.634   9.606  67.311  1.00  0.00    -0.131 N  
HETATM   12  C   UNL     1      -9.385   9.817  66.208  1.00  0.00    -0.180 C  
HETATM   13  C   UNL     1      -7.777  10.761  67.177  1.00  0.00    -0.120 C  
HETATM   14  O   UNL     1     -10.367   9.293  65.744  1.00  0.00    -0.078 OA 
HETATM   15  S   UNL     1      -7.974  11.721  68.696  1.00  0.00    -0.075 SA 
HETATM   16  C   UNL     1      -7.314  10.385  69.712  1.00  0.00    -0.154 C  
HETATM   17  C   UNL     1      -7.919   9.017  69.491  1.00  0.00    -0.099 C  
HETATM   18  CA  UNL     1      -8.563   8.692  68.331  1.00  0.00    -0.135 C  
HETATM   19  O   UNL     1      -8.857   6.704  67.028  1.00  0.00    -0.111 OA 
HETATM   20  C   UNL     1      -9.174   7.254  68.117  1.00  0.00    -0.132 C  
HETATM   21  OXT UNL     1      -9.756   6.784  69.140  1.00  0.00    -0.146 OA 
BRANCH  17  22
HETATM   22  C   UNL     1      -7.606   8.004  70.593  1.00  0.00    -0.076 C  
BRANCH  22  23
HETATM   23  N   UNL     1      -6.155   7.411  70.741  1.00  0.00    -0.035 N  
HETATM   24  C   UNL     1      -5.544   6.736  69.527  1.00  0.00    -0.015 C  
HETATM   25  C   UNL     1      -5.252   8.511  71.284  1.00  0.00    -0.029 C  
HETATM   26  C   UNL     1      -6.313   5.440  69.421  1.00  0.00    -0.034 C  
HETATM   27  C   UNL     1      -6.315   4.963  70.863  1.00  0.00    -0.019 C  
HETATM   28  C   UNL     1      -6.219   6.226  71.733  1.00  0.00    -0.042 C  
ENDBRANCH  22  23
ENDBRANCH  17  22
ENDBRANCH   9  10
ENDBRANCH   5   6
BRANCH   5  29
HETATM   29  C   UNL     1     -10.109  15.244  66.006  1.00  0.00    -0.318 A  
HETATM   30  S   UNL     1      -9.694  16.644  68.096  1.00  0.00    -0.251 SA 
HETATM   31  C   UNL     1     -10.629  15.471  67.269  1.00  0.00    -0.299 A  
HETATM   32  H2  UNL     1      -7.420  18.174  67.549  1.00  0.00     0.000 HD 
HETATM   33  H1  UNL     1      -6.986  17.666  65.921  1.00  0.00     0.000 HD 
HETATM   34  C   UNL     1      -8.654  16.762  66.738  1.00  0.00    -0.232 A  
HETATM   35  N   UNL     1      -7.604  17.596  66.729  1.00  0.00    -0.206 NA 
HETATM   36  N   UNL     1      -8.957  15.984  65.729  1.00  0.00    -0.344 NA 
ENDBRANCH   5  29
ENDBRANCH   3   5
ENDBRANCH   2   3
TORSDOF 7
ENDMDL
MODEL      137
REMARK 921   NORMALIZED FREE ENERGY PREDICTED BY IDOCK:   -3.61 KCAL/MOL
REMARK 922        TOTAL FREE ENERGY PREDICTED BY IDOCK:   -6.20 KCAL/MOL
REMARK 923 INTER-LIGAND FREE ENERGY PREDICTED BY IDOCK:   -5.52 KCAL/MOL
REMARK 924 INTRA-LIGAND FREE ENERGY PREDICTED BY IDOCK:   -0.67 KCAL/MOL
REMARK 927      BINDING AFFINITY PREDICTED BY RF-SCORE:    0.00 PKD
ROOT
HETATM    1  C   UNL     1      -6.685   2.682  71.527  1.00  0.00    -0.026 C  
HETATM    2  O   UNL     1      -6.234   3.970  71.129  1.00  0.00    -0.014 OA 
ENDROOT
BRANCH   2   3
HETATM    3  N   UNL     1      -6.327   4.838  72.223  1.00  0.00    -0.032 NA 
HETATM    4  H   UNL     1      -5.866   4.673  73.118  1.00  0.00     0.000 HD 
BRANCH   3   5
HETATM    5  C   UNL     1      -7.071   5.881  71.971  1.00  0.00    -0.087 C  
BRANCH   5   6
HETATM    6  C   UNL     1      -6.675   7.018  71.001  1.00  0.00    -0.053 C  
HETATM    7  H   UNL     1      -8.626   7.108  70.280  1.00  0.00     0.000 HD 
HETATM    8  O   UNL     1      -5.536   7.466  70.964  1.00  0.00    -0.030 OA 
HETATM    9  N   UNL     1      -7.669   7.427  70.129  1.00  0.00    -0.089 N  
BRANCH   9  10
HETATM   10  CA  UNL     1      -7.373   8.325  68.974  1.00  0.00    -0.089 C  
HETATM   11  N   UNL     1      -8.384  10.077  68.504  1.00  0.00    -0.110 N  
HETATM   12  C   UNL     1      -7.323   9.858  69.313  1.00  0.00    -0.084 C  
HETATM   13  C   UNL     1      -8.536   8.722  68.026  1.00  0.00    -0.126 C  
HETATM   14  O   UNL     1      -6.719  10.530  70.111  1.00  0.00    -0.137 OA 
HETATM   15  S   UNL     1     -10.218   8.216  68.454  1.00  0.00    -0.203 SA 
HETATM   16  C   UNL     1     -10.946   9.491  67.406  1.00  0.00    -0.033 C  
HETATM   17  C   UNL     1     -10.411  10.893  67.592  1.00  0.00    -0.232 C  
HETATM   18  CA  UNL     1      -9.184  11.130  68.142  1.00  0.00    -0.166 C  
HETATM   19  O   UNL     1      -7.472  12.784  67.877  1.00  0.00    -0.101 OA 
HETATM   20  C   UNL     1      -8.640  12.600  68.312  1.00  0.00    -0.167 C  
HETATM   21  OXT UNL     1      -9.514  13.431  68.704  1.00  0.00    -0.154 OA 
BRANCH  17  22
HETATM   22  C   UNL     1     -11.279  11.986  66.967  1.00  0.00    -0.320 C  
BRANCH  22  23
HETATM   23  N   UNL     1     -10.997  12.488  65.502  1.00  0.00    -0.279 N  
HETATM   24  C   UNL     1     -10.279  13.814  65.339  1.00  0.00    -0.326 C  
HETATM   25  C   UNL     1     -10.286  11.370  64.751  1.00  0.00    -0.286 C  
HETATM   26  C   UNL     1     -11.324  14.831  65.733  1.00  0.00    -0.336 C  
HETATM   27  C   UNL     1     -12.545  14.324  64.988  1.00  0.00    -0.360 C  
HETATM   28  C   UNL     1     -12.356  12.807  64.833  1.00  0.00    -0.490 C  
ENDBRANCH  22  23
ENDBRANCH  17  22
ENDBRANCH   9  10
ENDBRANCH   5   6
BRANCH   5  29
HETATM   29  C   UNL     1      -8.362   5.924  72.666  1.00  0.00    -0.119 A  
HETATM   30  S   UNL     1     -10.373   5.371  74.131  1.00  0.00    -0.277 SA 
HETATM   31  C   UNL     1      -8.808   4.969  73.563  1.00  0.00    -0.115 A  
HETATM   32  H2  UNL     1     -12.207   7.438  73.721  1.00  0.00     0.000 HD 
HETATM   33  H1  UNL     1     -11.374   8.484  72.577  1.00  0.00     0.000 HD 
HETATM   34  C   UNL     1     -10.350   6.789  73.169  1.00  0.00    -0.247 A  
HETATM   35  N   UNL     1     -11.386   7.640  73.150  1.00  0.00    -0.299 NA 
HETATM   36  N   UNL     1      -9.259   6.977  72.470  1.00  0.00    -0.138 NA 
ENDBRANCH   5  29
ENDBRANCH   3   5
ENDBRANCH   2   3
TORSDOF 7
ENDMDL
MODEL      138
REMARK 921   NORMALIZED FREE ENERGY PREDICTED BY IDOCK:   -3.54 KCAL/MOL
REMARK 922        TOTAL FREE ENERGY PREDICTED BY IDOCK:   -6.10 KCAL/MOL
REMARK 923 INTER-LIGAND FREE ENERGY PREDICTED BY IDOCK:   -5.13 KCAL/MOL
REMARK 924 INTRA-LIGAND FREE ENERGY PREDICTED BY IDOCK:   -0.97 KCAL/MOL
REMARK 927      BINDING AFFINITY PREDICTED BY RF-SCORE:    0.00 PKD
ROOT
HETATM    1  C   UNL     1      -9.439   4.409  69.485  1.00  0.00    -0.181 C  
HETATM    2  O   UNL     1      -9.551   4.953  68.176  1.00  0.00    -0.131 OA 
ENDROOT
BRANCH   2   3
HETATM    3  N   UNL     1      -8.377   5.654  67.876  1.00  0.00    -0.101 NA 
HETATM    4  H   UNL     1      -7.732   6.006  68.583  1.00  0.00     0.000 HD 
BRANCH   3   5
HETATM    5  C   UNL     1      -8.201   5.806  66.591  1.00  0.00    -0.106 C  
BRANCH   5   6
HETATM    6  C   UNL     1      -7.701   7.111  65.930  1.00  0.00    -0.101 C  
HETATM    7  H   UNL     1      -8.277   8.202  67.608  1.00  0.00     0.000 HD 
HETATM    8  O   UNL     1      -7.186   7.115  64.820  1.00  0.00    -0.064 OA 
HETATM    9  N   UNL     1      -7.955   8.270  66.643  1.00  0.00    -0.097 N  
BRANCH   9  10
HETATM   10  CA  UNL     1      -7.767   9.619  66.031  1.00  0.00    -0.102 C  
HETATM   11  N   UNL     1      -7.853  11.434  67.036  1.00  0.00    -0.151 N  
HETATM   12  C   UNL     1      -6.820  10.589  66.825  1.00  0.00    -0.103 C  
HETATM   13  C   UNL     1      -8.847  10.705  66.282  1.00  0.00    -0.161 C  
HETATM   14  O   UNL     1      -5.691  10.518  67.242  1.00  0.00    -0.041 OA 
HETATM   15  S   UNL     1     -10.194  10.341  67.432  1.00  0.00    -0.233 SA 
HETATM   16  C   UNL     1     -10.548  12.091  67.685  1.00  0.00    -0.210 C  
HETATM   17  C   UNL     1      -9.364  12.970  68.018  1.00  0.00    -0.213 C  
HETATM   18  CA  UNL     1      -8.085  12.607  67.707  1.00  0.00    -0.166 C  
HETATM   19  O   UNL     1      -6.073  13.753  67.095  1.00  0.00    -0.224 OA 
HETATM   20  C   UNL     1      -6.867  13.547  68.052  1.00  0.00    -0.136 C  
HETATM   21  OXT UNL     1      -6.948  14.100  69.190  1.00  0.00    -0.109 OA 
BRANCH  17  22
HETATM   22  C   UNL     1      -9.737  14.346  68.573  1.00  0.00    -0.225 C  
BRANCH  22  23
HETATM   23  N   UNL     1     -10.338  15.451  67.625  1.00  0.00    -0.258 N  
HETATM   24  C   UNL     1      -9.864  15.474  66.184  1.00  0.00    -0.316 C  
HETATM   25  C   UNL     1     -11.856  15.371  67.715  1.00  0.00    -0.030 C  
HETATM   26  C   UNL     1      -8.452  16.002  66.286  1.00  0.00    -0.337 C  
HETATM   27  C   UNL     1      -8.627  17.171  67.240  1.00  0.00    -0.214 C  
HETATM   28  C   UNL     1      -9.840  16.830  68.119  1.00  0.00    -0.264 C  
ENDBRANCH  22  23
ENDBRANCH  17  22
ENDBRANCH   9  10
ENDBRANCH   5   6
BRANCH   5  29
HETATM   29  C   UNL     1      -8.493   4.629  65.766  1.00  0.00    -0.117 A  
HETATM   30  S   UNL     1      -8.365   2.372  64.588  1.00  0.00    -0.089 SA 
HETATM   31  C   UNL     1      -7.685   3.508  65.674  1.00  0.00    -0.082 A  
HETATM   32  H2  UNL     1     -10.659   2.210  63.000  1.00  0.00     0.000 HD 
HETATM   33  H1  UNL     1     -11.478   3.732  63.333  1.00  0.00     0.000 HD 
HETATM   34  C   UNL     1      -9.691   3.427  64.325  1.00  0.00    -0.166 A  
HETATM   35  N   UNL     1     -10.689   3.104  63.490  1.00  0.00    -0.248 NA 
HETATM   36  N   UNL     1      -9.656   4.551  64.996  1.00  0.00    -0.161 NA 
ENDBRANCH   5  29
ENDBRANCH   3   5
ENDBRANCH   2   3
TORSDOF 7
ENDMDL
MODEL      139
REMARK 921   NORMALIZED FREE ENERGY PREDICTED BY IDOCK:   -3.50 KCAL/MOL
REMARK 922        TOTAL FREE ENERGY PREDICTED BY IDOCK:   -6.05 KCAL/MOL
REMARK 923 INTER-LIGAND FREE ENERGY PREDICTED BY IDOCK:   -5.72 KCAL/MOL
REMARK 924 INTRA-LIGAND FREE ENERGY PREDICTED BY IDOCK:   -0.33 KCAL/MOL
REMARK 927      BINDING AFFINITY PREDICTED BY RF-SCORE:    0.00 PKD
ROOT
HETATM    1  C   UNL     1      -7.560   4.312  72.214  1.00  0.00    -0.080 C  
HETATM    2  O   UNL     1      -6.854   5.518  72.479  1.00  0.00    -0.072 OA 
ENDROOT
BRANCH   2   3
HETATM    3  N   UNL     1      -7.772   6.505  72.853  1.00  0.00    -0.100 NA 
HETATM    4  H   UNL     1      -8.131   6.615  73.801  1.00  0.00     0.000 HD 
BRANCH   3   5
HETATM    5  C   UNL     1      -8.119   7.270  71.852  1.00  0.00    -0.099 C  
BRANCH   5   6
HETATM    6  C   UNL     1      -7.170   8.268  71.150  1.00  0.00    -0.065 C  
HETATM    7  H   UNL     1      -8.738   8.956  69.966  1.00  0.00     0.000 HD 
HETATM    8  O   UNL     1      -5.989   8.359  71.458  1.00  0.00    -0.036 OA 
HETATM    9  N   UNL     1      -7.728   8.981  70.104  1.00  0.00    -0.078 N  
BRANCH   9  10
HETATM   10  CA  UNL     1      -6.885   9.787  69.172  1.00  0.00    -0.054 C  
HETATM   11  N   UNL     1      -7.222  11.762  68.626  1.00  0.00    -0.106 N  
HETATM   12  C   UNL     1      -6.539  11.237  69.666  1.00  0.00    -0.136 C  
HETATM   13  C   UNL     1      -7.576  10.515  67.987  1.00  0.00    -0.091 C  
HETATM   14  O   UNL     1      -6.039  11.696  70.664  1.00  0.00    -0.313 OA 
HETATM   15  S   UNL     1      -9.381  10.489  67.885  1.00  0.00    -0.144 SA 
HETATM   16  C   UNL     1      -9.414  11.940  66.815  1.00  0.00    -0.201 C  
HETATM   17  C   UNL     1      -8.610  13.132  67.282  1.00  0.00    -0.210 C  
HETATM   18  CA  UNL     1      -7.579  13.004  68.168  1.00  0.00    -0.136 C  
HETATM   19  O   UNL     1      -5.495  14.121  68.553  1.00  0.00    -0.085 OA 
HETATM   20  C   UNL     1      -6.745  14.260  68.630  1.00  0.00    -0.092 C  
HETATM   21  OXT UNL     1      -7.447  15.293  68.852  1.00  0.00    -0.125 OA 
BRANCH  17  22
HETATM   22  C   UNL     1      -8.943  14.438  66.559  1.00  0.00    -0.160 C  
BRANCH  22  23
HETATM   23  N   UNL     1     -10.425  14.966  66.510  1.00  0.00    -0.289 N  
HETATM   24  C   UNL     1     -10.734  16.262  67.237  1.00  0.00    -0.265 C  
HETATM   25  C   UNL     1     -10.854  15.027  65.050  1.00  0.00    -0.422 C  
HETATM   26  C   UNL     1     -10.678  15.870  68.695  1.00  0.00    -0.274 C  
HETATM   27  C   UNL     1     -11.472  14.576  68.697  1.00  0.00    -0.321 C  
HETATM   28  C   UNL     1     -11.316  13.972  67.293  1.00  0.00    -0.330 C  
ENDBRANCH  22  23
ENDBRANCH  17  22
ENDBRANCH   9  10
ENDBRANCH   5   6
BRANCH   5  29
HETATM   29  C   UNL     1      -9.504   7.124  71.391  1.00  0.00    -0.161 A  
HETATM   30  S   UNL     1     -11.606   6.392  70.148  1.00  0.00    -0.269 SA 
HETATM   31  C   UNL     1      -9.922   6.234  70.415  1.00  0.00    -0.178 A  
HETATM   32  H2  UNL     1     -13.682   7.954  71.178  1.00  0.00     0.000 HD 
HETATM   33  H1  UNL     1     -12.869   8.947  72.381  1.00  0.00     0.000 HD 
HETATM   34  C   UNL     1     -11.675   7.612  71.351  1.00  0.00    -0.283 A  
HETATM   35  N   UNL     1     -12.827   8.221  71.666  1.00  0.00    -0.324 NA 
HETATM   36  N   UNL     1     -10.536   7.893  71.932  1.00  0.00    -0.218 NA 
ENDBRANCH   5  29
ENDBRANCH   3   5
ENDBRANCH   2   3
TORSDOF 7
ENDMDL
MODEL      140
REMARK 921   NORMALIZED FREE ENERGY PREDICTED BY IDOCK:   -3.42 KCAL/MOL
REMARK 922        TOTAL FREE ENERGY PREDICTED BY IDOCK:   -5.94 KCAL/MOL
REMARK 923 INTER-LIGAND FREE ENERGY PREDICTED BY IDOCK:   -6.53 KCAL/MOL
REMARK 924 INTRA-LIGAND FREE ENERGY PREDICTED BY IDOCK:    0.59 KCAL/MOL
REMARK 927      BINDING AFFINITY PREDICTED BY RF-SCORE:    0.00 PKD
ROOT
HETATM    1  C   UNL     1     -12.453  15.608  71.220  1.00  0.00    -0.444 C  
HETATM    2  O   UNL     1     -12.517  14.619  70.199  1.00  0.00    -0.333 OA 
ENDROOT
BRANCH   2   3
HETATM    3  N   UNL     1     -12.118  15.196  68.988  1.00  0.00    -0.555 NA 
HETATM    4  H   UNL     1     -12.185  16.194  68.787  1.00  0.00     0.000 HD 
BRANCH   3   5
HETATM    5  C   UNL     1     -11.652  14.315  68.145  1.00  0.00    -0.332 C  
BRANCH   5   6
HETATM    6  C   UNL     1     -11.230  12.879  68.532  1.00  0.00    -0.274 C  
HETATM    7  H   UNL     1     -12.706  12.090  67.292  1.00  0.00     0.000 HD 
HETATM    8  O   UNL     1     -10.302  12.665  69.301  1.00  0.00     0.092 OA 
HETATM    9  N   UNL     1     -12.023  11.868  68.017  1.00  0.00    -0.242 N  
BRANCH   9  10
HETATM   10  CA  UNL     1     -11.904  10.460  68.499  1.00  0.00     0.187 C  
HETATM   11  N   UNL     1     -10.202   9.595  69.317  1.00  0.00    -0.194 N  
HETATM   12  C   UNL     1     -11.208  10.288  69.897  1.00  0.00    -0.299 C  
HETATM   13  C   UNL     1     -10.729   9.593  67.972  1.00  0.00    -0.232 C  
HETATM   14  O   UNL     1     -11.390  10.748  70.996  1.00  0.00    -0.096 OA 
HETATM   15  S   UNL     1      -9.472  10.372  66.931  1.00  0.00    -0.172 SA 
HETATM   16  C   UNL     1      -8.269   9.078  67.291  1.00  0.00    -0.103 C  
HETATM   17  C   UNL     1      -8.068   8.740  68.751  1.00  0.00    -0.115 C  
HETATM   18  CA  UNL     1      -9.014   9.025  69.694  1.00  0.00    -0.153 C  
HETATM   19  O   UNL     1      -9.747   8.033  71.747  1.00  0.00    -0.158 OA 
HETATM   20  C   UNL     1      -8.789   8.650  71.209  1.00  0.00    -0.207 C  
HETATM   21  OXT UNL     1      -7.612   8.868  71.625  1.00  0.00    -0.252 OA 
BRANCH  17  22
HETATM   22  C   UNL     1      -6.811   7.919  69.040  1.00  0.00    -0.057 C  
BRANCH  22  23
HETATM   23  N   UNL     1      -6.721   6.413  68.591  1.00  0.00    -0.058 N  
HETATM   24  C   UNL     1      -8.014   5.621  68.527  1.00  0.00    -0.100 C  
HETATM   25  C   UNL     1      -5.966   6.361  67.269  1.00  0.00    -0.020 C  
HETATM   26  C   UNL     1      -8.368   5.407  69.980  1.00  0.00    -0.107 C  
HETATM   27  C   UNL     1      -7.031   4.984  70.564  1.00  0.00    -0.045 C  
HETATM   28  C   UNL     1      -5.952   5.631  69.682  1.00  0.00    -0.021 C  
ENDBRANCH  22  23
ENDBRANCH  17  22
ENDBRANCH   9  10
ENDBRANCH   5   6
BRANCH   5  29
HETATM   29  C   UNL     1     -11.557  14.758  66.750  1.00  0.00    -0.324 A  
HETATM   30  S   UNL     1     -10.949  16.015  64.617  1.00  0.00    -0.087 SA 
HETATM   31  C   UNL     1     -10.755  15.796  66.304  1.00  0.00    -0.282 A  
HETATM   32  H2  UNL     1     -12.436  14.817  62.577  1.00  0.00     0.000 HD 
HETATM   33  H1  UNL     1     -13.319  13.552  63.423  1.00  0.00     0.000 HD 
HETATM   34  C   UNL     1     -12.064  14.713  64.583  1.00  0.00    -0.454 A  
HETATM   35  N   UNL     1     -12.655  14.326  63.444  1.00  0.00    -0.629 NA 
HETATM   36  N   UNL     1     -12.287  14.134  65.736  1.00  0.00    -0.458 NA 
ENDBRANCH   5  29
ENDBRANCH   3   5
ENDBRANCH   2   3
TORSDOF 7
ENDMDL
MODEL      141
REMARK 921   NORMALIZED FREE ENERGY PREDICTED BY IDOCK:   -3.42 KCAL/MOL
REMARK 922        TOTAL FREE ENERGY PREDICTED BY IDOCK:   -5.93 KCAL/MOL
REMARK 923 INTER-LIGAND FREE ENERGY PREDICTED BY IDOCK:   -5.04 KCAL/MOL
REMARK 924 INTRA-LIGAND FREE ENERGY PREDICTED BY IDOCK:   -0.89 KCAL/MOL
REMARK 927      BINDING AFFINITY PREDICTED BY RF-SCORE:    0.00 PKD
ROOT
HETATM    1  C   UNL     1      -7.282  18.388  67.913  1.00  0.00    -0.229 C  
HETATM    2  O   UNL     1      -8.313  17.604  67.326  1.00  0.00    -0.209 OA 
ENDROOT
BRANCH   2   3
HETATM    3  N   UNL     1      -7.733  16.496  66.698  1.00  0.00    -0.257 NA 
HETATM    4  H   UNL     1      -7.213  16.548  65.823  1.00  0.00     0.000 HD 
BRANCH   3   5
HETATM    5  C   UNL     1      -7.933  15.387  67.359  1.00  0.00    -0.188 C  
BRANCH   5   6
HETATM    6  C   UNL     1      -6.851  14.309  67.598  1.00  0.00    -0.182 C  
HETATM    7  H   UNL     1      -8.035  12.882  66.650  1.00  0.00     0.000 HD 
HETATM    8  O   UNL     1      -5.794  14.571  68.156  1.00  0.00    -0.112 OA 
HETATM    9  N   UNL     1      -7.198  13.025  67.214  1.00  0.00    -0.105 N  
BRANCH   9  10
HETATM   10  CA  UNL     1      -6.373  11.844  67.608  1.00  0.00    -0.086 C  
HETATM   11  N   UNL     1      -6.889   9.852  67.326  1.00  0.00    -0.082 N  
HETATM   12  C   UNL     1      -6.246  10.722  66.515  1.00  0.00    -0.107 C  
HETATM   13  C   UNL     1      -7.033  10.730  68.464  1.00  0.00    -0.068 C  
HETATM   14  O   UNL     1      -5.898  10.699  65.361  1.00  0.00    -0.128 OA 
HETATM   15  S   UNL     1      -8.806  10.833  68.806  1.00  0.00    -0.154 SA 
HETATM   16  C   UNL     1      -8.911   9.071  69.173  1.00  0.00    -0.140 C  
HETATM   17  C   UNL     1      -8.299   8.139  68.152  1.00  0.00    -0.129 C  
HETATM   18  CA  UNL     1      -7.346   8.561  67.270  1.00  0.00    -0.088 C  
HETATM   19  O   UNL     1      -5.451   7.575  66.185  1.00  0.00    -0.027 OA 
HETATM   20  C   UNL     1      -6.711   7.567  66.223  1.00  0.00    -0.057 C  
HETATM   21  OXT UNL     1      -7.546   6.777  65.689  1.00  0.00    -0.082 OA 
BRANCH  17  22
HETATM   22  C   UNL     1      -8.716   6.675  68.305  1.00  0.00    -0.118 C  
BRANCH  22  23
HETATM   23  N   UNL     1      -8.037   5.764  69.395  1.00  0.00    -0.100 N  
HETATM   24  C   UNL     1      -8.049   4.264  69.163  1.00  0.00    -0.067 C  
HETATM   25  C   UNL     1      -6.625   6.284  69.629  1.00  0.00    -0.047 C  
HETATM   26  C   UNL     1      -9.489   3.881  69.408  1.00  0.00    -0.260 C  
HETATM   27  C   UNL     1      -9.797   4.639  70.687  1.00  0.00    -0.296 C  
HETATM   28  C   UNL     1      -8.871   5.865  70.694  1.00  0.00    -0.141 C  
ENDBRANCH  22  23
ENDBRANCH  17  22
ENDBRANCH   9  10
ENDBRANCH   5   6
BRANCH   5  29
HETATM   29  C   UNL     1      -9.284  15.205  67.901  1.00  0.00    -0.184 A  
HETATM   30  S   UNL     1     -11.770  14.708  68.164  1.00  0.00    -0.310 SA 
HETATM   31  C   UNL     1     -10.373  14.755  67.174  1.00  0.00    -0.255 A  
HETATM   32  H2  UNL     1     -12.386  15.285  70.828  1.00  0.00     0.000 HD 
HETATM   33  H1  UNL     1     -10.838  15.802  71.487  1.00  0.00     0.000 HD 
HETATM   34  C   UNL     1     -10.841  15.267  69.491  1.00  0.00    -0.271 A  
HETATM   35  N   UNL     1     -11.391  15.469  70.697  1.00  0.00    -0.312 NA 
HETATM   36  N   UNL     1      -9.572  15.474  69.241  1.00  0.00    -0.250 NA 
ENDBRANCH   5  29
ENDBRANCH   3   5
ENDBRANCH   2   3
TORSDOF 7
ENDMDL
MODEL      142
REMARK 921   NORMALIZED FREE ENERGY PREDICTED BY IDOCK:   -3.40 KCAL/MOL
REMARK 922        TOTAL FREE ENERGY PREDICTED BY IDOCK:   -5.91 KCAL/MOL
REMARK 923 INTER-LIGAND FREE ENERGY PREDICTED BY IDOCK:   -5.03 KCAL/MOL
REMARK 924 INTRA-LIGAND FREE ENERGY PREDICTED BY IDOCK:   -0.88 KCAL/MOL
REMARK 927      BINDING AFFINITY PREDICTED BY RF-SCORE:    0.00 PKD
ROOT
HETATM    1  C   UNL     1      -7.460   8.198  62.844  1.00  0.00    -0.115 C  
HETATM    2  O   UNL     1      -8.124   7.039  63.331  1.00  0.00    -0.097 OA 
ENDROOT
BRANCH   2   3
HETATM    3  N   UNL     1      -7.558   6.678  64.559  1.00  0.00    -0.095 NA 
HETATM    4  H   UNL     1      -6.563   6.758  64.770  1.00  0.00     0.000 HD 
BRANCH   3   5
HETATM    5  C   UNL     1      -8.445   6.225  65.404  1.00  0.00    -0.129 C  
BRANCH   5   6
HETATM    6  C   UNL     1      -9.043   7.054  66.564  1.00  0.00    -0.156 C  
HETATM    7  H   UNL     1      -8.612   8.820  65.549  1.00  0.00     0.000 HD 
HETATM    8  O   UNL     1      -9.527   6.521  67.554  1.00  0.00    -0.124 OA 
HETATM    9  N   UNL     1      -8.913   8.427  66.440  1.00  0.00    -0.160 N  
BRANCH   9  10
HETATM   10  CA  UNL     1      -9.206   9.344  67.581  1.00  0.00    -0.127 C  
HETATM   11  N   UNL     1      -9.351  11.413  67.472  1.00  0.00    -0.162 N  
HETATM   12  C   UNL     1     -10.282  10.451  67.291  1.00  0.00    -0.211 C  
HETATM   13  C   UNL     1      -8.254  10.544  67.831  1.00  0.00    -0.107 C  
HETATM   14  O   UNL     1     -11.418  10.443  66.884  1.00  0.00    -0.110 OA 
HETATM   15  S   UNL     1      -6.934  10.870  66.638  1.00  0.00    -0.141 SA 
HETATM   16  C   UNL     1      -6.771  12.583  67.178  1.00  0.00    -0.054 C  
HETATM   17  C   UNL     1      -8.052  13.381  67.262  1.00  0.00    -0.147 C  
HETATM   18  CA  UNL     1      -9.271  12.779  67.382  1.00  0.00    -0.193 C  
HETATM   19  O   UNL     1     -11.356  13.312  68.433  1.00  0.00    -0.254 OA 
HETATM   20  C   UNL     1     -10.593  13.632  67.483  1.00  0.00    -0.241 C  
HETATM   21  OXT UNL     1     -10.623  14.631  66.702  1.00  0.00    -0.280 OA 
BRANCH  17  22
HETATM   22  C   UNL     1      -7.846  14.893  67.366  1.00  0.00    -0.199 C  
BRANCH  22  23
HETATM   23  N   UNL     1      -7.723  15.586  68.775  1.00  0.00    -0.147 N  
HETATM   24  C   UNL     1      -8.986  16.159  69.389  1.00  0.00    -0.128 C  
HETATM   25  C   UNL     1      -7.034  14.609  69.719  1.00  0.00    -0.130 C  
HETATM   26  C   UNL     1      -9.258  17.387  68.552  1.00  0.00    -0.277 C  
HETATM   27  C   UNL     1      -7.879  18.018  68.472  1.00  0.00    -0.310 C  
HETATM   28  C   UNL     1      -6.871  16.867  68.608  1.00  0.00    -0.183 C  
ENDBRANCH  22  23
ENDBRANCH  17  22
ENDBRANCH   9  10
ENDBRANCH   5   6
BRANCH   5  29
HETATM   29  C   UNL     1      -8.882   4.842  65.187  1.00  0.00    -0.151 A  
HETATM   30  S   UNL     1      -9.090   2.302  65.251  1.00  0.00    -0.087 SA 
HETATM   31  C   UNL     1      -8.310   3.731  65.784  1.00  0.00    -0.105 A  
HETATM   32  H2  UNL     1     -11.194   1.667  63.525  1.00  0.00     0.000 HD 
HETATM   33  H1  UNL     1     -11.721   3.244  62.948  1.00  0.00     0.000 HD 
HETATM   34  C   UNL     1     -10.143   3.247  64.282  1.00  0.00    -0.152 A  
HETATM   35  N   UNL     1     -11.095   2.682  63.524  1.00  0.00    -0.266 NA 
HETATM   36  N   UNL     1      -9.952   4.541  64.341  1.00  0.00     0.014 NA 
ENDBRANCH   5  29
ENDBRANCH   3   5
ENDBRANCH   2   3
TORSDOF 7
ENDMDL
MODEL      143
REMARK 921   NORMALIZED FREE ENERGY PREDICTED BY IDOCK:   -3.39 KCAL/MOL
REMARK 922        TOTAL FREE ENERGY PREDICTED BY IDOCK:   -5.90 KCAL/MOL
REMARK 923 INTER-LIGAND FREE ENERGY PREDICTED BY IDOCK:   -5.16 KCAL/MOL
REMARK 924 INTRA-LIGAND FREE ENERGY PREDICTED BY IDOCK:   -0.74 KCAL/MOL
REMARK 927      BINDING AFFINITY PREDICTED BY RF-SCORE:    0.00 PKD
ROOT
HETATM    1  C   UNL     1      -7.165   3.034  68.919  1.00  0.00    -0.048 C  
HETATM    2  O   UNL     1      -7.745   3.901  67.952  1.00  0.00    -0.067 OA 
ENDROOT
BRANCH   2   3
HETATM    3  N   UNL     1      -6.726   4.642  67.343  1.00  0.00    -0.050 NA 
HETATM    4  H   UNL     1      -5.830   4.843  67.785  1.00  0.00     0.000 HD 
BRANCH   3   5
HETATM    5  C   UNL     1      -7.052   5.049  66.145  1.00  0.00    -0.072 C  
BRANCH   5   6
HETATM    6  C   UNL     1      -6.614   6.401  65.537  1.00  0.00    -0.043 C  
HETATM    7  H   UNL     1      -7.406   7.416  67.175  1.00  0.00     0.000 HD 
HETATM    8  O   UNL     1      -6.017   6.465  64.471  1.00  0.00    -0.022 OA 
HETATM    9  N   UNL     1      -7.017   7.525  66.238  1.00  0.00    -0.064 N  
BRANCH   9  10
HETATM   10  CA  UNL     1      -6.896   8.893  65.654  1.00  0.00    -0.076 C  
HETATM   11  N   UNL     1      -7.614  10.647  66.504  1.00  0.00    -0.127 N  
HETATM   12  C   UNL     1      -6.431  10.011  66.656  1.00  0.00    -0.072 C  
HETATM   13  C   UNL     1      -8.177   9.758  65.515  1.00  0.00    -0.129 C  
HETATM   14  O   UNL     1      -5.492  10.144  67.401  1.00  0.00    -0.041 OA 
HETATM   15  S   UNL     1      -9.725   9.135  66.213  1.00  0.00    -0.288 SA 
HETATM   16  C   UNL     1     -10.449  10.786  66.268  1.00  0.00    -0.226 C  
HETATM   17  C   UNL     1      -9.604  11.864  66.909  1.00  0.00    -0.208 C  
HETATM   18  CA  UNL     1      -8.248  11.747  67.020  1.00  0.00    -0.172 C  
HETATM   19  O   UNL     1      -6.386  13.254  67.003  1.00  0.00    -0.141 OA 
HETATM   20  C   UNL     1      -7.386  12.891  67.680  1.00  0.00    -0.145 C  
HETATM   21  OXT UNL     1      -7.912  13.403  68.713  1.00  0.00    -0.093 OA 
BRANCH  17  22
HETATM   22  C   UNL     1     -10.372  13.139  67.262  1.00  0.00    -0.243 C  
BRANCH  22  23
HETATM   23  N   UNL     1     -10.566  14.274  66.189  1.00  0.00    -0.288 N  
HETATM   24  C   UNL     1     -11.965  14.833  66.002  1.00  0.00    -0.151 C  
HETATM   25  C   UNL     1      -9.558  15.377  66.484  1.00  0.00    -0.275 C  
HETATM   26  C   UNL     1     -12.697  13.718  65.293  1.00  0.00    -0.481 C  
HETATM   27  C   UNL     1     -11.693  13.318  64.227  1.00  0.00    -0.454 C  
HETATM   28  C   UNL     1     -10.306  13.664  64.791  1.00  0.00    -0.392 C  
ENDBRANCH  22  23
ENDBRANCH  17  22
ENDBRANCH   9  10
ENDBRANCH   5   6
BRANCH   5  29
HETATM   29  C   UNL     1      -7.875   4.122  65.361  1.00  0.00    -0.086 A  
HETATM   30  S   UNL     1      -8.677   2.167  63.936  1.00  0.00    -0.092 SA 
HETATM   31  C   UNL     1      -7.414   2.949  64.789  1.00  0.00    -0.075 A  
HETATM   32  H2  UNL     1     -11.383   2.649  63.434  1.00  0.00     0.000 HD 
HETATM   33  H1  UNL     1     -11.678   4.161  64.284  1.00  0.00     0.000 HD 
HETATM   34  C   UNL     1      -9.753   3.420  64.395  1.00  0.00    -0.168 A  
HETATM   35  N   UNL     1     -11.038   3.416  64.012  1.00  0.00    -0.217 NA 
HETATM   36  N   UNL     1      -9.233   4.363  65.139  1.00  0.00    -0.149 NA 
ENDBRANCH   5  29
ENDBRANCH   3   5
ENDBRANCH   2   3
TORSDOF 7
ENDMDL
MODEL      144
REMARK 921   NORMALIZED FREE ENERGY PREDICTED BY IDOCK:   -3.37 KCAL/MOL
REMARK 922        TOTAL FREE ENERGY PREDICTED BY IDOCK:   -5.86 KCAL/MOL
REMARK 923 INTER-LIGAND FREE ENERGY PREDICTED BY IDOCK:   -5.64 KCAL/MOL
REMARK 924 INTRA-LIGAND FREE ENERGY PREDICTED BY IDOCK:   -0.22 KCAL/MOL
REMARK 927      BINDING AFFINITY PREDICTED BY RF-SCORE:    0.00 PKD
ROOT
HETATM    1  C   UNL     1      -6.251  19.959  68.249  1.00  0.00    -0.251 C  
HETATM    2  O   UNL     1      -6.381  19.782  66.843  1.00  0.00    -0.186 OA 
ENDROOT
BRANCH   2   3
HETATM    3  N   UNL     1      -6.119  18.444  66.532  1.00  0.00    -0.155 NA 
HETATM    4  H   UNL     1      -5.307  18.135  65.997  1.00  0.00     0.000 HD 
BRANCH   3   5
HETATM    5  C   UNL     1      -7.029  17.634  67.002  1.00  0.00    -0.178 C  
BRANCH   5   6
HETATM    6  C   UNL     1      -6.723  16.387  67.863  1.00  0.00    -0.135 C  
HETATM    7  H   UNL     1      -7.866  15.202  66.587  1.00  0.00     0.000 HD 
HETATM    8  O   UNL     1      -6.008  16.448  68.854  1.00  0.00    -0.127 OA 
HETATM    9  N   UNL     1      -7.379  15.228  67.482  1.00  0.00    -0.179 N  
BRANCH   9  10
HETATM   10  CA  UNL     1      -7.389  14.016  68.353  1.00  0.00    -0.113 C  
HETATM   11  N   UNL     1      -8.856  12.545  68.375  1.00  0.00    -0.161 N  
HETATM   12  C   UNL     1      -7.739  12.670  67.623  1.00  0.00    -0.155 C  
HETATM   13  C   UNL     1      -8.658  13.718  69.196  1.00  0.00     0.415 C  
HETATM   14  O   UNL     1      -7.302  12.089  66.661  1.00  0.00    -0.028 OA 
HETATM   15  S   UNL     1     -10.121  14.756  68.961  1.00  0.00    -0.209 SA 
HETATM   16  C   UNL     1     -11.212  13.500  69.657  1.00  0.00    -0.063 C  
HETATM   17  C   UNL     1     -11.067  12.104  69.096  1.00  0.00    -0.263 C  
HETATM   18  CA  UNL     1      -9.926  11.694  68.470  1.00  0.00    -0.194 C  
HETATM   19  O   UNL     1      -8.736   9.626  68.245  1.00  0.00    -0.119 OA 
HETATM   20  C   UNL     1      -9.791  10.227  67.905  1.00  0.00    -0.157 C  
HETATM   21  OXT UNL     1     -10.837   9.797  67.333  1.00  0.00    -0.274 OA 
BRANCH  17  22
HETATM   22  C   UNL     1     -12.226  11.165  69.436  1.00  0.00    -0.259 C  
BRANCH  22  23
HETATM   23  N   UNL     1     -12.409  10.623  70.903  1.00  0.00    -0.364 N  
HETATM   24  C   UNL     1     -11.220   9.941  71.553  1.00  0.00    -0.099 C  
HETATM   25  C   UNL     1     -12.940  11.764  71.761  1.00  0.00    -0.361 C  
HETATM   26  C   UNL     1     -11.133   8.619  70.829  1.00  0.00    -0.295 C  
HETATM   27  C   UNL     1     -12.585   8.175  70.820  1.00  0.00     0.172 C  
HETATM   28  C   UNL     1     -13.428   9.459  70.861  1.00  0.00     0.000 C  
ENDBRANCH  22  23
ENDBRANCH  17  22
ENDBRANCH   9  10
ENDBRANCH   5   6
BRANCH   5  29
HETATM   29  C   UNL     1      -8.417  17.981  66.678  1.00  0.00    -0.262 A  
HETATM   30  S   UNL     1     -10.742  19.026  66.674  1.00  0.00    -0.265 SA 
HETATM   31  C   UNL     1      -9.165  18.943  67.336  1.00  0.00    -0.286 A  
HETATM   32  H2  UNL     1     -12.151  17.743  64.630  1.00  0.00     0.000 HD 
HETATM   33  H1  UNL     1     -10.965  16.618  63.979  1.00  0.00     0.000 HD 
HETATM   34  C   UNL     1     -10.328  17.800  65.550  1.00  0.00     0.050 A  
HETATM   35  N   UNL     1     -11.211  17.348  64.648  1.00  0.00    -0.824 NA 
HETATM   36  N   UNL     1      -9.101  17.349  65.637  1.00  0.00    -0.317 NA 
ENDBRANCH   5  29
ENDBRANCH   3   5
ENDBRANCH   2   3
TORSDOF 7
ENDMDL
MODEL      145
REMARK 921   NORMALIZED FREE ENERGY PREDICTED BY IDOCK:   -3.32 KCAL/MOL
REMARK 922        TOTAL FREE ENERGY PREDICTED BY IDOCK:   -5.80 KCAL/MOL
REMARK 923 INTER-LIGAND FREE ENERGY PREDICTED BY IDOCK:   -5.33 KCAL/MOL
REMARK 924 INTRA-LIGAND FREE ENERGY PREDICTED BY IDOCK:   -0.47 KCAL/MOL
REMARK 927      BINDING AFFINITY PREDICTED BY RF-SCORE:    0.00 PKD
ROOT
HETATM    1  C   UNL     1      -5.449  11.105  62.398  1.00  0.00    -0.110 C  
HETATM    2  O   UNL     1      -5.902  10.696  63.682  1.00  0.00    -0.121 OA 
ENDROOT
BRANCH   2   3
HETATM    3  N   UNL     1      -7.251  10.334  63.590  1.00  0.00    -0.262 NA 
HETATM    4  H   UNL     1      -7.905  10.749  62.927  1.00  0.00     0.000 HD 
BRANCH   3   5
HETATM    5  C   UNL     1      -7.578   9.405  64.449  1.00  0.00    -0.114 C  
BRANCH   5   6
HETATM    6  C   UNL     1      -8.263   9.679  65.807  1.00  0.00    -0.120 C  
HETATM    7  H   UNL     1      -8.182  11.730  65.455  1.00  0.00     0.000 HD 
HETATM    8  O   UNL     1      -8.609   8.770  66.549  1.00  0.00    -0.112 OA 
HETATM    9  N   UNL     1      -8.377  11.014  66.155  1.00  0.00    -0.169 N  
BRANCH   9  10
HETATM   10  CA  UNL     1      -8.777  11.430  67.531  1.00  0.00    -0.140 C  
HETATM   11  N   UNL     1      -9.418  13.325  68.092  1.00  0.00    -0.218 N  
HETATM   12  C   UNL     1     -10.107  12.263  67.619  1.00  0.00    -0.200 C  
HETATM   13  C   UNL     1      -8.119  12.695  68.146  1.00  0.00    -0.164 C  
HETATM   14  O   UNL     1     -11.239  12.094  67.240  1.00  0.00    -0.268 OA 
HETATM   15  S   UNL     1      -7.024  13.695  67.110  1.00  0.00     0.584 SA 
HETATM   16  C   UNL     1      -7.225  15.141  68.169  1.00  0.00    -0.115 C  
HETATM   17  C   UNL     1      -8.646  15.523  68.514  1.00  0.00    -0.176 C  
HETATM   18  CA  UNL     1      -9.672  14.625  68.443  1.00  0.00    -0.217 C  
HETATM   19  O   UNL     1     -11.724  14.264  69.625  1.00  0.00    -0.271 OA 
HETATM   20  C   UNL     1     -11.145  15.043  68.822  1.00  0.00    -0.261 C  
HETATM   21  OXT UNL     1     -11.479  16.192  68.402  1.00  0.00    -0.369 OA 
BRANCH  17  22
HETATM   22  C   UNL     1      -8.797  16.930  69.095  1.00  0.00    -0.080 C  
BRANCH  22  23
HETATM   23  N   UNL     1      -8.297  18.184  68.285  1.00  0.00    -0.283 N  
HETATM   24  C   UNL     1      -8.700  19.556  68.795  1.00  0.00    -0.300 C  
HETATM   25  C   UNL     1      -6.787  18.068  68.124  1.00  0.00    -0.210 C  
HETATM   26  C   UNL     1     -10.170  19.638  68.460  1.00  0.00    -0.529 C  
HETATM   27  C   UNL     1     -10.192  19.119  67.034  1.00  0.00    -0.479 C  
HETATM   28  C   UNL     1      -8.990  18.171  66.902  1.00  0.00    -0.271 C  
ENDBRANCH  22  23
ENDBRANCH  17  22
ENDBRANCH   9  10
ENDBRANCH   5   6
BRANCH   5  29
HETATM   29  C   UNL     1      -7.270   8.029  64.045  1.00  0.00    -0.087 A  
HETATM   30  S   UNL     1      -6.062   5.858  63.472  1.00  0.00    -0.025 SA 
HETATM   31  C   UNL     1      -6.000   7.476  64.030  1.00  0.00    -0.048 A  
HETATM   32  H2  UNL     1      -8.046   4.086  62.616  1.00  0.00     0.000 HD 
HETATM   33  H1  UNL     1      -9.517   5.041  62.760  1.00  0.00     0.000 HD 
HETATM   34  C   UNL     1      -7.764   5.989  63.305  1.00  0.00    -0.096 A  
HETATM   35  N   UNL     1      -8.505   4.964  62.860  1.00  0.00    -0.114 NA 
HETATM   36  N   UNL     1      -8.275   7.146  63.643  1.00  0.00     0.018 NA 
ENDBRANCH   5  29
ENDBRANCH   3   5
ENDBRANCH   2   3
TORSDOF 7
ENDMDL
MODEL      146
REMARK 921   NORMALIZED FREE ENERGY PREDICTED BY IDOCK:   -3.30 KCAL/MOL
REMARK 922        TOTAL FREE ENERGY PREDICTED BY IDOCK:   -5.76 KCAL/MOL
REMARK 923 INTER-LIGAND FREE ENERGY PREDICTED BY IDOCK:   -6.68 KCAL/MOL
REMARK 924 INTRA-LIGAND FREE ENERGY PREDICTED BY IDOCK:    0.91 KCAL/MOL
REMARK 927      BINDING AFFINITY PREDICTED BY RF-SCORE:    0.00 PKD
ROOT
HETATM    1  C   UNL     1     -12.789  10.880  71.243  1.00  0.00    -0.433 C  
HETATM    2  O   UNL     1     -11.769  10.891  70.252  1.00  0.00    -0.294 OA 
ENDROOT
BRANCH   2   3
HETATM    3  N   UNL     1     -12.369  10.953  68.990  1.00  0.00    -0.731 NA 
HETATM    4  H   UNL     1     -13.375  10.893  68.837  1.00  0.00     0.000 HD 
BRANCH   3   5
HETATM    5  C   UNL     1     -11.496  11.094  68.028  1.00  0.00    -0.293 C  
BRANCH   5   6
HETATM    6  C   UNL     1     -10.382  10.072  67.708  1.00  0.00    -0.215 C  
HETATM    7  H   UNL     1      -8.936  11.558  67.897  1.00  0.00     0.000 HD 
HETATM    8  O   UNL     1     -10.632   8.893  67.495  1.00  0.00    -0.271 OA 
HETATM    9  N   UNL     1      -9.107  10.599  67.597  1.00  0.00    -0.142 N  
BRANCH   9  10
HETATM   10  CA  UNL     1      -7.976   9.795  67.046  1.00  0.00    -0.105 C  
HETATM   11  N   UNL     1      -7.719   7.746  67.264  1.00  0.00    -0.110 N  
HETATM   12  C   UNL     1      -8.389   8.458  66.332  1.00  0.00    -0.116 C  
HETATM   13  C   UNL     1      -7.188   8.865  68.007  1.00  0.00    -0.083 C  
HETATM   14  O   UNL     1      -9.149   8.174  65.439  1.00  0.00    -0.052 OA 
HETATM   15  S   UNL     1      -7.777   8.674  69.707  1.00  0.00    -0.091 SA 
HETATM   16  C   UNL     1      -6.889   7.119  69.915  1.00  0.00    -0.056 C  
HETATM   17  C   UNL     1      -7.088   6.086  68.830  1.00  0.00    -0.081 C  
HETATM   18  CA  UNL     1      -7.508   6.428  67.576  1.00  0.00    -0.092 C  
HETATM   19  O   UNL     1      -7.140   5.607  65.356  1.00  0.00    -0.063 OA 
HETATM   20  C   UNL     1      -7.695   5.335  66.455  1.00  0.00    -0.096 C  
HETATM   21  OXT UNL     1      -8.228   4.261  66.866  1.00  0.00    -0.101 OA 
BRANCH  17  22
HETATM   22  C   UNL     1      -6.626   4.677  69.208  1.00  0.00    -0.040 C  
BRANCH  22  23
HETATM   23  N   UNL     1      -7.273   3.929  70.433  1.00  0.00    -0.041 N  
HETATM   24  C   UNL     1      -7.872   2.558  70.182  1.00  0.00    -0.042 C  
HETATM   25  C   UNL     1      -6.245   3.894  71.557  1.00  0.00    -0.014 C  
HETATM   26  C   UNL     1      -9.133   2.861  69.407  1.00  0.00    -0.197 C  
HETATM   27  C   UNL     1      -9.717   4.013  70.206  1.00  0.00    -0.263 C  
HETATM   28  C   UNL     1      -8.527   4.721  70.873  1.00  0.00    -0.106 C  
ENDBRANCH  22  23
ENDBRANCH  17  22
ENDBRANCH   9  10
ENDBRANCH   5   6
BRANCH   5  29
HETATM   29  C   UNL     1     -11.632  12.311  67.220  1.00  0.00    -0.357 A  
HETATM   30  S   UNL     1     -11.686  14.736  66.438  1.00  0.00    -0.197 SA 
HETATM   31  C   UNL     1     -11.387  13.595  67.679  1.00  0.00    -0.300 A  
HETATM   32  H2  UNL     1     -12.512  14.657  63.769  1.00  0.00     0.000 HD 
HETATM   33  H1  UNL     1     -12.721  12.935  63.472  1.00  0.00     0.000 HD 
HETATM   34  C   UNL     1     -12.101  13.459  65.372  1.00  0.00    -0.421 A  
HETATM   35  N   UNL     1     -12.474  13.695  64.106  1.00  0.00    -0.674 NA 
HETATM   36  N   UNL     1     -12.021  12.255  65.880  1.00  0.00    -0.597 NA 
ENDBRANCH   5  29
ENDBRANCH   3   5
ENDBRANCH   2   3
TORSDOF 7
ENDMDL
MODEL      147
REMARK 921   NORMALIZED FREE ENERGY PREDICTED BY IDOCK:   -3.26 KCAL/MOL
REMARK 922        TOTAL FREE ENERGY PREDICTED BY IDOCK:   -5.71 KCAL/MOL
REMARK 923 INTER-LIGAND FREE ENERGY PREDICTED BY IDOCK:   -4.86 KCAL/MOL
REMARK 924 INTRA-LIGAND FREE ENERGY PREDICTED BY IDOCK:   -0.85 KCAL/MOL
REMARK 927      BINDING AFFINITY PREDICTED BY RF-SCORE:    0.00 PKD
ROOT
HETATM    1  C   UNL     1      -7.814   3.215  66.984  1.00  0.00    -0.079 C  
HETATM    2  O   UNL     1      -7.585   4.292  67.885  1.00  0.00    -0.068 OA 
ENDROOT
BRANCH   2   3
HETATM    3  N   UNL     1      -8.643   5.202  67.776  1.00  0.00    -0.104 NA 
HETATM    4  H   UNL     1      -9.479   5.035  67.216  1.00  0.00     0.000 HD 
BRANCH   3   5
HETATM    5  C   UNL     1      -8.440   6.289  68.471  1.00  0.00    -0.115 C  
BRANCH   5   6
HETATM    6  C   UNL     1      -7.697   7.536  67.939  1.00  0.00    -0.116 C  
HETATM    7  H   UNL     1      -9.403   8.696  68.223  1.00  0.00     0.000 HD 
HETATM    8  O   UNL     1      -6.526   7.488  67.589  1.00  0.00    -0.053 OA 
HETATM    9  N   UNL     1      -8.471   8.677  67.810  1.00  0.00    -0.125 N  
BRANCH   9  10
HETATM   10  CA  UNL     1      -7.972   9.879  67.078  1.00  0.00    -0.109 C  
HETATM   11  N   UNL     1      -7.937  11.821  67.811  1.00  0.00    -0.132 N  
HETATM   12  C   UNL     1      -7.030  10.824  67.907  1.00  0.00    -0.073 C  
HETATM   13  C   UNL     1      -8.893  11.124  66.982  1.00  0.00    -0.149 C  
HETATM   14  O   UNL     1      -6.012  10.668  68.534  1.00  0.00    -0.041 OA 
HETATM   15  S   UNL     1     -10.454  11.123  67.896  1.00  0.00    -0.201 SA 
HETATM   16  C   UNL     1     -10.563  12.923  67.854  1.00  0.00    -0.222 C  
HETATM   17  C   UNL     1      -9.327  13.677  68.290  1.00  0.00    -0.204 C  
HETATM   18  CA  UNL     1      -8.089  13.103  68.274  1.00  0.00    -0.152 C  
HETATM   19  O   UNL     1      -5.846  13.864  67.911  1.00  0.00    -0.128 OA 
HETATM   20  C   UNL     1      -6.812  13.914  68.720  1.00  0.00    -0.105 C  
HETATM   21  OXT UNL     1      -6.993  14.640  69.743  1.00  0.00    -0.164 OA 
BRANCH  17  22
HETATM   22  C   UNL     1      -9.565  15.159  68.586  1.00  0.00    -0.213 C  
BRANCH  22  23
HETATM   23  N   UNL     1      -9.315  16.244  67.473  1.00  0.00    -0.217 N  
HETATM   24  C   UNL     1     -10.529  16.936  66.881  1.00  0.00    -0.271 C  
HETATM   25  C   UNL     1      -8.306  17.248  68.015  1.00  0.00    -0.228 C  
HETATM   26  C   UNL     1     -11.160  15.866  66.021  1.00  0.00    -0.037 C  
HETATM   27  C   UNL     1      -9.951  15.299  65.297  1.00  0.00    -0.322 C  
HETATM   28  C   UNL     1      -8.748  15.529  66.224  1.00  0.00    -0.248 C  
ENDBRANCH  22  23
ENDBRANCH  17  22
ENDBRANCH   9  10
ENDBRANCH   5   6
BRANCH   5  29
HETATM   29  C   UNL     1      -8.984   6.283  69.834  1.00  0.00    -0.141 A  
HETATM   30  S   UNL     1     -10.483   5.957  71.869  1.00  0.00    -0.227 SA 
HETATM   31  C   UNL     1     -10.204   5.736  70.194  1.00  0.00    -0.236 A  
HETATM   32  H2  UNL     1      -9.114   7.107  74.016  1.00  0.00     0.000 HD 
HETATM   33  H1  UNL     1      -7.628   7.685  73.272  1.00  0.00     0.000 HD 
HETATM   34  C   UNL     1      -8.966   6.743  72.011  1.00  0.00    -0.138 A  
HETATM   35  N   UNL     1      -8.530   7.217  73.187  1.00  0.00    -0.119 NA 
HETATM   36  N   UNL     1      -8.277   6.839  70.902  1.00  0.00    -0.122 NA 
ENDBRANCH   5  29
ENDBRANCH   3   5
ENDBRANCH   2   3
TORSDOF 7
ENDMDL
MODEL      148
REMARK 921   NORMALIZED FREE ENERGY PREDICTED BY IDOCK:   -3.23 KCAL/MOL
REMARK 922        TOTAL FREE ENERGY PREDICTED BY IDOCK:   -5.66 KCAL/MOL
REMARK 923 INTER-LIGAND FREE ENERGY PREDICTED BY IDOCK:   -6.44 KCAL/MOL
REMARK 924 INTRA-LIGAND FREE ENERGY PREDICTED BY IDOCK:    0.78 KCAL/MOL
REMARK 927      BINDING AFFINITY PREDICTED BY RF-SCORE:    0.00 PKD
ROOT
HETATM    1  C   UNL     1     -11.696  13.755  70.529  1.00  0.00    -0.130 C  
HETATM    2  O   UNL     1     -11.092  13.507  69.266  1.00  0.00    -0.243 OA 
ENDROOT
BRANCH   2   3
HETATM    3  N   UNL     1     -12.084  13.115  68.361  1.00  0.00    -0.267 NA 
HETATM    4  H   UNL     1     -13.067  13.370  68.452  1.00  0.00     0.000 HD 
BRANCH   3   5
HETATM    5  C   UNL     1     -11.610  12.386  67.386  1.00  0.00    -0.365 C  
BRANCH   5   6
HETATM    6  C   UNL     1     -10.917  11.018  67.581  1.00  0.00    -0.275 C  
HETATM    7  H   UNL     1      -9.111  11.819  66.921  1.00  0.00     0.000 HD 
HETATM    8  O   UNL     1     -11.521  10.044  68.011  1.00  0.00    -0.178 OA 
HETATM    9  N   UNL     1      -9.600  10.956  67.159  1.00  0.00    -0.164 N  
BRANCH   9  10
HETATM   10  CA  UNL     1      -8.879   9.654  67.043  1.00  0.00    -0.131 C  
HETATM   11  N   UNL     1      -9.195   7.979  68.230  1.00  0.00    -0.135 N  
HETATM   12  C   UNL     1      -9.792   8.376  67.085  1.00  0.00    -0.215 C  
HETATM   13  C   UNL     1      -8.229   9.050  68.317  1.00  0.00    -0.116 C  
HETATM   14  O   UNL     1     -10.756   8.003  66.464  1.00  0.00    -0.081 OA 
HETATM   15  S   UNL     1      -8.513   9.864  69.907  1.00  0.00    -0.155 SA 
HETATM   16  C   UNL     1      -8.095   8.371  70.828  1.00  0.00    -0.111 C  
HETATM   17  C   UNL     1      -8.790   7.101  70.391  1.00  0.00    -0.151 C  
HETATM   18  CA  UNL     1      -9.321   6.962  69.141  1.00  0.00    -0.140 C  
HETATM   19  O   UNL     1      -9.639   5.158  67.598  1.00  0.00    -0.128 OA 
HETATM   20  C   UNL     1     -10.028   5.623  68.703  1.00  0.00    -0.162 C  
HETATM   21  OXT UNL     1     -10.764   5.110  69.599  1.00  0.00    -0.212 OA 
BRANCH  17  22
HETATM   22  C   UNL     1      -8.696   5.953  71.398  1.00  0.00    -0.133 C  
BRANCH  22  23
HETATM   23  N   UNL     1      -7.500   4.931  71.332  1.00  0.00    -0.076 N  
HETATM   24  C   UNL     1      -6.773   4.614  72.626  1.00  0.00    -0.052 C  
HETATM   25  C   UNL     1      -8.002   3.666  70.647  1.00  0.00    -0.053 C  
HETATM   26  C   UNL     1      -5.984   5.872  72.903  1.00  0.00    -0.037 C  
HETATM   27  C   UNL     1      -5.391   6.172  71.538  1.00  0.00    -0.022 C  
HETATM   28  C   UNL     1      -6.361   5.576  70.507  1.00  0.00    -0.027 C  
ENDBRANCH  22  23
ENDBRANCH  17  22
ENDBRANCH   9  10
ENDBRANCH   5   6
BRANCH   5  29
HETATM   29  C   UNL     1     -11.786  12.935  66.037  1.00  0.00    -0.430 A  
HETATM   30  S   UNL     1     -11.987  13.204  63.511  1.00  0.00    -0.442 SA 
HETATM   31  C   UNL     1     -11.775  12.187  64.872  1.00  0.00    -0.313 A  
HETATM   32  H2  UNL     1     -12.357  15.937  63.062  1.00  0.00     0.000 HD 
HETATM   33  H1  UNL     1     -12.346  16.609  64.689  1.00  0.00     0.000 HD 
HETATM   34  C   UNL     1     -12.098  14.563  64.551  1.00  0.00    -0.484 A  
HETATM   35  N   UNL     1     -12.281  15.801  64.070  1.00  0.00    -0.623 NA 
HETATM   36  N   UNL     1     -11.995  14.301  65.830  1.00  0.00    -0.387 NA 
ENDBRANCH   5  29
ENDBRANCH   3   5
ENDBRANCH   2   3
TORSDOF 7
ENDMDL
MODEL      149
REMARK 921   NORMALIZED FREE ENERGY PREDICTED BY IDOCK:   -3.22 KCAL/MOL
REMARK 922        TOTAL FREE ENERGY PREDICTED BY IDOCK:   -5.65 KCAL/MOL
REMARK 923 INTER-LIGAND FREE ENERGY PREDICTED BY IDOCK:   -5.01 KCAL/MOL
REMARK 924 INTRA-LIGAND FREE ENERGY PREDICTED BY IDOCK:   -0.64 KCAL/MOL
REMARK 927      BINDING AFFINITY PREDICTED BY RF-SCORE:    0.00 PKD
ROOT
HETATM    1  C   UNL     1     -11.645  16.118  67.610  1.00  0.00     0.149 C  
HETATM    2  O   UNL     1     -10.404  15.441  67.447  1.00  0.00    -0.253 OA 
ENDROOT
BRANCH   2   3
HETATM    3  N   UNL     1     -10.159  14.670  68.588  1.00  0.00    -0.232 NA 
HETATM    4  H   UNL     1     -10.314  15.001  69.540  1.00  0.00     0.000 HD 
BRANCH   3   5
HETATM    5  C   UNL     1      -9.709  13.478  68.299  1.00  0.00    -0.224 C  
BRANCH   5   6
HETATM    6  C   UNL     1     -10.589  12.209  68.233  1.00  0.00    -0.217 C  
HETATM    7  H   UNL     1      -9.808  11.550  70.047  1.00  0.00     0.000 HD 
HETATM    8  O   UNL     1     -11.365  12.010  67.308  1.00  0.00    -0.289 OA 
HETATM    9  N   UNL     1     -10.375  11.286  69.242  1.00  0.00    -0.132 N  
BRANCH   9  10
HETATM   10  CA  UNL     1     -10.954   9.911  69.178  1.00  0.00    -0.200 C  
HETATM   11  N   UNL     1     -10.151   8.210  70.058  1.00  0.00    -0.193 N  
HETATM   12  C   UNL     1     -11.002   9.140  70.546  1.00  0.00    -0.258 C  
HETATM   13  C   UNL     1     -10.042   8.742  68.720  1.00  0.00    -0.198 C  
HETATM   14  O   UNL     1     -11.452   9.380  71.639  1.00  0.00    -0.369 OA 
HETATM   15  S   UNL     1      -8.285   9.067  68.442  1.00  0.00    -0.117 SA 
HETATM   16  C   UNL     1      -7.860   7.323  68.617  1.00  0.00    -0.122 C  
HETATM   17  C   UNL     1      -8.409   6.622  69.839  1.00  0.00    -0.132 C  
HETATM   18  CA  UNL     1      -9.498   7.094  70.513  1.00  0.00    -0.162 C  
HETATM   19  O   UNL     1     -11.303   6.125  71.754  1.00  0.00    -0.275 OA 
HETATM   20  C   UNL     1     -10.061   6.338  71.777  1.00  0.00    -0.186 C  
HETATM   21  OXT UNL     1      -9.164   5.898  72.558  1.00  0.00    -0.140 OA 
BRANCH  17  22
HETATM   22  C   UNL     1      -7.747   5.277  70.143  1.00  0.00    -0.072 C  
BRANCH  22  23
HETATM   23  N   UNL     1      -8.213   3.973  69.395  1.00  0.00    -0.058 N  
HETATM   24  C   UNL     1      -9.571   3.402  69.757  1.00  0.00    -0.110 C  
HETATM   25  C   UNL     1      -8.090   4.222  67.897  1.00  0.00    -0.094 C  
HETATM   26  C   UNL     1      -9.351   2.813  71.130  1.00  0.00    -0.211 C  
HETATM   27  C   UNL     1      -8.038   2.074  70.942  1.00  0.00    -0.059 C  
HETATM   28  C   UNL     1      -7.283   2.813  69.827  1.00  0.00    -0.044 C  
ENDBRANCH  22  23
ENDBRANCH  17  22
ENDBRANCH   9  10
ENDBRANCH   5   6
BRANCH   5  29
HETATM   29  C   UNL     1      -8.274  13.393  68.011  1.00  0.00    -0.161 A  
HETATM   30  S   UNL     1      -5.954  12.568  67.349  1.00  0.00    -0.112 SA 
HETATM   31  C   UNL     1      -7.631  12.266  67.527  1.00  0.00    -0.155 A  
HETATM   32  H2  UNL     1      -4.230  14.726  67.769  1.00  0.00     0.000 HD 
HETATM   33  H1  UNL     1      -5.310  15.988  68.351  1.00  0.00     0.000 HD 
HETATM   34  C   UNL     1      -6.191  14.173  67.906  1.00  0.00    -0.155 A  
HETATM   35  N   UNL     1      -5.170  15.033  68.019  1.00  0.00    -0.119 NA 
HETATM   36  N   UNL     1      -7.428  14.488  68.201  1.00  0.00    -0.114 NA 
ENDBRANCH   5  29
ENDBRANCH   3   5
ENDBRANCH   2   3
TORSDOF 7
ENDMDL
MODEL      150
REMARK 921   NORMALIZED FREE ENERGY PREDICTED BY IDOCK:   -3.12 KCAL/MOL
REMARK 922        TOTAL FREE ENERGY PREDICTED BY IDOCK:   -5.51 KCAL/MOL
REMARK 923 INTER-LIGAND FREE ENERGY PREDICTED BY IDOCK:   -6.19 KCAL/MOL
REMARK 924 INTRA-LIGAND FREE ENERGY PREDICTED BY IDOCK:    0.68 KCAL/MOL
REMARK 927      BINDING AFFINITY PREDICTED BY RF-SCORE:    0.00 PKD
ROOT
HETATM    1  C   UNL     1     -12.915  14.045  71.134  1.00  0.00    -0.332 C  
HETATM    2  O   UNL     1     -12.189  12.847  71.379  1.00  0.00    -0.109 OA 
ENDROOT
BRANCH   2   3
HETATM    3  N   UNL     1     -12.597  11.877  70.456  1.00  0.00    -0.184 NA 
HETATM    4  H   UNL     1     -13.572  11.684  70.231  1.00  0.00     0.000 HD 
BRANCH   3   5
HETATM    5  C   UNL     1     -11.588  11.248  69.915  1.00  0.00    -0.334 C  
BRANCH   5   6
HETATM    6  C   UNL     1     -10.947   9.969  70.500  1.00  0.00    -0.326 C  
HETATM    7  H   UNL     1     -12.727   9.499  71.473  1.00  0.00     0.000 HD 
HETATM    8  O   UNL     1      -9.792   9.653  70.246  1.00  0.00    -0.241 OA 
HETATM    9  N   UNL     1     -11.739   9.261  71.388  1.00  0.00    -0.332 N  
BRANCH   9  10
HETATM   10  CA  UNL     1     -11.179   8.159  72.225  1.00  0.00    -0.359 C  
HETATM   11  N   UNL     1      -9.591   6.924  71.707  1.00  0.00    -0.160 N  
HETATM   12  C   UNL     1      -9.611   8.125  72.326  1.00  0.00    -0.251 C  
HETATM   13  C   UNL     1     -11.021   6.751  71.589  1.00  0.00    -0.235 C  
HETATM   14  O   UNL     1      -8.765   8.923  72.645  1.00  0.00    -0.373 OA 
HETATM   15  S   UNL     1     -11.367   6.551  69.826  1.00  0.00    -0.372 SA 
HETATM   16  C   UNL     1     -10.396   5.034  69.734  1.00  0.00    -0.216 C  
HETATM   17  C   UNL     1      -9.005   5.095  70.322  1.00  0.00    -0.156 C  
HETATM   18  CA  UNL     1      -8.655   6.032  71.251  1.00  0.00    -0.129 C  
HETATM   19  O   UNL     1      -7.159   6.125  73.120  1.00  0.00    -0.082 OA 
HETATM   20  C   UNL     1      -7.202   6.068  71.862  1.00  0.00    -0.092 C  
HETATM   21  OXT UNL     1      -6.281   5.862  71.015  1.00  0.00    -0.036 OA 
BRANCH  17  22
HETATM   22  C   UNL     1      -8.097   3.934  69.913  1.00  0.00    -0.054 C  
BRANCH  22  23
HETATM   23  N   UNL     1      -7.816   3.640  68.392  1.00  0.00    -0.063 N  
HETATM   24  C   UNL     1      -6.466   3.051  68.027  1.00  0.00    -0.036 C  
HETATM   25  C   UNL     1      -8.961   2.788  67.860  1.00  0.00    -0.161 C  
HETATM   26  C   UNL     1      -5.514   4.208  68.216  1.00  0.00    -0.013 C  
HETATM   27  C   UNL     1      -6.264   5.339  67.535  1.00  0.00    -0.035 C  
HETATM   28  C   UNL     1      -7.757   4.993  67.643  1.00  0.00    -0.087 C  
ENDBRANCH  22  23
ENDBRANCH  17  22
ENDBRANCH   9  10
ENDBRANCH   5   6
BRANCH   5  29
HETATM   29  C   UNL     1     -11.077  11.822  68.665  1.00  0.00    -0.238 A  
HETATM   30  S   UNL     1     -10.555  12.269  66.211  1.00  0.00    -0.259 SA 
HETATM   31  C   UNL     1     -11.365  11.340  67.399  1.00  0.00    -0.276 A  
HETATM   32  H2  UNL     1      -8.843  14.478  66.187  1.00  0.00     0.000 HD 
HETATM   33  H1  UNL     1      -8.680  14.869  67.895  1.00  0.00     0.000 HD 
HETATM   34  C   UNL     1      -9.891  13.257  67.445  1.00  0.00    -0.227 A  
HETATM   35  N   UNL     1      -9.075  14.281  67.161  1.00  0.00    -0.218 NA 
HETATM   36  N   UNL     1     -10.242  12.941  68.667  1.00  0.00    -0.204 NA 
ENDBRANCH   5  29
ENDBRANCH   3   5
ENDBRANCH   2   3
TORSDOF 7
ENDMDL
MODEL      151
REMARK 921   NORMALIZED FREE ENERGY PREDICTED BY IDOCK:   -3.11 KCAL/MOL
REMARK 922        TOTAL FREE ENERGY PREDICTED BY IDOCK:   -5.49 KCAL/MOL
REMARK 923 INTER-LIGAND FREE ENERGY PREDICTED BY IDOCK:   -5.67 KCAL/MOL
REMARK 924 INTRA-LIGAND FREE ENERGY PREDICTED BY IDOCK:    0.18 KCAL/MOL
REMARK 927      BINDING AFFINITY PREDICTED BY RF-SCORE:    0.00 PKD
ROOT
HETATM    1  C   UNL     1     -10.898  11.182  64.891  1.00  0.00    -0.190 C  
HETATM    2  O   UNL     1     -11.265  12.432  65.462  1.00  0.00    -0.302 OA 
ENDROOT
BRANCH   2   3
HETATM    3  N   UNL     1     -12.022  12.195  66.614  1.00  0.00    -0.629 NA 
HETATM    4  H   UNL     1     -12.987  11.866  66.601  1.00  0.00     0.000 HD 
BRANCH   3   5
HETATM    5  C   UNL     1     -11.356  12.444  67.710  1.00  0.00    -0.299 C  
BRANCH   5   6
HETATM    6  C   UNL     1     -10.380  11.450  68.379  1.00  0.00    -0.195 C  
HETATM    7  H   UNL     1     -11.674   9.871  67.964  1.00  0.00     0.000 HD 
HETATM    8  O   UNL     1      -9.312  11.814  68.853  1.00  0.00    -0.068 OA 
HETATM    9  N   UNL     1     -10.836  10.146  68.476  1.00  0.00    -0.229 N  
BRANCH   9  10
HETATM   10  CA  UNL     1     -10.128   9.133  69.314  1.00  0.00    -0.194 C  
HETATM   11  N   UNL     1      -8.670   7.811  68.652  1.00  0.00    -0.129 N  
HETATM   12  C   UNL     1      -8.570   9.074  69.121  1.00  0.00    -0.133 C  
HETATM   13  C   UNL     1     -10.096   7.659  68.827  1.00  0.00    -0.194 C  
HETATM   14  O   UNL     1      -7.678   9.883  69.180  1.00  0.00    -0.083 OA 
HETATM   15  S   UNL     1     -10.771   7.268  67.196  1.00  0.00    -0.296 SA 
HETATM   16  C   UNL     1      -9.838   5.728  67.099  1.00  0.00    -0.146 C  
HETATM   17  C   UNL     1      -8.360   5.823  67.403  1.00  0.00    -0.104 C  
HETATM   18  CA  UNL     1      -7.838   6.851  68.135  1.00  0.00    -0.114 C  
HETATM   19  O   UNL     1      -6.014   7.120  69.664  1.00  0.00    -0.023 OA 
HETATM   20  C   UNL     1      -6.295   6.922  68.451  1.00  0.00    -0.035 C  
HETATM   21  OXT UNL     1      -5.553   6.600  67.476  1.00  0.00    -0.011 OA 
BRANCH  17  22
HETATM   22  C   UNL     1      -7.547   4.603  66.967  1.00  0.00    -0.086 C  
BRANCH  22  23
HETATM   23  N   UNL     1      -7.660   3.247  67.758  1.00  0.00    -0.064 N  
HETATM   24  C   UNL     1      -7.548   3.304  69.270  1.00  0.00    -0.048 C  
HETATM   25  C   UNL     1      -8.941   2.550  67.317  1.00  0.00    -0.156 C  
HETATM   26  C   UNL     1      -6.082   3.586  69.504  1.00  0.00    -0.024 C  
HETATM   27  C   UNL     1      -5.423   2.609  68.547  1.00  0.00    -0.017 C  
HETATM   28  C   UNL     1      -6.426   2.381  67.406  1.00  0.00    -0.032 C  
ENDBRANCH  22  23
ENDBRANCH  17  22
ENDBRANCH   9  10
ENDBRANCH   5   6
BRANCH   5  29
HETATM   29  C   UNL     1     -11.569  13.772  68.296  1.00  0.00    -0.338 A  
HETATM   30  S   UNL     1     -11.638  16.288  68.698  1.00  0.00    -0.089 SA 
HETATM   31  C   UNL     1     -11.263  14.969  67.672  1.00  0.00    -0.326 A  
HETATM   32  H2  UNL     1     -12.707  16.621  71.259  1.00  0.00     0.000 HD 
HETATM   33  H1  UNL     1     -13.008  14.967  71.779  1.00  0.00     0.000 HD 
HETATM   34  C   UNL     1     -12.198  15.191  69.891  1.00  0.00    -0.314 A  
HETATM   35  N   UNL     1     -12.676  15.620  71.069  1.00  0.00    -0.466 NA 
HETATM   36  N   UNL     1     -12.128  13.924  69.567  1.00  0.00    -0.338 NA 
ENDBRANCH   5  29
ENDBRANCH   3   5
ENDBRANCH   2   3
TORSDOF 7
ENDMDL
MODEL      152
REMARK 921   NORMALIZED FREE ENERGY PREDICTED BY IDOCK:   -3.08 KCAL/MOL
REMARK 922        TOTAL FREE ENERGY PREDICTED BY IDOCK:   -5.45 KCAL/MOL
REMARK 923 INTER-LIGAND FREE ENERGY PREDICTED BY IDOCK:   -6.38 KCAL/MOL
REMARK 924 INTRA-LIGAND FREE ENERGY PREDICTED BY IDOCK:    0.93 KCAL/MOL
REMARK 927      BINDING AFFINITY PREDICTED BY RF-SCORE:    0.00 PKD
ROOT
HETATM    1  C   UNL     1     -10.268  10.134  65.675  1.00  0.00    -0.218 C  
HETATM    2  O   UNL     1     -10.956  11.340  65.982  1.00  0.00    -0.257 OA 
ENDROOT
BRANCH   2   3
HETATM    3  N   UNL     1     -11.750  11.129  67.115  1.00  0.00    -0.447 NA 
HETATM    4  H   UNL     1     -12.650  10.650  67.096  1.00  0.00     0.000 HD 
BRANCH   3   5
HETATM    5  C   UNL     1     -11.209  11.614  68.201  1.00  0.00    -0.263 C  
BRANCH   5   6
HETATM    6  C   UNL     1     -10.366  10.787  69.197  1.00  0.00    -0.217 C  
HETATM    7  H   UNL     1     -12.035   9.640  69.686  1.00  0.00     0.000 HD 
HETATM    8  O   UNL     1      -9.171  10.997  69.362  1.00  0.00     0.001 OA 
HETATM    9  N   UNL     1     -11.072   9.858  69.943  1.00  0.00    -0.261 N  
BRANCH   9  10
HETATM   10  CA  UNL     1     -10.456   9.167  71.114  1.00  0.00    -0.315 C  
HETATM   11  N   UNL     1      -9.066   7.626  71.026  1.00  0.00    -0.147 N  
HETATM   12  C   UNL     1      -8.900   8.967  71.032  1.00  0.00    -0.230 C  
HETATM   13  C   UNL     1     -10.504   7.617  71.172  1.00  0.00    -0.208 C  
HETATM   14  O   UNL     1      -7.960   9.701  70.852  1.00  0.00    -0.307 OA 
HETATM   15  S   UNL     1     -11.154   6.714  69.746  1.00  0.00    -0.354 SA 
HETATM   16  C   UNL     1     -10.319   5.193  70.236  1.00  0.00    -0.261 C  
HETATM   17  C   UNL     1      -8.847   5.315  70.561  1.00  0.00    -0.150 C  
HETATM   18  CA  UNL     1      -8.283   6.506  70.916  1.00  0.00    -0.125 C  
HETATM   19  O   UNL     1      -6.492   7.202  72.346  1.00  0.00    -0.052 OA 
HETATM   20  C   UNL     1      -6.749   6.607  71.265  1.00  0.00    -0.058 C  
HETATM   21  OXT UNL     1      -6.000   5.927  70.500  1.00  0.00    -0.027 OA 
BRANCH  17  22
HETATM   22  C   UNL     1      -8.102   3.980  70.617  1.00  0.00    -0.058 C  
BRANCH  22  23
HETATM   23  N   UNL     1      -8.443   2.923  71.733  1.00  0.00    -0.064 N  
HETATM   24  C   UNL     1      -8.883   3.448  73.087  1.00  0.00    -0.081 C  
HETATM   25  C   UNL     1      -9.455   1.942  71.157  1.00  0.00    -0.136 C  
HETATM   26  C   UNL     1      -7.610   4.006  73.679  1.00  0.00    -0.076 C  
HETATM   27  C   UNL     1      -6.617   2.898  73.376  1.00  0.00    -0.022 C  
HETATM   28  C   UNL     1      -7.135   2.189  72.115  1.00  0.00    -0.030 C  
ENDBRANCH  22  23
ENDBRANCH  17  22
ENDBRANCH   9  10
ENDBRANCH   5   6
BRANCH   5  29
HETATM   29  C   UNL     1     -11.432  13.045  68.437  1.00  0.00    -0.310 A  
HETATM   30  S   UNL     1     -11.461  15.585  68.227  1.00  0.00    -0.328 SA 
HETATM   31  C   UNL     1     -11.042  14.057  67.576  1.00  0.00    -0.298 A  
HETATM   32  H2  UNL     1     -12.723  16.526  70.536  1.00  0.00     0.000 HD 
HETATM   33  H1  UNL     1     -13.112  15.045  71.404  1.00  0.00     0.000 HD 
HETATM   34  C   UNL     1     -12.146  14.808  69.593  1.00  0.00    -0.304 A  
HETATM   35  N   UNL     1     -12.705  15.507  70.591  1.00  0.00    -0.457 NA 
HETATM   36  N   UNL     1     -12.086  13.500  69.584  1.00  0.00    -0.321 NA 
ENDBRANCH   5  29
ENDBRANCH   3   5
ENDBRANCH   2   3
TORSDOF 7
ENDMDL
MODEL      153
REMARK 921   NORMALIZED FREE ENERGY PREDICTED BY IDOCK:   -2.99 KCAL/MOL
REMARK 922        TOTAL FREE ENERGY PREDICTED BY IDOCK:   -5.33 KCAL/MOL
REMARK 923 INTER-LIGAND FREE ENERGY PREDICTED BY IDOCK:   -4.94 KCAL/MOL
REMARK 924 INTRA-LIGAND FREE ENERGY PREDICTED BY IDOCK:   -0.39 KCAL/MOL
REMARK 927      BINDING AFFINITY PREDICTED BY RF-SCORE:    0.00 PKD
ROOT
HETATM    1  C   UNL     1      -5.703   2.179  70.112  1.00  0.00    -0.017 C  
HETATM    2  O   UNL     1      -6.956   2.363  70.760  1.00  0.00    -0.032 OA 
ENDROOT
BRANCH   2   3
HETATM    3  N   UNL     1      -7.296   3.719  70.707  1.00  0.00    -0.037 NA 
HETATM    4  H   UNL     1      -6.637   4.476  70.891  1.00  0.00     0.000 HD 
BRANCH   3   5
HETATM    5  C   UNL     1      -8.551   3.908  70.398  1.00  0.00    -0.072 C  
BRANCH   5   6
HETATM    6  C   UNL     1      -9.076   4.068  68.953  1.00  0.00    -0.133 C  
HETATM    7  H   UNL     1      -7.715   5.606  68.609  1.00  0.00     0.000 HD 
HETATM    8  O   UNL     1      -9.965   3.354  68.508  1.00  0.00     0.106 OA 
HETATM    9  N   UNL     1      -8.531   5.120  68.238  1.00  0.00    -0.096 N  
BRANCH   9  10
HETATM   10  CA  UNL     1      -9.111   5.559  66.934  1.00  0.00    -0.115 C  
HETATM   11  N   UNL     1      -9.026   7.481  66.151  1.00  0.00    -0.166 N  
HETATM   12  C   UNL     1      -8.165   6.445  66.045  1.00  0.00    -0.126 C  
HETATM   13  C   UNL     1     -10.044   6.800  66.917  1.00  0.00    -0.202 C  
HETATM   14  O   UNL     1      -7.047   6.319  65.612  1.00  0.00    -0.062 OA 
HETATM   15  S   UNL     1     -10.255   7.749  68.441  1.00  0.00    -0.199 SA 
HETATM   16  C   UNL     1     -10.814   9.208  67.541  1.00  0.00    -0.081 C  
HETATM   17  C   UNL     1      -9.949   9.649  66.382  1.00  0.00    -0.323 C  
HETATM   18  CA  UNL     1      -9.089   8.793  65.757  1.00  0.00    -0.212 C  
HETATM   19  O   UNL     1      -8.251   8.520  63.529  1.00  0.00    -0.168 OA 
HETATM   20  C   UNL     1      -8.207   9.271  64.540  1.00  0.00    -0.151 C  
HETATM   21  OXT UNL     1      -7.713  10.430  64.685  1.00  0.00    -0.140 OA 
BRANCH  17  22
HETATM   22  C   UNL     1     -10.242  11.064  65.880  1.00  0.00    -0.254 C  
BRANCH  22  23
HETATM   23  N   UNL     1     -10.276  12.275  66.886  1.00  0.00    -0.212 N  
HETATM   24  C   UNL     1      -9.254  13.380  66.690  1.00  0.00    -0.214 C  
HETATM   25  C   UNL     1     -11.697  12.823  66.912  1.00  0.00    -0.380 C  
HETATM   26  C   UNL     1      -7.959  12.746  67.139  1.00  0.00    -0.112 C  
HETATM   27  C   UNL     1      -8.378  12.068  68.431  1.00  0.00    -0.151 C  
HETATM   28  C   UNL     1      -9.874  11.750  68.285  1.00  0.00    -0.198 C  
ENDBRANCH  22  23
ENDBRANCH  17  22
ENDBRANCH   9  10
ENDBRANCH   5   6
BRANCH   5  29
HETATM   29  C   UNL     1      -9.485   3.948  71.529  1.00  0.00    -0.155 A  
HETATM   30  S   UNL     1     -10.987   4.724  73.436  1.00  0.00    -0.342 SA 
HETATM   31  C   UNL     1      -9.931   5.106  72.143  1.00  0.00    -0.187 A  
HETATM   32  H2  UNL     1     -12.025   2.397  74.583  1.00  0.00     0.000 HD 
HETATM   33  H1  UNL     1     -11.312   1.122  73.603  1.00  0.00     0.000 HD 
HETATM   34  C   UNL     1     -10.799   3.056  73.088  1.00  0.00    -0.137 A  
HETATM   35  N   UNL     1     -11.424   2.114  73.809  1.00  0.00    -0.201 NA 
HETATM   36  N   UNL     1     -10.015   2.778  72.076  1.00  0.00    -0.168 NA 
ENDBRANCH   5  29
ENDBRANCH   3   5
ENDBRANCH   2   3
TORSDOF 7
ENDMDL
MODEL      154
REMARK 921   NORMALIZED FREE ENERGY PREDICTED BY IDOCK:   -2.95 KCAL/MOL
REMARK 922        TOTAL FREE ENERGY PREDICTED BY IDOCK:   -5.27 KCAL/MOL
REMARK 923 INTER-LIGAND FREE ENERGY PREDICTED BY IDOCK:   -4.86 KCAL/MOL
REMARK 924 INTRA-LIGAND FREE ENERGY PREDICTED BY IDOCK:   -0.41 KCAL/MOL
REMARK 927      BINDING AFFINITY PREDICTED BY RF-SCORE:    0.00 PKD
ROOT
HETATM    1  C   UNL     1      -5.526  12.169  67.311  1.00  0.00    -0.124 C  
HETATM    2  O   UNL     1      -6.743  12.855  67.574  1.00  0.00    -0.142 OA 
ENDROOT
BRANCH   2   3
HETATM    3  N   UNL     1      -7.215  12.471  68.833  1.00  0.00    -0.217 NA 
HETATM    4  H   UNL     1      -6.862  12.851  69.711  1.00  0.00     0.000 HD 
BRANCH   3   5
HETATM    5  C   UNL     1      -8.158  11.569  68.760  1.00  0.00    -0.093 C  
BRANCH   5   6
HETATM    6  C   UNL     1      -8.097  10.189  69.454  1.00  0.00    -0.160 C  
HETATM    7  H   UNL     1      -8.956   9.290  67.783  1.00  0.00     0.000 HD 
HETATM    8  O   UNL     1      -7.626  10.052  70.575  1.00  0.00    -0.276 OA 
HETATM    9  N   UNL     1      -8.686   9.149  68.756  1.00  0.00    -0.131 N  
BRANCH   9  10
HETATM   10  CA  UNL     1      -8.934   7.823  69.396  1.00  0.00    -0.142 C  
HETATM   11  N   UNL     1      -8.498   5.970  68.565  1.00  0.00    -0.113 N  
HETATM   12  C   UNL     1      -7.741   6.804  69.312  1.00  0.00    -0.105 C  
HETATM   13  C   UNL     1      -9.715   6.747  68.595  1.00  0.00    -0.131 C  
HETATM   14  O   UNL     1      -6.575   6.838  69.618  1.00  0.00    -0.045 OA 
HETATM   15  S   UNL     1     -10.145   7.088  66.872  1.00  0.00    -0.221 SA 
HETATM   16  C   UNL     1     -10.355   5.335  66.502  1.00  0.00    -0.285 C  
HETATM   17  C   UNL     1      -9.228   4.423  66.929  1.00  0.00    -0.150 C  
HETATM   18  CA  UNL     1      -8.346   4.776  67.909  1.00  0.00    -0.103 C  
HETATM   19  O   UNL     1      -7.094   3.619  69.592  1.00  0.00    -0.041 OA 
HETATM   20  C   UNL     1      -7.187   3.801  68.349  1.00  0.00    -0.054 C  
HETATM   21  OXT UNL     1      -6.622   3.204  67.384  1.00  0.00    -0.036 OA 
BRANCH  17  22
HETATM   22  C   UNL     1      -9.268   3.032  66.292  1.00  0.00    -0.115 C  
BRANCH  22  23
HETATM   23  N   UNL     1      -9.180   2.869  64.729  1.00  0.00    -0.143 N  
HETATM   24  C   UNL     1      -8.718   1.529  64.187  1.00  0.00    -0.085 C  
HETATM   25  C   UNL     1     -10.521   3.281  64.137  1.00  0.00    -0.136 C  
HETATM   26  C   UNL     1      -7.241   1.511  64.504  1.00  0.00    -0.051 C  
HETATM   27  C   UNL     1      -6.815   2.901  64.067  1.00  0.00    -0.036 C  
HETATM   28  C   UNL     1      -8.054   3.797  64.211  1.00  0.00    -0.089 C  
ENDBRANCH  22  23
ENDBRANCH  17  22
ENDBRANCH   9  10
ENDBRANCH   5   6
BRANCH   5  29
HETATM   29  C   UNL     1      -9.335  11.944  67.969  1.00  0.00    -0.193 A  
HETATM   30  S   UNL     1     -11.227  11.976  66.262  1.00  0.00    -0.349 SA 
HETATM   31  C   UNL     1      -9.879  11.178  66.952  1.00  0.00    -0.194 A  
HETATM   32  H2  UNL     1     -12.587  14.383  66.678  1.00  0.00     0.000 HD 
HETATM   33  H1  UNL     1     -11.700  15.111  68.012  1.00  0.00     0.000 HD 
HETATM   34  C   UNL     1     -11.015  13.272  67.365  1.00  0.00    -0.271 A  
HETATM   35  N   UNL     1     -11.826  14.340  67.356  1.00  0.00    -0.399 NA 
HETATM   36  N   UNL     1     -10.020  13.138  68.205  1.00  0.00    -0.230 NA 
ENDBRANCH   5  29
ENDBRANCH   3   5
ENDBRANCH   2   3
TORSDOF 7
ENDMDL
MODEL      155
REMARK 921   NORMALIZED FREE ENERGY PREDICTED BY IDOCK:   -2.95 KCAL/MOL
REMARK 922        TOTAL FREE ENERGY PREDICTED BY IDOCK:   -5.27 KCAL/MOL
REMARK 923 INTER-LIGAND FREE ENERGY PREDICTED BY IDOCK:   -6.26 KCAL/MOL
REMARK 924 INTRA-LIGAND FREE ENERGY PREDICTED BY IDOCK:    0.99 KCAL/MOL
REMARK 927      BINDING AFFINITY PREDICTED BY RF-SCORE:    0.00 PKD
ROOT
HETATM    1  C   UNL     1      -7.332  13.428  69.061  1.00  0.00     0.023 C  
HETATM    2  O   UNL     1      -7.092  13.822  67.715  1.00  0.00    -0.134 OA 
ENDROOT
BRANCH   2   3
HETATM    3  N   UNL     1      -7.041  15.219  67.658  1.00  0.00    -0.165 NA 
HETATM    4  H   UNL     1      -6.320  15.779  68.112  1.00  0.00     0.000 HD 
BRANCH   3   5
HETATM    5  C   UNL     1      -8.020  15.726  66.957  1.00  0.00    -0.237 C  
BRANCH   5   6
HETATM    6  C   UNL     1      -9.317  14.966  66.599  1.00  0.00    -0.268 C  
HETATM    7  H   UNL     1      -9.819  14.834  68.616  1.00  0.00     0.000 HD 
HETATM    8  O   UNL     1      -9.625  14.727  65.439  1.00  0.00    -0.241 OA 
HETATM    9  N   UNL     1     -10.054  14.508  67.678  1.00  0.00    -0.228 N  
BRANCH   9  10
HETATM   10  CA  UNL     1     -11.183  13.548  67.501  1.00  0.00    -0.283 C  
HETATM   11  N   UNL     1     -11.308  11.649  68.334  1.00  0.00    -0.252 N  
HETATM   12  C   UNL     1     -11.685  12.854  68.818  1.00  0.00    -0.323 C  
HETATM   13  C   UNL     1     -10.862  12.102  67.036  1.00  0.00    -0.247 C  
HETATM   14  O   UNL     1     -12.066  13.249  69.892  1.00  0.00    -0.323 OA 
HETATM   15  S   UNL     1      -9.131  11.601  66.889  1.00  0.00    -0.193 SA 
HETATM   16  C   UNL     1      -9.553   9.851  66.993  1.00  0.00    -0.175 C  
HETATM   17  C   UNL     1     -10.456   9.449  68.137  1.00  0.00    -0.267 C  
HETATM   18  CA  UNL     1     -11.267  10.349  68.766  1.00  0.00    -0.241 C  
HETATM   19  O   UNL     1     -13.410  10.278  69.834  1.00  0.00     0.104 OA 
HETATM   20  C   UNL     1     -12.212   9.904  69.948  1.00  0.00     0.199 C  
HETATM   21  OXT UNL     1     -11.677   9.089  70.758  1.00  0.00    -0.281 OA 
BRANCH  17  22
HETATM   22  C   UNL     1     -10.499   7.944  68.407  1.00  0.00    -0.166 C  
BRANCH  22  23
HETATM   23  N   UNL     1      -9.174   7.152  68.717  1.00  0.00    -0.137 N  
HETATM   24  C   UNL     1      -9.192   5.647  68.519  1.00  0.00    -0.121 C  
HETATM   25  C   UNL     1      -8.042   7.806  67.936  1.00  0.00    -0.126 C  
HETATM   26  C   UNL     1     -10.033   5.151  69.672  1.00  0.00    -0.313 C  
HETATM   27  C   UNL     1      -9.460   5.942  70.835  1.00  0.00    -0.191 C  
HETATM   28  C   UNL     1      -8.904   7.244  70.238  1.00  0.00    -0.147 C  
ENDBRANCH  22  23
ENDBRANCH  17  22
ENDBRANCH   9  10
ENDBRANCH   5   6
BRANCH   5  29
HETATM   29  C   UNL     1      -7.835  17.114  66.519  1.00  0.00    -0.290 A  
HETATM   30  S   UNL     1      -8.150  19.605  66.083  1.00  0.00    -0.316 SA 
HETATM   31  C   UNL     1      -8.711  18.151  66.792  1.00  0.00    -0.263 A  
HETATM   32  H2  UNL     1      -5.947  20.396  64.557  1.00  0.00     0.000 HD 
HETATM   33  H1  UNL     1      -5.025  18.906  64.393  1.00  0.00     0.000 HD 
HETATM   34  C   UNL     1      -6.778  18.773  65.478  1.00  0.00    -0.250 A  
HETATM   35  N   UNL     1      -5.841  19.400  64.753  1.00  0.00    -0.235 NA 
HETATM   36  N   UNL     1      -6.716  17.500  65.778  1.00  0.00    -0.172 NA 
ENDBRANCH   5  29
ENDBRANCH   3   5
ENDBRANCH   2   3
TORSDOF 7
ENDMDL
MODEL      156
REMARK 921   NORMALIZED FREE ENERGY PREDICTED BY IDOCK:   -2.89 KCAL/MOL
REMARK 922        TOTAL FREE ENERGY PREDICTED BY IDOCK:   -5.19 KCAL/MOL
REMARK 923 INTER-LIGAND FREE ENERGY PREDICTED BY IDOCK:   -6.20 KCAL/MOL
REMARK 924 INTRA-LIGAND FREE ENERGY PREDICTED BY IDOCK:    1.01 KCAL/MOL
REMARK 927      BINDING AFFINITY PREDICTED BY RF-SCORE:    0.00 PKD
ROOT
HETATM    1  C   UNL     1     -10.867   6.023  67.576  1.00  0.00    -0.302 C  
HETATM    2  O   UNL     1     -10.636   5.579  68.908  1.00  0.00    -0.228 OA 
ENDROOT
BRANCH   2   3
HETATM    3  N   UNL     1      -9.256   5.469  69.112  1.00  0.00    -0.114 NA 
HETATM    4  H   UNL     1      -8.717   4.629  68.901  1.00  0.00     0.000 HD 
BRANCH   3   5
HETATM    5  C   UNL     1      -8.735   6.561  69.603  1.00  0.00    -0.139 C  
BRANCH   5   6
HETATM    6  C   UNL     1      -8.428   7.828  68.771  1.00  0.00    -0.129 C  
HETATM    7  H   UNL     1      -7.679   6.653  67.223  1.00  0.00     0.000 HD 
HETATM    8  O   UNL     1      -8.688   8.950  69.185  1.00  0.00    -0.129 OA 
HETATM    9  N   UNL     1      -7.766   7.606  67.575  1.00  0.00    -0.115 N  
BRANCH   9  10
HETATM   10  CA  UNL     1      -7.178   8.730  66.789  1.00  0.00    -0.082 C  
HETATM   11  N   UNL     1      -7.729  10.728  66.924  1.00  0.00    -0.124 N  
HETATM   12  C   UNL     1      -6.818  10.013  67.622  1.00  0.00    -0.084 C  
HETATM   13  C   UNL     1      -8.135   9.678  66.019  1.00  0.00    -0.112 C  
HETATM   14  O   UNL     1      -6.152  10.227  68.603  1.00  0.00    -0.047 OA 
HETATM   15  S   UNL     1      -9.919   9.478  66.239  1.00  0.00    -0.259 SA 
HETATM   16  C   UNL     1     -10.251  11.158  65.672  1.00  0.00    -0.256 C  
HETATM   17  C   UNL     1      -9.436  12.254  66.320  1.00  0.00    -0.234 C  
HETATM   18  CA  UNL     1      -8.240  12.000  66.928  1.00  0.00    -0.146 C  
HETATM   19  O   UNL     1      -6.186  13.192  67.246  1.00  0.00    -0.298 OA 
HETATM   20  C   UNL     1      -7.400  13.162  67.584  1.00  0.00    -0.154 C  
HETATM   21  OXT UNL     1      -8.097  14.005  68.224  1.00  0.00    -0.132 OA 
BRANCH  17  22
HETATM   22  C   UNL     1      -9.981  13.664  66.089  1.00  0.00    -0.306 C  
BRANCH  22  23
HETATM   23  N   UNL     1     -11.437  14.041  66.554  1.00  0.00    -0.342 N  
HETATM   24  C   UNL     1     -11.615  15.332  67.331  1.00  0.00    -0.188 C  
HETATM   25  C   UNL     1     -12.347  13.991  65.333  1.00  0.00    -0.478 C  
HETATM   26  C   UNL     1     -11.018  15.016  68.682  1.00  0.00    -0.261 C  
HETATM   27  C   UNL     1     -11.617  13.651  68.972  1.00  0.00    -0.356 C  
HETATM   28  C   UNL     1     -11.890  13.002  67.607  1.00  0.00    -0.351 C  
ENDBRANCH  22  23
ENDBRANCH  17  22
ENDBRANCH   9  10
ENDBRANCH   5   6
BRANCH   5  29
HETATM   29  C   UNL     1      -8.456   6.541  71.043  1.00  0.00    -0.127 A  
HETATM   30  S   UNL     1      -7.326   6.292  73.314  1.00  0.00    -0.087 SA 
HETATM   31  C   UNL     1      -7.230   6.227  71.605  1.00  0.00    -0.087 A  
HETATM   32  H2  UNL     1      -9.292   6.877  75.211  1.00  0.00     0.000 HD 
HETATM   33  H1  UNL     1     -10.698   7.248  74.221  1.00  0.00     0.000 HD 
HETATM   34  C   UNL     1      -8.974   6.749  73.197  1.00  0.00    -0.127 A  
HETATM   35  N   UNL     1      -9.717   6.977  74.290  1.00  0.00    -0.268 NA 
HETATM   36  N   UNL     1      -9.442   6.860  71.979  1.00  0.00    -0.141 NA 
ENDBRANCH   5  29
ENDBRANCH   3   5
ENDBRANCH   2   3
TORSDOF 7
ENDMDL
MODEL      157
REMARK 921   NORMALIZED FREE ENERGY PREDICTED BY IDOCK:   -2.88 KCAL/MOL
REMARK 922        TOTAL FREE ENERGY PREDICTED BY IDOCK:   -5.17 KCAL/MOL
REMARK 923 INTER-LIGAND FREE ENERGY PREDICTED BY IDOCK:   -6.03 KCAL/MOL
REMARK 924 INTRA-LIGAND FREE ENERGY PREDICTED BY IDOCK:    0.86 KCAL/MOL
REMARK 927      BINDING AFFINITY PREDICTED BY RF-SCORE:    0.00 PKD
ROOT
HETATM    1  C   UNL     1      -9.781   5.076  71.130  1.00  0.00    -0.178 C  
HETATM    2  O   UNL     1      -9.535   6.187  70.275  1.00  0.00    -0.158 OA 
ENDROOT
BRANCH   2   3
HETATM    3  N   UNL     1      -8.333   5.972  69.592  1.00  0.00    -0.117 NA 
HETATM    4  H   UNL     1      -7.489   5.607  70.032  1.00  0.00     0.000 HD 
BRANCH   3   5
HETATM    5  C   UNL     1      -8.414   6.291  68.328  1.00  0.00    -0.114 C  
BRANCH   5   6
HETATM    6  C   UNL     1      -8.181   7.715  67.774  1.00  0.00    -0.119 C  
HETATM    7  H   UNL     1      -7.543   6.925  65.956  1.00  0.00     0.000 HD 
HETATM    8  O   UNL     1      -8.418   8.713  68.442  1.00  0.00    -0.128 OA 
HETATM    9  N   UNL     1      -7.611   7.776  66.514  1.00  0.00    -0.094 N  
BRANCH   9  10
HETATM   10  CA  UNL     1      -7.094   9.059  65.953  1.00  0.00    -0.089 C  
HETATM   11  N   UNL     1      -7.703  10.964  66.510  1.00  0.00    -0.144 N  
HETATM   12  C   UNL     1      -6.741  10.161  67.015  1.00  0.00    -0.078 C  
HETATM   13  C   UNL     1      -8.113  10.104  65.425  1.00  0.00    -0.149 C  
HETATM   14  O   UNL     1      -6.040  10.199  67.996  1.00  0.00    -0.051 OA 
HETATM   15  S   UNL     1      -9.879   9.791  65.663  1.00  0.00    -0.273 SA 
HETATM   16  C   UNL     1     -10.288  11.536  65.461  1.00  0.00    -0.273 C  
HETATM   17  C   UNL     1      -9.482  12.510  66.289  1.00  0.00    -0.210 C  
HETATM   18  CA  UNL     1      -8.254  12.188  66.791  1.00  0.00    -0.085 C  
HETATM   19  O   UNL     1      -6.229  13.373  67.272  1.00  0.00    -0.313 OA 
HETATM   20  C   UNL     1      -7.425  13.226  67.640  1.00  0.00    -0.171 C  
HETATM   21  OXT UNL     1      -8.122  13.894  68.462  1.00  0.00    -0.140 OA 
BRANCH  17  22
HETATM   22  C   UNL     1     -10.083  13.915  66.370  1.00  0.00    -0.295 C  
BRANCH  22  23
HETATM   23  N   UNL     1     -11.545  14.127  66.914  1.00  0.00    -0.371 N  
HETATM   24  C   UNL     1     -11.768  15.248  67.912  1.00  0.00    -0.217 C  
HETATM   25  C   UNL     1     -12.479  14.248  65.717  1.00  0.00    -0.403 C  
HETATM   26  C   UNL     1     -11.125  14.728  69.176  1.00  0.00    -0.278 C  
HETATM   27  C   UNL     1     -11.650  13.304  69.226  1.00  0.00    -0.370 C  
HETATM   28  C   UNL     1     -11.922  12.894  67.771  1.00  0.00    -0.283 C  
ENDBRANCH  22  23
ENDBRANCH  17  22
ENDBRANCH   9  10
ENDBRANCH   5   6
BRANCH   5  29
HETATM   29  C   UNL     1      -8.733   5.190  67.413  1.00  0.00    -0.103 A  
HETATM   30  S   UNL     1      -8.766   2.950  66.197  1.00  0.00    -0.139 SA 
HETATM   31  C   UNL     1      -8.136   3.940  67.444  1.00  0.00    -0.091 A  
HETATM   32  H2  UNL     1     -10.668   3.214  64.166  1.00  0.00     0.000 HD 
HETATM   33  H1  UNL     1     -11.253   4.859  64.386  1.00  0.00     0.000 HD 
HETATM   34  C   UNL     1      -9.797   4.230  65.710  1.00  0.00    -0.223 A  
HETATM   35  N   UNL     1     -10.640   4.097  64.676  1.00  0.00    -0.216 NA 
HETATM   36  N   UNL     1      -9.703   5.328  66.419  1.00  0.00    -0.158 NA 
ENDBRANCH   5  29
ENDBRANCH   3   5
ENDBRANCH   2   3
TORSDOF 7
ENDMDL
MODEL      158
REMARK 921   NORMALIZED FREE ENERGY PREDICTED BY IDOCK:   -2.74 KCAL/MOL
REMARK 922        TOTAL FREE ENERGY PREDICTED BY IDOCK:   -4.98 KCAL/MOL
REMARK 923 INTER-LIGAND FREE ENERGY PREDICTED BY IDOCK:   -7.11 KCAL/MOL
REMARK 924 INTRA-LIGAND FREE ENERGY PREDICTED BY IDOCK:    2.13 KCAL/MOL
REMARK 927      BINDING AFFINITY PREDICTED BY RF-SCORE:    0.00 PKD
ROOT
HETATM    1  C   UNL     1      -8.262  15.367  69.119  1.00  0.00    -0.243 C  
HETATM    2  O   UNL     1      -7.561  15.636  67.911  1.00  0.00    -0.119 OA 
ENDROOT
BRANCH   2   3
HETATM    3  N   UNL     1      -7.725  14.550  67.044  1.00  0.00    -0.328 NA 
HETATM    4  H   UNL     1      -6.952  14.074  66.579  1.00  0.00     0.000 HD 
BRANCH   3   5
HETATM    5  C   UNL     1      -8.979  14.214  66.896  1.00  0.00    -0.230 C  
BRANCH   5   6
HETATM    6  C   UNL     1      -9.609  12.927  67.475  1.00  0.00    -0.200 C  
HETATM    7  H   UNL     1      -9.798  12.135  65.558  1.00  0.00     0.000 HD 
HETATM    8  O   UNL     1      -9.763  12.770  68.679  1.00  0.00    -0.162 OA 
HETATM    9  N   UNL     1     -10.056  12.012  66.537  1.00  0.00    -0.198 N  
BRANCH   9  10
HETATM   10  CA  UNL     1     -10.908  10.849  66.926  1.00  0.00    -0.249 C  
HETATM   11  N   UNL     1     -10.826   9.832  68.735  1.00  0.00    -0.212 N  
HETATM   12  C   UNL     1     -11.529  10.927  68.368  1.00  0.00    -0.304 C  
HETATM   13  C   UNL     1     -10.215   9.565  67.454  1.00  0.00    -0.227 C  
HETATM   14  O   UNL     1     -12.199  11.736  68.959  1.00  0.00    -0.263 OA 
HETATM   15  S   UNL     1      -8.428   9.591  67.726  1.00  0.00    -0.118 SA 
HETATM   16  C   UNL     1      -8.506   8.185  68.853  1.00  0.00    -0.130 C  
HETATM   17  C   UNL     1      -9.532   8.273  69.960  1.00  0.00    -0.167 C  
HETATM   18  CA  UNL     1     -10.620   9.092  69.871  1.00  0.00    -0.230 C  
HETATM   19  O   UNL     1     -12.883   9.036  70.656  1.00  0.00     0.087 OA 
HETATM   20  C   UNL     1     -11.686   9.157  71.032  1.00  0.00    -0.301 C  
HETATM   21  OXT UNL     1     -11.182   9.148  72.195  1.00  0.00    -0.326 OA 
BRANCH  17  22
HETATM   22  C   UNL     1      -9.331   7.259  71.087  1.00  0.00    -0.156 C  
BRANCH  22  23
HETATM   23  N   UNL     1     -10.195   5.944  71.140  1.00  0.00    -0.204 N  
HETATM   24  C   UNL     1     -11.253   5.842  72.224  1.00  0.00    -0.278 C  
HETATM   25  C   UNL     1     -10.787   5.715  69.756  1.00  0.00    -0.300 C  
HETATM   26  C   UNL     1     -10.446   5.638  73.485  1.00  0.00    -0.280 C  
HETATM   27  C   UNL     1      -9.444   4.586  73.043  1.00  0.00    -0.149 C  
HETATM   28  C   UNL     1      -9.263   4.772  71.529  1.00  0.00    -0.142 C  
ENDBRANCH  22  23
ENDBRANCH  17  22
ENDBRANCH   9  10
ENDBRANCH   5   6
BRANCH   5  29
HETATM   29  C   UNL     1      -9.805  15.159  66.137  1.00  0.00    -0.300 A  
HETATM   30  S   UNL     1     -11.429  16.202  64.471  1.00  0.00    -0.016 SA 
HETATM   31  C   UNL     1     -10.674  14.807  65.118  1.00  0.00    -0.415 A  
HETATM   32  H2  UNL     1     -11.357  18.953  64.957  1.00  0.00     0.000 HD 
HETATM   33  H1  UNL     1     -10.209  19.089  66.284  1.00  0.00     0.000 HD 
HETATM   34  C   UNL     1     -10.571  17.177  65.591  1.00  0.00    -0.179 A  
HETATM   35  N   UNL     1     -10.719  18.509  65.618  1.00  0.00    -0.498 NA 
HETATM   36  N   UNL     1      -9.778  16.529  66.407  1.00  0.00    -0.268 NA 
ENDBRANCH   5  29
ENDBRANCH   3   5
ENDBRANCH   2   3
TORSDOF 7
ENDMDL
MODEL      159
REMARK 921   NORMALIZED FREE ENERGY PREDICTED BY IDOCK:   -2.66 KCAL/MOL
REMARK 922        TOTAL FREE ENERGY PREDICTED BY IDOCK:   -4.86 KCAL/MOL
REMARK 923 INTER-LIGAND FREE ENERGY PREDICTED BY IDOCK:   -6.30 KCAL/MOL
REMARK 924 INTRA-LIGAND FREE ENERGY PREDICTED BY IDOCK:    1.44 KCAL/MOL
REMARK 927      BINDING AFFINITY PREDICTED BY RF-SCORE:    0.00 PKD
ROOT
HETATM    1  C   UNL     1      -8.675  14.364  68.230  1.00  0.00    -0.180 C  
HETATM    2  O   UNL     1      -8.344  13.981  66.901  1.00  0.00    -0.147 OA 
ENDROOT
BRANCH   2   3
HETATM    3  N   UNL     1      -7.996  12.625  66.897  1.00  0.00    -0.387 NA 
HETATM    4  H   UNL     1      -7.034  12.287  66.924  1.00  0.00     0.000 HD 
BRANCH   3   5
HETATM    5  C   UNL     1      -9.040  11.842  66.853  1.00  0.00    -0.192 C  
BRANCH   5   6
HETATM    6  C   UNL     1      -9.351  10.748  67.900  1.00  0.00    -0.150 C  
HETATM    7  H   UNL     1     -10.259   9.578  66.436  1.00  0.00     0.000 HD 
HETATM    8  O   UNL     1      -9.013  10.862  69.071  1.00  0.00    -0.158 OA 
HETATM    9  N   UNL     1     -10.105   9.683  67.439  1.00  0.00    -0.190 N  
BRANCH   9  10
HETATM   10  CA  UNL     1     -10.700   8.684  68.376  1.00  0.00    -0.046 C  
HETATM   11  N   UNL     1      -9.926   8.139  70.224  1.00  0.00    -0.188 N  
HETATM   12  C   UNL     1     -10.771   9.136  69.879  1.00  0.00    -0.231 C  
HETATM   13  C   UNL     1      -9.796   7.543  68.915  1.00  0.00    -0.159 C  
HETATM   14  O   UNL     1     -11.230  10.090  70.456  1.00  0.00    -0.287 OA 
HETATM   15  S   UNL     1      -8.033   7.568  68.515  1.00  0.00    -0.125 SA 
HETATM   16  C   UNL     1      -7.629   6.486  69.900  1.00  0.00    -0.100 C  
HETATM   17  C   UNL     1      -8.198   6.880  71.244  1.00  0.00    -0.114 C  
HETATM   18  CA  UNL     1      -9.290   7.693  71.354  1.00  0.00    -0.140 C  
HETATM   19  O   UNL     1     -11.119   7.916  72.885  1.00  0.00    -0.384 OA 
HETATM   20  C   UNL     1      -9.875   8.080  72.767  1.00  0.00    -0.282 C  
HETATM   21  OXT UNL     1      -8.991   8.338  73.638  1.00  0.00    -0.239 OA 
BRANCH  17  22
HETATM   22  C   UNL     1      -7.555   6.167  72.434  1.00  0.00    -0.099 C  
BRANCH  22  23
HETATM   23  N   UNL     1      -6.007   6.284  72.692  1.00  0.00    -0.038 N  
HETATM   24  C   UNL     1      -5.556   6.952  73.978  1.00  0.00    -0.054 C  
HETATM   25  C   UNL     1      -5.399   4.896  72.538  1.00  0.00    -0.008 C  
HETATM   26  C   UNL     1      -5.861   8.412  73.742  1.00  0.00    -0.107 C  
HETATM   27  C   UNL     1      -5.325   8.617  72.337  1.00  0.00    -0.050 C  
HETATM   28  C   UNL     1      -5.416   7.252  71.638  1.00  0.00    -0.036 C  
ENDBRANCH  22  23
ENDBRANCH  17  22
ENDBRANCH   9  10
ENDBRANCH   5   6
BRANCH   5  29
HETATM   29  C   UNL     1      -9.954  12.063  65.727  1.00  0.00    -0.241 A  
HETATM   30  S   UNL     1     -11.177  11.892  63.497  1.00  0.00    -0.398 SA 
HETATM   31  C   UNL     1      -9.991  11.292  64.577  1.00  0.00    -0.284 A  
HETATM   32  H2  UNL     1     -13.027  13.986  63.480  1.00  0.00     0.000 HD 
HETATM   33  H1  UNL     1     -12.765  14.756  65.041  1.00  0.00     0.000 HD 
HETATM   34  C   UNL     1     -11.575  13.119  64.626  1.00  0.00    -0.345 A  
HETATM   35  N   UNL     1     -12.528  14.026  64.369  1.00  0.00    -0.669 NA 
HETATM   36  N   UNL     1     -10.891  13.098  65.743  1.00  0.00    -0.272 NA 
ENDBRANCH   5  29
ENDBRANCH   3   5
ENDBRANCH   2   3
TORSDOF 7
ENDMDL
MODEL      160
REMARK 921   NORMALIZED FREE ENERGY PREDICTED BY IDOCK:   -2.59 KCAL/MOL
REMARK 922        TOTAL FREE ENERGY PREDICTED BY IDOCK:   -4.77 KCAL/MOL
REMARK 923 INTER-LIGAND FREE ENERGY PREDICTED BY IDOCK:   -5.95 KCAL/MOL
REMARK 924 INTRA-LIGAND FREE ENERGY PREDICTED BY IDOCK:    1.18 KCAL/MOL
REMARK 927      BINDING AFFINITY PREDICTED BY RF-SCORE:    0.00 PKD
ROOT
HETATM    1  C   UNL     1      -8.816  14.238  68.239  1.00  0.00    -0.185 C  
HETATM    2  O   UNL     1      -8.858  14.043  66.831  1.00  0.00    -0.226 OA 
ENDROOT
BRANCH   2   3
HETATM    3  N   UNL     1      -8.351  12.772  66.538  1.00  0.00    -0.405 NA 
HETATM    4  H   UNL     1      -7.368  12.587  66.338  1.00  0.00     0.000 HD 
BRANCH   3   5
HETATM    5  C   UNL     1      -9.276  11.850  66.547  1.00  0.00    -0.214 C  
BRANCH   5   6
HETATM    6  C   UNL     1      -9.200  10.550  67.380  1.00  0.00    -0.142 C  
HETATM    7  H   UNL     1     -11.168  10.815  68.008  1.00  0.00     0.000 HD 
HETATM    8  O   UNL     1      -8.191   9.858  67.404  1.00  0.00    -0.117 OA 
HETATM    9  N   UNL     1     -10.315  10.276  68.153  1.00  0.00    -0.167 N  
BRANCH   9  10
HETATM   10  CA  UNL     1     -10.297   9.208  69.196  1.00  0.00    -0.212 C  
HETATM   11  N   UNL     1      -9.165   7.468  69.137  1.00  0.00    -0.145 N  
HETATM   12  C   UNL     1      -8.870   8.699  69.610  1.00  0.00    -0.137 C  
HETATM   13  C   UNL     1     -10.532   7.738  68.757  1.00  0.00    -0.181 C  
HETATM   14  O   UNL     1      -7.862   9.231  70.004  1.00  0.00    -0.087 OA 
HETATM   15  S   UNL     1     -10.653   7.367  66.991  1.00  0.00    -0.291 SA 
HETATM   16  C   UNL     1     -10.254   5.628  67.255  1.00  0.00    -0.206 C  
HETATM   17  C   UNL     1      -9.031   5.345  68.097  1.00  0.00    -0.111 C  
HETATM   18  CA  UNL     1      -8.529   6.264  68.973  1.00  0.00    -0.120 C  
HETATM   19  O   UNL     1      -7.393   6.189  71.081  1.00  0.00    -0.080 OA 
HETATM   20  C   UNL     1      -7.261   5.941  69.853  1.00  0.00    -0.073 C  
HETATM   21  OXT UNL     1      -6.348   5.318  69.232  1.00  0.00    -0.031 OA 
BRANCH  17  22
HETATM   22  C   UNL     1      -8.520   3.906  68.002  1.00  0.00    -0.094 C  
BRANCH  22  23
HETATM   23  N   UNL     1      -8.049   3.318  66.619  1.00  0.00    -0.080 N  
HETATM   24  C   UNL     1      -6.633   2.779  66.530  1.00  0.00    -0.036 C  
HETATM   25  C   UNL     1      -9.073   2.281  66.177  1.00  0.00    -0.059 C  
HETATM   26  C   UNL     1      -5.780   4.025  66.553  1.00  0.00    -0.022 C  
HETATM   27  C   UNL     1      -6.511   4.918  65.567  1.00  0.00    -0.036 C  
HETATM   28  C   UNL     1      -7.983   4.480  65.600  1.00  0.00    -0.095 C  
ENDBRANCH  22  23
ENDBRANCH  17  22
ENDBRANCH   9  10
ENDBRANCH   5   6
BRANCH   5  29
HETATM   29  C   UNL     1     -10.450  12.120  65.709  1.00  0.00    -0.253 A  
HETATM   30  S   UNL     1     -12.123  12.182  63.787  1.00  0.00    -0.535 SA 
HETATM   31  C   UNL     1     -10.645  11.610  64.437  1.00  0.00    -0.323 A  
HETATM   32  H2  UNL     1     -14.205  13.838  64.643  1.00  0.00     0.000 HD 
HETATM   33  H1  UNL     1     -13.697  14.305  66.262  1.00  0.00     0.000 HD 
HETATM   34  C   UNL     1     -12.417  13.048  65.237  1.00  0.00    -0.499 A  
HETATM   35  N   UNL     1     -13.522  13.789  65.400  1.00  0.00    -0.461 NA 
HETATM   36  N   UNL     1     -11.495  12.929  66.160  1.00  0.00    -0.330 NA 
ENDBRANCH   5  29
ENDBRANCH   3   5
ENDBRANCH   2   3
TORSDOF 7
ENDMDL
MODEL      161
REMARK 921   NORMALIZED FREE ENERGY PREDICTED BY IDOCK:   -2.50 KCAL/MOL
REMARK 922        TOTAL FREE ENERGY PREDICTED BY IDOCK:   -4.64 KCAL/MOL
REMARK 923 INTER-LIGAND FREE ENERGY PREDICTED BY IDOCK:   -5.43 KCAL/MOL
REMARK 924 INTRA-LIGAND FREE ENERGY PREDICTED BY IDOCK:    0.79 KCAL/MOL
REMARK 927      BINDING AFFINITY PREDICTED BY RF-SCORE:    0.00 PKD
ROOT
HETATM    1  C   UNL     1      -5.471  11.140  62.396  1.00  0.00    -0.110 C  
HETATM    2  O   UNL     1      -5.699  10.715  63.733  1.00  0.00    -0.130 OA 
ENDROOT
BRANCH   2   3
HETATM    3  N   UNL     1      -7.052  10.389  63.878  1.00  0.00    -0.320 NA 
HETATM    4  H   UNL     1      -7.806  10.869  63.387  1.00  0.00     0.000 HD 
BRANCH   3   5
HETATM    5  C   UNL     1      -7.242   9.402  64.712  1.00  0.00    -0.106 C  
BRANCH   5   6
HETATM    6  C   UNL     1      -7.501   9.580  66.225  1.00  0.00    -0.097 C  
HETATM    7  H   UNL     1      -7.734  11.633  65.963  1.00  0.00     0.000 HD 
HETATM    8  O   UNL     1      -7.512   8.627  66.994  1.00  0.00    -0.083 OA 
HETATM    9  N   UNL     1      -7.633  10.890  66.654  1.00  0.00    -0.133 N  
BRANCH   9  10
HETATM   10  CA  UNL     1      -7.632  11.239  68.105  1.00  0.00    -0.105 C  
HETATM   11  N   UNL     1      -8.187   9.980  69.661  1.00  0.00    -0.165 N  
HETATM   12  C   UNL     1      -6.994  10.161  69.053  1.00  0.00    -0.058 C  
HETATM   13  C   UNL     1      -8.922  10.987  68.931  1.00  0.00    -0.115 C  
HETATM   14  O   UNL     1      -5.932   9.590  69.094  1.00  0.00    -0.038 OA 
HETATM   15  S   UNL     1     -10.307  10.135  68.140  1.00  0.00    -0.199 SA 
HETATM   16  C   UNL     1     -11.017   9.661  69.729  1.00  0.00    -0.240 C  
HETATM   17  C   UNL     1     -10.073   9.009  70.714  1.00  0.00    -0.303 C  
HETATM   18  CA  UNL     1      -8.720   9.172  70.632  1.00  0.00    -0.229 C  
HETATM   19  O   UNL     1      -6.903   9.269  72.190  1.00  0.00    -0.308 OA 
HETATM   20  C   UNL     1      -7.755   8.494  71.679  1.00  0.00    -0.117 C  
HETATM   21  OXT UNL     1      -8.081   7.309  71.989  1.00  0.00    -0.094 OA 
BRANCH  17  22
HETATM   22  C   UNL     1     -10.768   8.305  71.880  1.00  0.00    -0.283 C  
BRANCH  22  23
HETATM   23  N   UNL     1     -11.748   7.102  71.615  1.00  0.00    -0.276 N  
HETATM   24  C   UNL     1     -11.606   5.873  72.493  1.00  0.00    -0.277 C  
HETATM   25  C   UNL     1     -13.172   7.643  71.634  1.00  0.00    -0.352 C  
HETATM   26  C   UNL     1     -10.325   5.238  72.005  1.00  0.00    -0.273 C  
HETATM   27  C   UNL     1     -10.502   5.304  70.499  1.00  0.00    -0.312 C  
HETATM   28  C   UNL     1     -11.415   6.508  70.225  1.00  0.00    -0.411 C  
ENDBRANCH  22  23
ENDBRANCH  17  22
ENDBRANCH   9  10
ENDBRANCH   5   6
BRANCH   5  29
HETATM   29  C   UNL     1      -7.213   8.058  64.124  1.00  0.00    -0.086 A  
HETATM   30  S   UNL     1      -7.779   5.949  62.809  1.00  0.00    -0.092 SA 
HETATM   31  C   UNL     1      -8.158   7.562  63.242  1.00  0.00    -0.031 A  
HETATM   32  H2  UNL     1      -5.764   4.110  63.415  1.00  0.00     0.000 HD 
HETATM   33  H1  UNL     1      -4.726   5.011  64.514  1.00  0.00     0.000 HD 
HETATM   34  C   UNL     1      -6.382   6.019  63.801  1.00  0.00    -0.029 A  
HETATM   35  N   UNL     1      -5.556   4.970  63.923  1.00  0.00    -0.016 NA 
HETATM   36  N   UNL     1      -6.186   7.158  64.416  1.00  0.00    -0.037 NA 
ENDBRANCH   5  29
ENDBRANCH   3   5
ENDBRANCH   2   3
TORSDOF 7
ENDMDL
MODEL      162
REMARK 921   NORMALIZED FREE ENERGY PREDICTED BY IDOCK:   -2.49 KCAL/MOL
REMARK 922        TOTAL FREE ENERGY PREDICTED BY IDOCK:   -4.62 KCAL/MOL
REMARK 923 INTER-LIGAND FREE ENERGY PREDICTED BY IDOCK:   -6.54 KCAL/MOL
REMARK 924 INTRA-LIGAND FREE ENERGY PREDICTED BY IDOCK:    1.92 KCAL/MOL
REMARK 927      BINDING AFFINITY PREDICTED BY RF-SCORE:    0.00 PKD
ROOT
HETATM    1  C   UNL     1      -8.750  14.884  68.937  1.00  0.00    -0.180 C  
HETATM    2  O   UNL     1      -8.350  15.026  67.579  1.00  0.00    -0.153 OA 
ENDROOT
BRANCH   2   3
HETATM    3  N   UNL     1      -8.174  13.753  67.026  1.00  0.00    -0.379 NA 
HETATM    4  H   UNL     1      -7.262  13.350  66.811  1.00  0.00     0.000 HD 
BRANCH   3   5
HETATM    5  C   UNL     1      -9.307  13.139  66.815  1.00  0.00    -0.244 C  
BRANCH   5   6
HETATM    6  C   UNL     1      -9.711  11.805  67.482  1.00  0.00    -0.180 C  
HETATM    7  H   UNL     1     -10.306  11.041  65.638  1.00  0.00     0.000 HD 
HETATM    8  O   UNL     1      -9.567  11.615  68.682  1.00  0.00    -0.190 OA 
HETATM    9  N   UNL     1     -10.318  10.883  66.646  1.00  0.00    -0.231 N  
BRANCH   9  10
HETATM   10  CA  UNL     1     -10.989   9.664  67.185  1.00  0.00     0.004 C  
HETATM   11  N   UNL     1     -10.336   8.527  68.795  1.00  0.00    -0.217 N  
HETATM   12  C   UNL     1     -11.134   9.615  68.749  1.00  0.00    -0.049 C  
HETATM   13  C   UNL     1     -10.147   8.373  67.371  1.00  0.00    -0.236 C  
HETATM   14  O   UNL     1     -11.601  10.354  69.580  1.00  0.00    -0.247 OA 
HETATM   15  S   UNL     1      -8.364   8.451  67.082  1.00  0.00    -0.123 SA 
HETATM   16  C   UNL     1      -8.067   6.968  68.063  1.00  0.00    -0.119 C  
HETATM   17  C   UNL     1      -8.701   6.937  69.435  1.00  0.00    -0.133 C  
HETATM   18  CA  UNL     1      -9.777   7.718  69.750  1.00  0.00    -0.176 C  
HETATM   19  O   UNL     1     -11.684   7.518  71.186  1.00  0.00    -0.279 OA 
HETATM   20  C   UNL     1     -10.431   7.658  71.184  1.00  0.00    -0.208 C  
HETATM   21  OXT UNL     1      -9.592   7.588  72.131  1.00  0.00    -0.147 OA 
BRANCH  17  22
HETATM   22  C   UNL     1      -8.145   5.856  70.362  1.00  0.00    -0.107 C  
BRANCH  22  23
HETATM   23  N   UNL     1      -6.695   5.988  70.962  1.00  0.00    -0.059 N  
HETATM   24  C   UNL     1      -5.587   5.184  70.307  1.00  0.00    -0.015 C  
HETATM   25  C   UNL     1      -6.348   7.470  71.028  1.00  0.00    -0.035 C  
HETATM   26  C   UNL     1      -5.883   3.765  70.733  1.00  0.00    -0.014 C  
HETATM   27  C   UNL     1      -6.171   3.941  72.213  1.00  0.00    -0.013 C  
HETATM   28  C   UNL     1      -6.704   5.372  72.381  1.00  0.00    -0.070 C  
ENDBRANCH  22  23
ENDBRANCH  17  22
ENDBRANCH   9  10
ENDBRANCH   5   6
BRANCH   5  29
HETATM   29  C   UNL     1     -10.229  13.807  65.889  1.00  0.00    -0.313 A  
HETATM   30  S   UNL     1     -12.056  14.292  64.180  1.00  0.00    -0.292 SA 
HETATM   31  C   UNL     1     -11.217  13.166  65.160  1.00  0.00    -0.294 A  
HETATM   32  H2  UNL     1     -11.942  17.043  63.703  1.00  0.00     0.000 HD 
HETATM   33  H1  UNL     1     -10.637  17.573  64.758  1.00  0.00     0.000 HD 
HETATM   34  C   UNL     1     -11.071  15.553  64.796  1.00  0.00    -0.407 A  
HETATM   35  N   UNL     1     -11.224  16.822  64.393  1.00  0.00    -1.107 NA 
HETATM   36  N   UNL     1     -10.177  15.186  65.679  1.00  0.00    -0.331 NA 
ENDBRANCH   5  29
ENDBRANCH   3   5
ENDBRANCH   2   3
TORSDOF 7
ENDMDL
MODEL      163
REMARK 921   NORMALIZED FREE ENERGY PREDICTED BY IDOCK:   -2.48 KCAL/MOL
REMARK 922        TOTAL FREE ENERGY PREDICTED BY IDOCK:   -4.62 KCAL/MOL
REMARK 923 INTER-LIGAND FREE ENERGY PREDICTED BY IDOCK:   -4.50 KCAL/MOL
REMARK 924 INTRA-LIGAND FREE ENERGY PREDICTED BY IDOCK:   -0.12 KCAL/MOL
REMARK 927      BINDING AFFINITY PREDICTED BY RF-SCORE:    0.00 PKD
ROOT
HETATM    1  C   UNL     1      -5.379  10.540  66.196  1.00  0.00    -0.076 C  
HETATM    2  O   UNL     1      -5.454  11.942  66.418  1.00  0.00    -0.306 OA 
ENDROOT
BRANCH   2   3
HETATM    3  N   UNL     1      -5.436  12.181  67.797  1.00  0.00    -0.066 NA 
HETATM    4  H   UNL     1      -4.601  12.454  68.314  1.00  0.00     0.000 HD 
BRANCH   3   5
HETATM    5  C   UNL     1      -6.609  12.013  68.348  1.00  0.00    -0.058 C  
BRANCH   5   6
HETATM    6  C   UNL     1      -6.866  11.140  69.598  1.00  0.00    -0.117 C  
HETATM    7  H   UNL     1      -8.055   9.851  68.475  1.00  0.00     0.000 HD 
HETATM    8  O   UNL     1      -6.365  11.404  70.683  1.00  0.00    -0.310 OA 
HETATM    9  N   UNL     1      -7.760  10.099  69.419  1.00  0.00    -0.123 N  
BRANCH   9  10
HETATM   10  CA  UNL     1      -8.304   9.330  70.578  1.00  0.00    -0.205 C  
HETATM   11  N   UNL     1      -8.160   7.276  70.850  1.00  0.00    -0.105 N  
HETATM   12  C   UNL     1      -7.321   8.275  71.202  1.00  0.00    -0.070 C  
HETATM   13  C   UNL     1      -9.208   8.101  70.295  1.00  0.00    -0.151 C  
HETATM   14  O   UNL     1      -6.197   8.317  71.637  1.00  0.00    -0.040 OA 
HETATM   15  S   UNL     1      -9.429   7.560  68.583  1.00  0.00    -0.147 SA 
HETATM   16  C   UNL     1      -9.937   5.907  69.095  1.00  0.00    -0.165 C  
HETATM   17  C   UNL     1      -9.039   5.212  70.093  1.00  0.00    -0.167 C  
HETATM   18  CA  UNL     1      -8.186   5.906  70.902  1.00  0.00    -0.125 C  
HETATM   19  O   UNL     1      -7.310   5.632  73.114  1.00  0.00    -0.092 OA 
HETATM   20  C   UNL     1      -7.269   5.161  71.946  1.00  0.00    -0.084 C  
HETATM   21  OXT UNL     1      -6.753   4.090  71.507  1.00  0.00    -0.025 OA 
BRANCH  17  22
HETATM   22  C   UNL     1      -9.290   3.709  70.226  1.00  0.00    -0.171 C  
BRANCH  22  23
HETATM   23  N   UNL     1      -8.540   2.690  69.289  1.00  0.00    -0.063 N  
HETATM   24  C   UNL     1      -7.388   3.219  68.455  1.00  0.00    -0.050 C  
HETATM   25  C   UNL     1      -8.117   1.497  70.137  1.00  0.00    -0.041 C  
HETATM   26  C   UNL     1      -8.072   4.046  67.393  1.00  0.00    -0.091 C  
HETATM   27  C   UNL     1      -9.201   3.125  66.964  1.00  0.00    -0.198 C  
HETATM   28  C   UNL     1      -9.522   2.243  68.180  1.00  0.00    -0.161 C  
ENDBRANCH  22  23
ENDBRANCH  17  22
ENDBRANCH   9  10
ENDBRANCH   5   6
BRANCH   5  29
HETATM   29  C   UNL     1      -7.718  12.733  67.714  1.00  0.00    -0.152 A  
HETATM   30  S   UNL     1      -9.345  14.541  66.950  1.00  0.00    -0.255 SA 
HETATM   31  C   UNL     1      -7.932  14.098  67.810  1.00  0.00    -0.170 A  
HETATM   32  H2  UNL     1     -11.279  13.228  65.419  1.00  0.00     0.000 HD 
HETATM   33  H1  UNL     1     -10.743  11.553  65.458  1.00  0.00     0.000 HD 
HETATM   34  C   UNL     1      -9.570  12.905  66.491  1.00  0.00    -0.259 A  
HETATM   35  N   UNL     1     -10.608  12.526  65.731  1.00  0.00    -0.264 NA 
HETATM   36  N   UNL     1      -8.663  12.068  66.930  1.00  0.00    -0.190 NA 
ENDBRANCH   5  29
ENDBRANCH   3   5
ENDBRANCH   2   3
TORSDOF 7
ENDMDL
MODEL      164
REMARK 921   NORMALIZED FREE ENERGY PREDICTED BY IDOCK:   -2.45 KCAL/MOL
REMARK 922        TOTAL FREE ENERGY PREDICTED BY IDOCK:   -4.58 KCAL/MOL
REMARK 923 INTER-LIGAND FREE ENERGY PREDICTED BY IDOCK:   -5.22 KCAL/MOL
REMARK 924 INTRA-LIGAND FREE ENERGY PREDICTED BY IDOCK:    0.64 KCAL/MOL
REMARK 927      BINDING AFFINITY PREDICTED BY RF-SCORE:    0.00 PKD
ROOT
HETATM    1  C   UNL     1      -6.871   2.205  67.805  1.00  0.00    -0.039 C  
HETATM    2  O   UNL     1      -6.436   3.535  67.553  1.00  0.00    -0.036 OA 
ENDROOT
BRANCH   2   3
HETATM    3  N   UNL     1      -6.539   3.791  66.181  1.00  0.00    -0.037 NA 
HETATM    4  H   UNL     1      -5.920   3.384  65.480  1.00  0.00     0.000 HD 
BRANCH   3   5
HETATM    5  C   UNL     1      -7.518   4.609  65.898  1.00  0.00    -0.082 C  
BRANCH   5   6
HETATM    6  C   UNL     1      -7.844   5.886  66.705  1.00  0.00    -0.101 C  
HETATM    7  H   UNL     1      -6.043   6.745  66.110  1.00  0.00     0.000 HD 
HETATM    8  O   UNL     1      -8.890   6.005  67.329  1.00  0.00    -0.109 OA 
HETATM    9  N   UNL     1      -6.841   6.839  66.738  1.00  0.00    -0.060 N  
BRANCH   9  10
HETATM   10  CA  UNL     1      -6.899   8.001  67.673  1.00  0.00    -0.070 C  
HETATM   11  N   UNL     1      -8.628   8.937  68.344  1.00  0.00    -0.133 N  
HETATM   12  C   UNL     1      -7.951   7.875  68.834  1.00  0.00    -0.123 C  
HETATM   13  C   UNL     1      -7.727   9.247  67.258  1.00  0.00    -0.095 C  
HETATM   14  O   UNL     1      -8.174   7.055  69.690  1.00  0.00    -0.127 OA 
HETATM   15  S   UNL     1      -8.711   9.171  65.743  1.00  0.00    -0.176 SA 
HETATM   16  C   UNL     1      -9.772  10.528  66.277  1.00  0.00    -0.205 C  
HETATM   17  C   UNL     1     -10.351  10.414  67.669  1.00  0.00    -0.260 C  
HETATM   18  CA  UNL     1      -9.782   9.622  68.625  1.00  0.00    -0.155 C  
HETATM   19  O   UNL     1      -9.566   9.692  71.009  1.00  0.00    -0.173 OA 
HETATM   20  C   UNL     1     -10.395   9.530  70.074  1.00  0.00    -0.247 C  
HETATM   21  OXT UNL     1     -11.662   9.478  70.096  1.00  0.00    -0.180 OA 
BRANCH  17  22
HETATM   22  C   UNL     1     -11.509  11.373  67.950  1.00  0.00    -0.291 C  
BRANCH  22  23
HETATM   23  N   UNL     1     -11.227  12.833  68.467  1.00  0.00    -0.259 N  
HETATM   24  C   UNL     1     -11.802  13.986  67.666  1.00  0.00    -0.395 C  
HETATM   25  C   UNL     1     -11.646  12.902  69.930  1.00  0.00    -0.176 C  
HETATM   26  C   UNL     1     -10.946  14.013  66.422  1.00  0.00    -0.308 C  
HETATM   27  C   UNL     1      -9.550  13.875  67.005  1.00  0.00    -0.254 C  
HETATM   28  C   UNL     1      -9.710  13.108  68.327  1.00  0.00    -0.223 C  
ENDBRANCH  22  23
ENDBRANCH  17  22
ENDBRANCH   9  10
ENDBRANCH   5   6
BRANCH   5  29
HETATM   29  C   UNL     1      -8.319   4.258  64.720  1.00  0.00    -0.106 A  
HETATM   30  S   UNL     1      -9.175   3.985  62.335  1.00  0.00    -0.116 SA 
HETATM   31  C   UNL     1      -7.960   4.531  63.411  1.00  0.00    -0.084 A  
HETATM   32  H2  UNL     1     -11.643   2.693  62.555  1.00  0.00     0.000 HD 
HETATM   33  H1  UNL     1     -11.815   2.464  64.291  1.00  0.00     0.000 HD 
HETATM   34  C   UNL     1     -10.086   3.407  63.668  1.00  0.00    -0.188 A  
HETATM   35  N   UNL     1     -11.273   2.808  63.498  1.00  0.00    -0.243 NA 
HETATM   36  N   UNL     1      -9.539   3.590  64.844  1.00  0.00    -0.163 NA 
ENDBRANCH   5  29
ENDBRANCH   3   5
ENDBRANCH   2   3
TORSDOF 7
ENDMDL
MODEL      165
REMARK 921   NORMALIZED FREE ENERGY PREDICTED BY IDOCK:   -2.35 KCAL/MOL
REMARK 922        TOTAL FREE ENERGY PREDICTED BY IDOCK:   -4.42 KCAL/MOL
REMARK 923 INTER-LIGAND FREE ENERGY PREDICTED BY IDOCK:   -4.37 KCAL/MOL
REMARK 924 INTRA-LIGAND FREE ENERGY PREDICTED BY IDOCK:   -0.05 KCAL/MOL
REMARK 927      BINDING AFFINITY PREDICTED BY RF-SCORE:    0.00 PKD
ROOT
HETATM    1  C   UNL     1     -13.855   7.727  71.636  1.00  0.00    -0.383 C  
HETATM    2  O   UNL     1     -12.588   8.356  71.482  1.00  0.00    -0.303 OA 
ENDROOT
BRANCH   2   3
HETATM    3  N   UNL     1     -12.322   8.503  70.117  1.00  0.00     0.057 NA 
HETATM    4  H   UNL     1     -12.708   7.895  69.395  1.00  0.00     0.000 HD 
BRANCH   3   5
HETATM    5  C   UNL     1     -11.523   9.507  69.869  1.00  0.00    -0.062 C  
BRANCH   5   6
HETATM    6  C   UNL     1     -11.859  10.983  70.181  1.00  0.00    -0.357 C  
HETATM    7  H   UNL     1     -10.665  11.609  68.594  1.00  0.00     0.000 HD 
HETATM    8  O   UNL     1     -12.612  11.294  71.094  1.00  0.00    -0.385 OA 
HETATM    9  N   UNL     1     -11.186  11.919  69.414  1.00  0.00    -0.236 N  
BRANCH   9  10
HETATM   10  CA  UNL     1     -11.207  13.371  69.760  1.00  0.00     0.023 C  
HETATM   11  N   UNL     1     -10.442  14.910  68.594  1.00  0.00    -0.235 N  
HETATM   12  C   UNL     1     -11.662  14.329  68.601  1.00  0.00    -0.345 C  
HETATM   13  C   UNL     1      -9.876  14.168  69.696  1.00  0.00     0.602 C  
HETATM   14  O   UNL     1     -12.629  14.390  67.883  1.00  0.00     0.076 OA 
HETATM   15  S   UNL     1      -8.400  13.345  69.053  1.00  0.00     0.486 SA 
HETATM   16  C   UNL     1      -7.596  14.917  68.686  1.00  0.00    -0.124 C  
HETATM   17  C   UNL     1      -8.414  15.920  67.905  1.00  0.00    -0.164 C  
HETATM   18  CA  UNL     1      -9.778  15.867  67.871  1.00  0.00    -0.216 C  
HETATM   19  O   UNL     1     -11.556  17.464  67.706  1.00  0.00     0.377 OA 
HETATM   20  C   UNL     1     -10.612  16.933  67.061  1.00  0.00    -0.230 C  
HETATM   21  OXT UNL     1     -10.112  17.232  65.935  1.00  0.00    -0.478 OA 
BRANCH  17  22
HETATM   22  C   UNL     1      -7.600  17.069  67.309  1.00  0.00    -0.165 C  
BRANCH  22  23
HETATM   23  N   UNL     1      -7.056  18.223  68.231  1.00  0.00    -0.240 N  
HETATM   24  C   UNL     1      -8.032  18.869  69.198  1.00  0.00    -0.088 C  
HETATM   25  C   UNL     1      -5.816  17.706  68.948  1.00  0.00    -0.186 C  
HETATM   26  C   UNL     1      -8.924  19.693  68.299  1.00  0.00    -0.378 C  
HETATM   27  C   UNL     1      -7.910  20.368  67.392  1.00  0.00    -0.360 C  
HETATM   28  C   UNL     1      -6.696  19.429  67.330  1.00  0.00    -0.196 C  
ENDBRANCH  22  23
ENDBRANCH  17  22
ENDBRANCH   9  10
ENDBRANCH   5   6
BRANCH   5  29
HETATM   29  C   UNL     1     -10.230   9.157  69.272  1.00  0.00    -0.210 A  
HETATM   30  S   UNL     1      -8.041   9.215  67.967  1.00  0.00    -0.104 SA 
HETATM   31  C   UNL     1      -9.464  10.009  68.493  1.00  0.00    -0.148 A  
HETATM   32  H2  UNL     1      -6.894   6.687  68.291  1.00  0.00     0.000 HD 
HETATM   33  H1  UNL     1      -8.056   5.856  69.318  1.00  0.00     0.000 HD 
HETATM   34  C   UNL     1      -8.521   7.805  68.817  1.00  0.00    -0.129 A  
HETATM   35  N   UNL     1      -7.770   6.694  68.813  1.00  0.00    -0.107 NA 
HETATM   36  N   UNL     1      -9.656   7.898  69.463  1.00  0.00    -0.160 NA 
ENDBRANCH   5  29
ENDBRANCH   3   5
ENDBRANCH   2   3
TORSDOF 7
ENDMDL
MODEL      166
REMARK 921   NORMALIZED FREE ENERGY PREDICTED BY IDOCK:   -2.31 KCAL/MOL
REMARK 922        TOTAL FREE ENERGY PREDICTED BY IDOCK:   -4.37 KCAL/MOL
REMARK 923 INTER-LIGAND FREE ENERGY PREDICTED BY IDOCK:   -5.37 KCAL/MOL
REMARK 924 INTRA-LIGAND FREE ENERGY PREDICTED BY IDOCK:    0.99 KCAL/MOL
REMARK 927      BINDING AFFINITY PREDICTED BY RF-SCORE:    0.00 PKD
ROOT
HETATM    1  C   UNL     1     -11.065   6.379  67.350  1.00  0.00    -0.322 C  
HETATM    2  O   UNL     1     -10.218   5.297  66.980  1.00  0.00    -0.191 OA 
ENDROOT
BRANCH   2   3
HETATM    3  N   UNL     1      -9.771   5.503  65.670  1.00  0.00    -0.366 NA 
HETATM    4  H   UNL     1     -10.319   5.273  64.842  1.00  0.00     0.000 HD 
BRANCH   3   5
HETATM    5  C   UNL     1      -8.573   6.022  65.628  1.00  0.00    -0.153 C  
BRANCH   5   6
HETATM    6  C   UNL     1      -8.277   7.536  65.726  1.00  0.00    -0.137 C  
HETATM    7  H   UNL     1      -8.588   7.749  63.678  1.00  0.00     0.000 HD 
HETATM    8  O   UNL     1      -8.015   8.073  66.794  1.00  0.00    -0.100 OA 
HETATM    9  N   UNL     1      -8.248   8.214  64.520  1.00  0.00    -0.144 N  
BRANCH   9  10
HETATM   10  CA  UNL     1      -7.731   9.611  64.423  1.00  0.00    -0.128 C  
HETATM   11  N   UNL     1      -7.648  10.989  65.974  1.00  0.00    -0.094 N  
HETATM   12  C   UNL     1      -6.761  10.049  65.579  1.00  0.00    -0.105 C  
HETATM   13  C   UNL     1      -8.626  10.772  64.933  1.00  0.00    -0.092 C  
HETATM   14  O   UNL     1      -5.741   9.604  66.044  1.00  0.00    -0.053 OA 
HETATM   15  S   UNL     1     -10.178  10.369  65.769  1.00  0.00    -0.200 SA 
HETATM   16  C   UNL     1     -10.250  11.982  66.571  1.00  0.00    -0.206 C  
HETATM   17  C   UNL     1      -8.995  12.429  67.286  1.00  0.00    -0.190 C  
HETATM   18  CA  UNL     1      -7.769  11.910  66.982  1.00  0.00    -0.146 C  
HETATM   19  O   UNL     1      -5.514  12.720  66.976  1.00  0.00    -0.344 OA 
HETATM   20  C   UNL     1      -6.471  12.402  67.732  1.00  0.00    -0.115 C  
HETATM   21  OXT UNL     1      -6.628  12.571  68.978  1.00  0.00    -0.090 OA 
BRANCH  17  22
HETATM   22  C   UNL     1      -9.199  13.606  68.241  1.00  0.00    -0.198 C  
BRANCH  22  23
HETATM   23  N   UNL     1      -9.826  14.953  67.722  1.00  0.00    -0.216 N  
HETATM   24  C   UNL     1      -9.633  16.193  68.576  1.00  0.00    -0.215 C  
HETATM   25  C   UNL     1      -9.346  15.176  66.294  1.00  0.00    -0.313 C  
HETATM   26  C   UNL     1     -10.546  15.953  69.756  1.00  0.00    -0.322 C  
HETATM   27  C   UNL     1     -11.812  15.467  69.073  1.00  0.00    -0.373 C  
HETATM   28  C   UNL     1     -11.367  14.811  67.758  1.00  0.00    -0.330 C  
ENDBRANCH  22  23
ENDBRANCH  17  22
ENDBRANCH   9  10
ENDBRANCH   5   6
BRANCH   5  29
HETATM   29  C   UNL     1      -7.470   5.065  65.492  1.00  0.00    -0.077 A  
HETATM   30  S   UNL     1      -5.593   3.408  65.974  1.00  0.00    -0.018 SA 
HETATM   31  C   UNL     1      -6.847   4.423  66.550  1.00  0.00    -0.055 A  
HETATM   32  H2  UNL     1      -4.522   2.726  63.485  1.00  0.00     0.000 HD 
HETATM   33  H1  UNL     1      -5.506   3.658  62.363  1.00  0.00     0.000 HD 
HETATM   34  C   UNL     1      -5.968   3.869  64.366  1.00  0.00    -0.018 A  
HETATM   35  N   UNL     1      -5.283   3.384  63.320  1.00  0.00    -0.008 NA 
HETATM   36  N   UNL     1      -6.961   4.714  64.240  1.00  0.00    -0.048 NA 
ENDBRANCH   5  29
ENDBRANCH   3   5
ENDBRANCH   2   3
TORSDOF 7
ENDMDL
MODEL      167
REMARK 921   NORMALIZED FREE ENERGY PREDICTED BY IDOCK:   -2.31 KCAL/MOL
REMARK 922        TOTAL FREE ENERGY PREDICTED BY IDOCK:   -4.37 KCAL/MOL
REMARK 923 INTER-LIGAND FREE ENERGY PREDICTED BY IDOCK:   -4.02 KCAL/MOL
REMARK 924 INTRA-LIGAND FREE ENERGY PREDICTED BY IDOCK:   -0.35 KCAL/MOL
REMARK 927      BINDING AFFINITY PREDICTED BY RF-SCORE:    0.00 PKD
ROOT
HETATM    1  C   UNL     1      -6.682   3.149  71.234  1.00  0.00    -0.031 C  
HETATM    2  O   UNL     1      -7.674   3.557  72.169  1.00  0.00    -0.056 OA 
ENDROOT
BRANCH   2   3
HETATM    3  N   UNL     1      -7.892   4.932  72.022  1.00  0.00    -0.105 NA 
HETATM    4  H   UNL     1      -7.409   5.643  72.570  1.00  0.00     0.000 HD 
BRANCH   3   5
HETATM    5  C   UNL     1      -8.784   5.201  71.107  1.00  0.00    -0.130 C  
BRANCH   5   6
HETATM    6  C   UNL     1      -8.499   5.199  69.588  1.00  0.00    -0.093 C  
HETATM    7  H   UNL     1      -7.176   6.790  69.814  1.00  0.00     0.000 HD 
HETATM    8  O   UNL     1      -9.026   4.391  68.835  1.00  0.00    -0.097 OA 
HETATM    9  N   UNL     1      -7.680   6.219  69.137  1.00  0.00    -0.099 N  
BRANCH   9  10
HETATM   10  CA  UNL     1      -7.519   6.504  67.680  1.00  0.00    -0.097 C  
HETATM   11  N   UNL     1      -7.572   8.381  66.793  1.00  0.00    -0.090 N  
HETATM   12  C   UNL     1      -6.545   7.687  67.332  1.00  0.00    -0.063 C  
HETATM   13  C   UNL     1      -8.591   7.372  66.970  1.00  0.00    -0.119 C  
HETATM   14  O   UNL     1      -5.401   7.951  67.607  1.00  0.00    -0.030 OA 
HETATM   15  S   UNL     1      -9.893   8.133  67.967  1.00  0.00    -0.175 SA 
HETATM   16  C   UNL     1     -10.242   9.369  66.701  1.00  0.00    -0.249 C  
HETATM   17  C   UNL     1      -9.048  10.118  66.154  1.00  0.00    -0.184 C  
HETATM   18  CA  UNL     1      -7.781   9.617  66.238  1.00  0.00    -0.101 C  
HETATM   19  O   UNL     1      -5.795   9.731  64.903  1.00  0.00    -0.073 OA 
HETATM   20  C   UNL     1      -6.553  10.410  65.647  1.00  0.00    -0.129 C  
HETATM   21  OXT UNL     1      -6.593  11.658  65.863  1.00  0.00     0.290 OA 
BRANCH  17  22
HETATM   22  C   UNL     1      -9.404  11.382  65.369  1.00  0.00    -0.186 C  
BRANCH  22  23
HETATM   23  N   UNL     1     -10.331  12.482  66.007  1.00  0.00    -0.251 N  
HETATM   24  C   UNL     1      -9.778  13.891  66.116  1.00  0.00    -0.272 C  
HETATM   25  C   UNL     1     -11.664  12.459  65.270  1.00  0.00    -0.390 C  
HETATM   26  C   UNL     1      -8.755  13.783  67.222  1.00  0.00    -0.226 C  
HETATM   27  C   UNL     1      -9.513  12.985  68.267  1.00  0.00    -0.208 C  
HETATM   28  C   UNL     1     -10.535  12.132  67.501  1.00  0.00    -0.209 C  
ENDBRANCH  22  23
ENDBRANCH  17  22
ENDBRANCH   9  10
ENDBRANCH   5   6
BRANCH   5  29
HETATM   29  C   UNL     1     -10.131   5.504  71.602  1.00  0.00    -0.195 A  
HETATM   30  S   UNL     1     -12.379   5.402  72.800  1.00  0.00     0.609 SA 
HETATM   31  C   UNL     1     -10.839   4.717  72.495  1.00  0.00    -0.140 A  
HETATM   32  H2  UNL     1     -13.785   7.672  71.974  1.00  0.00     0.000 HD 
HETATM   33  H1  UNL     1     -12.651   8.465  70.888  1.00  0.00     0.000 HD 
HETATM   34  C   UNL     1     -12.002   6.702  71.747  1.00  0.00    -0.345 A  
HETATM   35  N   UNL     1     -12.875   7.692  71.514  1.00  0.00    -0.343 NA 
HETATM   36  N   UNL     1     -10.812   6.655  71.201  1.00  0.00    -0.234 NA 
ENDBRANCH   5  29
ENDBRANCH   3   5
ENDBRANCH   2   3
TORSDOF 7
ENDMDL
MODEL      168
REMARK 921   NORMALIZED FREE ENERGY PREDICTED BY IDOCK:   -2.15 KCAL/MOL
REMARK 922        TOTAL FREE ENERGY PREDICTED BY IDOCK:   -4.15 KCAL/MOL
REMARK 923 INTER-LIGAND FREE ENERGY PREDICTED BY IDOCK:   -3.83 KCAL/MOL
REMARK 924 INTRA-LIGAND FREE ENERGY PREDICTED BY IDOCK:   -0.32 KCAL/MOL
REMARK 927      BINDING AFFINITY PREDICTED BY RF-SCORE:    0.00 PKD
ROOT
HETATM    1  C   UNL     1      -5.343   5.886  63.789  1.00  0.00    -0.017 C  
HETATM    2  O   UNL     1      -5.262   6.292  65.150  1.00  0.00    -0.013 OA 
ENDROOT
BRANCH   2   3
HETATM    3  N   UNL     1      -6.533   6.186  65.727  1.00  0.00    -0.042 NA 
HETATM    4  H   UNL     1      -7.025   5.302  65.857  1.00  0.00     0.000 HD 
BRANCH   3   5
HETATM    5  C   UNL     1      -7.018   7.346  66.081  1.00  0.00    -0.065 C  
BRANCH   5   6
HETATM    6  C   UNL     1      -7.514   7.683  67.506  1.00  0.00    -0.104 C  
HETATM    7  H   UNL     1      -8.482   9.382  66.787  1.00  0.00     0.000 HD 
HETATM    8  O   UNL     1      -7.256   6.968  68.464  1.00  0.00    -0.085 OA 
HETATM    9  N   UNL     1      -8.192   8.885  67.629  1.00  0.00    -0.110 N  
BRANCH   9  10
HETATM   10  CA  UNL     1      -8.507   9.469  68.966  1.00  0.00    -0.128 C  
HETATM   11  N   UNL     1     -10.331  10.278  69.541  1.00  0.00    -0.230 N  
HETATM   12  C   UNL     1      -9.872   9.008  69.593  1.00  0.00    -0.178 C  
HETATM   13  C   UNL     1      -9.127  10.890  69.028  1.00  0.00    -0.098 C  
HETATM   14  O   UNL     1     -10.374   7.940  69.837  1.00  0.00    -0.213 OA 
HETATM   15  S   UNL     1      -9.589  11.704  67.480  1.00  0.00    -0.173 SA 
HETATM   16  C   UNL     1     -10.725  12.823  68.324  1.00  0.00    -0.239 C  
HETATM   17  C   UNL     1     -11.713  12.181  69.270  1.00  0.00    -0.386 C  
HETATM   18  CA  UNL     1     -11.495  10.949  69.816  1.00  0.00    -0.313 C  
HETATM   19  O   UNL     1     -12.034   9.863  71.882  1.00  0.00    -0.331 OA 
HETATM   20  C   UNL     1     -12.533  10.306  70.813  1.00  0.00    -0.346 C  
HETATM   21  OXT UNL     1     -13.744  10.477  70.478  1.00  0.00     0.219 OA 
BRANCH  17  22
HETATM   22  C   UNL     1     -12.873  13.090  69.681  1.00  0.00     0.765 C  
BRANCH  22  23
HETATM   23  N   UNL     1     -12.704  14.110  70.869  1.00  0.00    -0.348 N  
HETATM   24  C   UNL     1     -13.124  15.548  70.626  1.00  0.00    -0.310 C  
HETATM   25  C   UNL     1     -13.396  13.524  72.092  1.00  0.00    -0.500 C  
HETATM   26  C   UNL     1     -12.045  16.079  69.712  1.00  0.00    -0.123 C  
HETATM   27  C   UNL     1     -10.786  15.567  70.388  1.00  0.00    -0.356 C  
HETATM   28  C   UNL     1     -11.191  14.288  71.138  1.00  0.00     0.627 C  
ENDBRANCH  22  23
ENDBRANCH  17  22
ENDBRANCH   9  10
ENDBRANCH   5   6
BRANCH   5  29
HETATM   29  C   UNL     1      -7.061   8.366  65.027  1.00  0.00    -0.079 A  
HETATM   30  S   UNL     1      -7.805   9.890  63.124  1.00  0.00    -0.150 SA 
HETATM   31  C   UNL     1      -8.174   8.660  64.258  1.00  0.00    -0.158 A  
HETATM   32  H2  UNL     1      -5.569  11.429  62.462  1.00  0.00     0.000 HD 
HETATM   33  H1  UNL     1      -4.348  10.858  63.594  1.00  0.00     0.000 HD 
HETATM   34  C   UNL     1      -6.205   9.965  63.737  1.00  0.00    -0.125 A  
HETATM   35  N   UNL     1      -5.299  10.814  63.230  1.00  0.00    -0.161 NA 
HETATM   36  N   UNL     1      -5.942   9.145  64.724  1.00  0.00    -0.064 NA 
ENDBRANCH   5  29
ENDBRANCH   3   5
ENDBRANCH   2   3
TORSDOF 7
ENDMDL
MODEL      169
REMARK 921   NORMALIZED FREE ENERGY PREDICTED BY IDOCK:   -2.04 KCAL/MOL
REMARK 922        TOTAL FREE ENERGY PREDICTED BY IDOCK:   -3.99 KCAL/MOL
REMARK 923 INTER-LIGAND FREE ENERGY PREDICTED BY IDOCK:   -3.23 KCAL/MOL
REMARK 924 INTRA-LIGAND FREE ENERGY PREDICTED BY IDOCK:   -0.75 KCAL/MOL
REMARK 927      BINDING AFFINITY PREDICTED BY RF-SCORE:    0.00 PKD
ROOT
HETATM    1  C   UNL     1      -7.779   8.430  74.279  1.00  0.00    -0.189 C  
HETATM    2  O   UNL     1      -7.556   8.812  72.928  1.00  0.00    -0.365 OA 
ENDROOT
BRANCH   2   3
HETATM    3  N   UNL     1      -8.758   8.694  72.222  1.00  0.00    -0.369 NA 
HETATM    4  H   UNL     1      -9.664   8.977  72.594  1.00  0.00     0.000 HD 
BRANCH   3   5
HETATM    5  C   UNL     1      -8.590   8.180  71.033  1.00  0.00    -0.137 C  
BRANCH   5   6
HETATM    6  C   UNL     1      -8.514   6.664  70.744  1.00  0.00    -0.134 C  
HETATM    7  H   UNL     1      -6.915   6.972  69.445  1.00  0.00     0.000 HD 
HETATM    8  O   UNL     1      -9.269   5.866  71.284  1.00  0.00    -0.143 OA 
HETATM    9  N   UNL     1      -7.597   6.290  69.776  1.00  0.00    -0.084 N  
BRANCH   9  10
HETATM   10  CA  UNL     1      -7.583   4.910  69.207  1.00  0.00    -0.060 C  
HETATM   11  N   UNL     1      -7.133   4.409  67.242  1.00  0.00    -0.067 N  
HETATM   12  C   UNL     1      -6.333   4.563  68.320  1.00  0.00    -0.037 C  
HETATM   13  C   UNL     1      -8.393   4.633  67.912  1.00  0.00    -0.099 C  
HETATM   14  O   UNL     1      -5.139   4.609  68.484  1.00  0.00     0.000 OA 
HETATM   15  S   UNL     1      -9.180   6.023  67.065  1.00  0.00    -0.124 SA 
HETATM   16  C   UNL     1      -9.283   5.113  65.512  1.00  0.00    -0.136 C  
HETATM   17  C   UNL     1      -8.009   4.448  65.043  1.00  0.00    -0.097 C  
HETATM   18  CA  UNL     1      -6.993   4.146  65.904  1.00  0.00    -0.066 C  
HETATM   19  O   UNL     1      -5.329   2.431  66.065  1.00  0.00    -0.007 OA 
HETATM   20  C   UNL     1      -5.680   3.439  65.394  1.00  0.00    -0.018 C  
HETATM   21  OXT UNL     1      -5.256   3.877  64.283  1.00  0.00    -0.008 OA 
BRANCH  17  22
HETATM   22  C   UNL     1      -8.033   4.004  63.579  1.00  0.00    -0.087 C  
BRANCH  22  23
HETATM   23  N   UNL     1      -8.305   2.499  63.207  1.00  0.00    -0.084 N  
HETATM   24  C   UNL     1      -9.629   2.168  62.542  1.00  0.00    -0.089 C  
HETATM   25  C   UNL     1      -7.125   1.997  62.386  1.00  0.00    -0.031 C  
HETATM   26  C   UNL     1     -10.632   2.313  63.663  1.00  0.00    -0.112 C  
HETATM   27  C   UNL     1      -9.937   1.579  64.796  1.00  0.00     0.291 C  
HETATM   28  C   UNL     1      -8.430   1.694  64.523  1.00  0.00    -0.084 C  
ENDBRANCH  22  23
ENDBRANCH  17  22
ENDBRANCH   9  10
ENDBRANCH   5   6
BRANCH   5  29
HETATM   29  C   UNL     1      -8.488   9.145  69.932  1.00  0.00    -0.147 A  
HETATM   30  S   UNL     1      -7.753  11.052  68.410  1.00  0.00    -0.127 SA 
HETATM   31  C   UNL     1      -7.505  10.114  69.821  1.00  0.00    -0.163 A  
HETATM   32  H2  UNL     1      -9.597  11.106  66.311  1.00  0.00     0.000 HD 
HETATM   33  H1  UNL     1     -10.684   9.780  66.707  1.00  0.00     0.000 HD 
HETATM   34  C   UNL     1      -9.130  10.105  68.030  1.00  0.00    -0.131 A  
HETATM   35  N   UNL     1      -9.864  10.343  66.933  1.00  0.00    -0.184 NA 
HETATM   36  N   UNL     1      -9.402   9.144  68.876  1.00  0.00    -0.145 NA 
ENDBRANCH   5  29
ENDBRANCH   3   5
ENDBRANCH   2   3
TORSDOF 7
ENDMDL
MODEL      170
REMARK 921   NORMALIZED FREE ENERGY PREDICTED BY IDOCK:   -1.73 KCAL/MOL
REMARK 922        TOTAL FREE ENERGY PREDICTED BY IDOCK:   -3.55 KCAL/MOL
REMARK 923 INTER-LIGAND FREE ENERGY PREDICTED BY IDOCK:   -4.45 KCAL/MOL
REMARK 924 INTRA-LIGAND FREE ENERGY PREDICTED BY IDOCK:    0.90 KCAL/MOL
REMARK 927      BINDING AFFINITY PREDICTED BY RF-SCORE:    0.00 PKD
ROOT
HETATM    1  C   UNL     1      -6.299   9.857  63.451  1.00  0.00    -0.126 C  
HETATM    2  O   UNL     1      -6.727   9.031  64.527  1.00  0.00    -0.077 OA 
ENDROOT
BRANCH   2   3
HETATM    3  N   UNL     1      -7.892   8.359  64.141  1.00  0.00    -0.138 NA 
HETATM    4  H   UNL     1      -8.480   8.646  63.359  1.00  0.00     0.000 HD 
BRANCH   3   5
HETATM    5  C   UNL     1      -8.144   7.323  64.896  1.00  0.00    -0.108 C  
BRANCH   5   6
HETATM    6  C   UNL     1      -8.815   7.401  66.286  1.00  0.00    -0.159 C  
HETATM    7  H   UNL     1     -10.557   6.562  65.513  1.00  0.00     0.000 HD 
HETATM    8  O   UNL     1      -8.223   7.837  67.264  1.00  0.00    -0.116 OA 
HETATM    9  N   UNL     1     -10.147   7.026  66.323  1.00  0.00     0.052 N  
BRANCH   9  10
HETATM   10  CA  UNL     1     -10.998   7.286  67.522  1.00  0.00    -0.151 C  
HETATM   11  N   UNL     1     -10.325   7.440  69.481  1.00  0.00    -0.211 N  
HETATM   12  C   UNL     1     -10.446   8.374  68.512  1.00  0.00    -0.164 C  
HETATM   13  C   UNL     1     -10.878   6.330  68.739  1.00  0.00    -0.333 C  
HETATM   14  O   UNL     1     -10.091   9.521  68.398  1.00  0.00    -0.163 OA 
HETATM   15  S   UNL     1      -9.602   5.048  68.714  1.00  0.00    -0.161 SA 
HETATM   16  C   UNL     1      -9.642   4.873  70.508  1.00  0.00    -0.184 C  
HETATM   17  C   UNL     1      -9.540   6.153  71.306  1.00  0.00    -0.189 C  
HETATM   18  CA  UNL     1      -9.858   7.366  70.768  1.00  0.00    -0.178 C  
HETATM   19  O   UNL     1     -10.783   9.420  71.584  1.00  0.00    -0.356 OA 
HETATM   20  C   UNL     1      -9.758   8.687  71.624  1.00  0.00    -0.278 C  
HETATM   21  OXT UNL     1      -8.733   8.743  72.367  1.00  0.00    -0.392 OA 
BRANCH  17  22
HETATM   22  C   UNL     1      -9.215   5.948  72.787  1.00  0.00    -0.142 C  
BRANCH  22  23
HETATM   23  N   UNL     1      -7.807   5.396  73.225  1.00  0.00    -0.103 N  
HETATM   24  C   UNL     1      -7.209   5.937  74.511  1.00  0.00    -0.087 C  
HETATM   25  C   UNL     1      -7.883   3.875  73.239  1.00  0.00    -0.083 C  
HETATM   26  C   UNL     1      -6.800   7.344  74.143  1.00  0.00    -0.093 C  
HETATM   27  C   UNL     1      -6.118   7.128  72.804  1.00  0.00    -0.051 C  
HETATM   28  C   UNL     1      -6.760   5.875  72.191  1.00  0.00    -0.071 C  
ENDBRANCH  22  23
ENDBRANCH  17  22
ENDBRANCH   9  10
ENDBRANCH   5   6
BRANCH   5  29
HETATM   29  C   UNL     1      -7.759   6.022  64.338  1.00  0.00    -0.104 A  
HETATM   30  S   UNL     1      -7.418   4.028  62.786  1.00  0.00    -0.050 SA 
HETATM   31  C   UNL     1      -7.995   5.622  63.033  1.00  0.00    -0.104 A  
HETATM   32  H2  UNL     1      -6.133   2.079  64.322  1.00  0.00     0.000 HD 
HETATM   33  H1  UNL     1      -5.954   2.864  65.887  1.00  0.00     0.000 HD 
HETATM   34  C   UNL     1      -6.879   3.979  64.413  1.00  0.00    -0.045 A  
HETATM   35  N   UNL     1      -6.275   2.894  64.919  1.00  0.00    -0.022 NA 
HETATM   36  N   UNL     1      -7.095   5.066  65.110  1.00  0.00    -0.062 NA 
ENDBRANCH   5  29
ENDBRANCH   3   5
ENDBRANCH   2   3
TORSDOF 7
ENDMDL
MODEL      171
REMARK 921   NORMALIZED FREE ENERGY PREDICTED BY IDOCK:   -1.37 KCAL/MOL
REMARK 922        TOTAL FREE ENERGY PREDICTED BY IDOCK:   -3.04 KCAL/MOL
REMARK 923 INTER-LIGAND FREE ENERGY PREDICTED BY IDOCK:   -3.46 KCAL/MOL
REMARK 924 INTRA-LIGAND FREE ENERGY PREDICTED BY IDOCK:    0.42 KCAL/MOL
REMARK 927      BINDING AFFINITY PREDICTED BY RF-SCORE:    0.00 PKD
ROOT
HETATM    1  C   UNL     1      -7.846  14.687  66.493  1.00  0.00     0.811 C  
HETATM    2  O   UNL     1      -6.760  14.336  67.342  1.00  0.00    -0.259 OA 
ENDROOT
BRANCH   2   3
HETATM    3  N   UNL     1      -7.265  13.675  68.468  1.00  0.00    -0.103 NA 
HETATM    4  H   UNL     1      -6.914  13.820  69.414  1.00  0.00     0.000 HD 
BRANCH   3   5
HETATM    5  C   UNL     1      -8.234  12.851  68.170  1.00  0.00    -0.163 C  
BRANCH   5   6
HETATM    6  C   UNL     1      -8.024  11.430  67.601  1.00  0.00    -0.123 C  
HETATM    7  H   UNL     1      -8.188  10.620  69.513  1.00  0.00     0.000 HD 
HETATM    8  O   UNL     1      -7.871  11.231  66.403  1.00  0.00    -0.158 OA 
HETATM    9  N   UNL     1      -7.937  10.420  68.544  1.00  0.00    -0.108 N  
BRANCH   9  10
HETATM   10  CA  UNL     1      -7.485   9.046  68.177  1.00  0.00    -0.084 C  
HETATM   11  N   UNL     1      -8.181   7.273  69.006  1.00  0.00    -0.124 N  
HETATM   12  C   UNL     1      -8.635   7.998  67.959  1.00  0.00    -0.129 C  
HETATM   13  C   UNL     1      -7.027   8.087  69.309  1.00  0.00    -0.056 C  
HETATM   14  O   UNL     1      -9.626   7.957  67.272  1.00  0.00    -0.143 OA 
HETATM   15  S   UNL     1      -7.215   8.619  71.027  1.00  0.00    -0.089 SA 
HETATM   16  C   UNL     1      -7.145   6.923  71.635  1.00  0.00    -0.074 C  
HETATM   17  C   UNL     1      -8.057   5.930  70.952  1.00  0.00    -0.120 C  
HETATM   18  CA  UNL     1      -8.549   6.148  69.697  1.00  0.00    -0.128 C  
HETATM   19  O   UNL     1      -9.149   4.779  67.825  1.00  0.00    -0.109 OA 
HETATM   20  C   UNL     1      -9.488   5.091  68.998  1.00  0.00    -0.137 C  
HETATM   21  OXT UNL     1     -10.350   4.576  69.771  1.00  0.00    -0.116 OA 
BRANCH  17  22
HETATM   22  C   UNL     1      -8.239   4.616  71.712  1.00  0.00    -0.105 C  
BRANCH  22  23
HETATM   23  N   UNL     1      -8.715   4.622  73.212  1.00  0.00    -0.101 N  
HETATM   24  C   UNL     1      -7.717   4.184  74.268  1.00  0.00    -0.080 C  
HETATM   25  C   UNL     1      -9.287   6.000  73.518  1.00  0.00    -0.134 C  
HETATM   26  C   UNL     1      -7.619   2.691  74.064  1.00  0.00    -0.047 C  
HETATM   27  C   UNL     1      -9.081   2.302  73.931  1.00  0.00    -0.077 C  
HETATM   28  C   UNL     1      -9.806   3.536  73.375  1.00  0.00    -0.111 C  
ENDBRANCH  22  23
ENDBRANCH  17  22
ENDBRANCH   9  10
ENDBRANCH   5   6
BRANCH   5  29
HETATM   29  C   UNL     1      -9.591  13.348  68.426  1.00  0.00    -0.188 A  
HETATM   30  S   UNL     1     -12.121  13.545  68.660  1.00  0.00    -0.157 SA 
HETATM   31  C   UNL     1     -10.744  12.593  68.298  1.00  0.00    -0.230 A  
HETATM   32  H2  UNL     1     -12.610  16.183  69.444  1.00  0.00     0.000 HD 
HETATM   33  H1  UNL     1     -10.993  16.871  69.541  1.00  0.00     0.000 HD 
HETATM   34  C   UNL     1     -11.101  14.886  68.980  1.00  0.00    -0.250 A  
HETATM   35  N   UNL     1     -11.600  16.074  69.351  1.00  0.00    -0.340 NA 
HETATM   36  N   UNL     1      -9.818  14.661  68.841  1.00  0.00    -0.224 NA 
ENDBRANCH   5  29
ENDBRANCH   3   5
ENDBRANCH   2   3
TORSDOF 7
ENDMDL
MODEL      172
REMARK 921   NORMALIZED FREE ENERGY PREDICTED BY IDOCK:   -0.89 KCAL/MOL
REMARK 922        TOTAL FREE ENERGY PREDICTED BY IDOCK:   -2.36 KCAL/MOL
REMARK 923 INTER-LIGAND FREE ENERGY PREDICTED BY IDOCK:   -3.71 KCAL/MOL
REMARK 924 INTRA-LIGAND FREE ENERGY PREDICTED BY IDOCK:    1.34 KCAL/MOL
REMARK 927      BINDING AFFINITY PREDICTED BY RF-SCORE:    0.00 PKD
ROOT
HETATM    1  C   UNL     1      -9.362  19.602  69.909  1.00  0.00     0.617 C  
HETATM    2  O   UNL     1      -8.505  19.861  68.805  1.00  0.00    -0.197 OA 
ENDROOT
BRANCH   2   3
HETATM    3  N   UNL     1      -7.866  18.670  68.442  1.00  0.00    -0.309 NA 
HETATM    4  H   UNL     1      -6.853  18.556  68.415  1.00  0.00     0.000 HD 
BRANCH   3   5
HETATM    5  C   UNL     1      -8.711  17.721  68.141  1.00  0.00    -0.266 C  
BRANCH   5   6
HETATM    6  C   UNL     1      -8.839  16.391  68.918  1.00  0.00    -0.256 C  
HETATM    7  H   UNL     1      -6.894  15.871  68.383  1.00  0.00     0.000 HD 
HETATM    8  O   UNL     1      -9.857  16.097  69.530  1.00  0.00    -0.246 OA 
HETATM    9  N   UNL     1      -7.760  15.531  68.803  1.00  0.00    -0.147 N  
BRANCH   9  10
HETATM   10  CA  UNL     1      -7.835  14.118  69.278  1.00  0.00     0.142 C  
HETATM   11  N   UNL     1      -7.325  12.435  68.173  1.00  0.00    -0.100 N  
HETATM   12  C   UNL     1      -6.574  13.237  68.959  1.00  0.00    -0.104 C  
HETATM   13  C   UNL     1      -8.596  13.082  68.408  1.00  0.00    -0.116 C  
HETATM   14  O   UNL     1      -5.391  13.343  69.168  1.00  0.00    -0.073 OA 
HETATM   15  S   UNL     1      -9.214  13.594  66.788  1.00  0.00    -0.212 SA 
HETATM   16  C   UNL     1      -9.312  11.890  66.205  1.00  0.00    -0.227 C  
HETATM   17  C   UNL     1      -8.077  11.043  66.411  1.00  0.00    -0.166 C  
HETATM   18  CA  UNL     1      -7.138  11.352  67.353  1.00  0.00    -0.114 C  
HETATM   19  O   UNL     1      -5.639  10.118  68.755  1.00  0.00    -0.039 OA 
HETATM   20  C   UNL     1      -5.865  10.445  67.559  1.00  0.00    -0.045 C  
HETATM   21  OXT UNL     1      -5.346  10.031  66.479  1.00  0.00    -0.042 OA 
BRANCH  17  22
HETATM   22  C   UNL     1      -8.060   9.746  65.599  1.00  0.00    -0.120 C  
BRANCH  22  23
HETATM   23  N   UNL     1      -8.708   8.434  66.180  1.00  0.00    -0.142 N  
HETATM   24  C   UNL     1     -10.215   8.414  66.359  1.00  0.00    -0.098 C  
HETATM   25  C   UNL     1      -8.228   7.260  65.337  1.00  0.00    -0.137 C  
HETATM   26  C   UNL     1     -10.441   9.325  67.542  1.00  0.00    -0.338 C  
HETATM   27  C   UNL     1      -9.371   8.849  68.508  1.00  0.00    -0.141 C  
HETATM   28  C   UNL     1      -8.237   8.274  67.646  1.00  0.00    -0.127 C  
ENDBRANCH  22  23
ENDBRANCH  17  22
ENDBRANCH   9  10
ENDBRANCH   5   6
BRANCH   5  29
HETATM   29  C   UNL     1      -9.585  17.988  66.993  1.00  0.00    -0.287 A  
HETATM   30  S   UNL     1     -11.086  19.118  65.271  1.00  0.00     1.314 SA 
HETATM   31  C   UNL     1     -10.091  19.233  66.660  1.00  0.00    -0.399 A  
HETATM   32  H2  UNL     1     -11.915  17.090  63.536  1.00  0.00     0.000 HD 
HETATM   33  H1  UNL     1     -11.114  15.664  64.185  1.00  0.00     0.000 HD 
HETATM   34  C   UNL     1     -10.768  17.435  65.191  1.00  0.00     0.139 A  
HETATM   35  N   UNL     1     -11.303  16.665  64.233  1.00  0.00    -1.093 NA 
HETATM   36  N   UNL     1      -9.970  16.969  66.119  1.00  0.00    -0.379 NA 
ENDBRANCH   5  29
ENDBRANCH   3   5
ENDBRANCH   2   3
TORSDOF 7
ENDMDL
MODEL      173
REMARK 921   NORMALIZED FREE ENERGY PREDICTED BY IDOCK:   -0.85 KCAL/MOL
REMARK 922        TOTAL FREE ENERGY PREDICTED BY IDOCK:   -2.32 KCAL/MOL
REMARK 923 INTER-LIGAND FREE ENERGY PREDICTED BY IDOCK:   -3.26 KCAL/MOL
REMARK 924 INTRA-LIGAND FREE ENERGY PREDICTED BY IDOCK:    0.94 KCAL/MOL
REMARK 927      BINDING AFFINITY PREDICTED BY RF-SCORE:    0.00 PKD
ROOT
HETATM    1  C   UNL     1      -9.995  19.725  70.408  1.00  0.00     0.985 C  
HETATM    2  O   UNL     1      -9.295  19.815  69.174  1.00  0.00    -0.271 OA 
ENDROOT
BRANCH   2   3
HETATM    3  N   UNL     1      -8.606  18.616  68.958  1.00  0.00    -0.146 NA 
HETATM    4  H   UNL     1      -7.625  18.475  69.199  1.00  0.00     0.000 HD 
BRANCH   3   5
HETATM    5  C   UNL     1      -9.359  17.699  68.413  1.00  0.00    -0.289 C  
BRANCH   5   6
HETATM    6  C   UNL     1      -9.612  16.303  69.027  1.00  0.00    -0.257 C  
HETATM    7  H   UNL     1      -8.024  15.514  67.934  1.00  0.00     0.000 HD 
HETATM    8  O   UNL     1     -10.500  16.111  69.847  1.00  0.00    -0.289 OA 
HETATM    9  N   UNL     1      -8.823  15.282  68.524  1.00  0.00    -0.177 N  
BRANCH   9  10
HETATM   10  CA  UNL     1      -9.116  13.850  68.825  1.00  0.00    -0.002 C  
HETATM   11  N   UNL     1      -8.378  12.212  67.783  1.00  0.00    -0.149 N  
HETATM   12  C   UNL     1      -7.866  12.897  68.830  1.00  0.00     0.040 C  
HETATM   13  C   UNL     1      -9.622  12.938  67.676  1.00  0.00    -0.196 C  
HETATM   14  O   UNL     1      -6.803  12.897  69.399  1.00  0.00    -0.066 OA 
HETATM   15  S   UNL     1      -9.678  13.607  65.996  1.00  0.00    -0.171 SA 
HETATM   16  C   UNL     1      -9.679  11.960  65.263  1.00  0.00    -0.192 C  
HETATM   17  C   UNL     1      -8.615  11.007  65.759  1.00  0.00    -0.151 C  
HETATM   18  CA  UNL     1      -8.001  11.177  66.967  1.00  0.00    -0.145 C  
HETATM   19  O   UNL     1      -7.080   9.737  68.644  1.00  0.00    -0.069 OA 
HETATM   20  C   UNL     1      -6.905  10.162  67.471  1.00  0.00    -0.077 C  
HETATM   21  OXT UNL     1      -6.099   9.784  66.569  1.00  0.00    -0.058 OA 
BRANCH  17  22
HETATM   22  C   UNL     1      -8.416   9.772  64.879  1.00  0.00    -0.157 C  
BRANCH  22  23
HETATM   23  N   UNL     1      -8.419   9.903  63.310  1.00  0.00    -0.163 N  
HETATM   24  C   UNL     1      -8.613   8.634  62.500  1.00  0.00    -0.139 C  
HETATM   25  C   UNL     1      -9.435  10.972  62.930  1.00  0.00    -0.356 C  
HETATM   26  C   UNL     1      -7.301   7.905  62.667  1.00  0.00    -0.101 C  
HETATM   27  C   UNL     1      -6.297   9.022  62.443  1.00  0.00    -0.094 C  
HETATM   28  C   UNL     1      -6.999  10.323  62.860  1.00  0.00    -0.129 C  
ENDBRANCH  22  23
ENDBRANCH  17  22
ENDBRANCH   9  10
ENDBRANCH   5   6
BRANCH   5  29
HETATM   29  C   UNL     1      -9.996  18.070  67.145  1.00  0.00    -0.325 A  
HETATM   30  S   UNL     1     -11.064  19.372  65.231  1.00  0.00     1.112 SA 
HETATM   31  C   UNL     1     -10.308  19.366  66.768  1.00  0.00    -0.443 A  
HETATM   32  H2  UNL     1     -11.799  17.463  63.328  1.00  0.00     0.000 HD 
HETATM   33  H1  UNL     1     -11.271  15.952  64.060  1.00  0.00     0.000 HD 
HETATM   34  C   UNL     1     -10.914  17.666  65.158  1.00  0.00     0.412 A  
HETATM   35  N   UNL     1     -11.360  16.968  64.104  1.00  0.00    -0.852 NA 
HETATM   36  N   UNL     1     -10.336  17.108  66.192  1.00  0.00    -0.343 NA 
ENDBRANCH   5  29
ENDBRANCH   3   5
ENDBRANCH   2   3
TORSDOF 7
ENDMDL
MODEL      174
REMARK 921   NORMALIZED FREE ENERGY PREDICTED BY IDOCK:   -0.20 KCAL/MOL
REMARK 922        TOTAL FREE ENERGY PREDICTED BY IDOCK:   -1.39 KCAL/MOL
REMARK 923 INTER-LIGAND FREE ENERGY PREDICTED BY IDOCK:   -1.33 KCAL/MOL
REMARK 924 INTRA-LIGAND FREE ENERGY PREDICTED BY IDOCK:   -0.06 KCAL/MOL
REMARK 927      BINDING AFFINITY PREDICTED BY RF-SCORE:    0.00 PKD
ROOT
HETATM    1  C   UNL     1      -6.567   8.977  74.484  1.00  0.00     0.030 C  
HETATM    2  O   UNL     1      -6.153   9.474  73.217  1.00  0.00    -0.297 OA 
ENDROOT
BRANCH   2   3
HETATM    3  N   UNL     1      -7.280   9.613  72.398  1.00  0.00     0.686 NA 
HETATM    4  H   UNL     1      -8.104  10.156  72.655  1.00  0.00     0.000 HD 
BRANCH   3   5
HETATM    5  C   UNL     1      -7.158   8.970  71.267  1.00  0.00    -0.079 C  
BRANCH   5   6
HETATM    6  C   UNL     1      -7.567   7.494  71.058  1.00  0.00    -0.084 C  
HETATM    7  H   UNL     1      -5.998   7.231  69.713  1.00  0.00     0.000 HD 
HETATM    8  O   UNL     1      -8.512   6.997  71.655  1.00  0.00    -0.115 OA 
HETATM    9  N   UNL     1      -6.846   6.811  70.094  1.00  0.00    -0.059 N  
BRANCH   9  10
HETATM   10  CA  UNL     1      -7.281   5.471  69.598  1.00  0.00    -0.065 C  
HETATM   11  N   UNL     1      -7.285   4.850  67.617  1.00  0.00    -0.069 N  
HETATM   12  C   UNL     1      -6.317   4.796  68.558  1.00  0.00    -0.036 C  
HETATM   13  C   UNL     1      -8.324   5.408  68.450  1.00  0.00    -0.094 C  
HETATM   14  O   UNL     1      -5.142   4.523  68.544  1.00  0.00     0.000 OA 
HETATM   15  S   UNL     1      -8.840   6.949  67.658  1.00  0.00    -0.117 SA 
HETATM   16  C   UNL     1      -9.414   6.084  66.184  1.00  0.00    -0.087 C  
HETATM   17  C   UNL     1      -8.446   5.099  65.569  1.00  0.00    -0.138 C  
HETATM   18  CA  UNL     1      -7.425   4.546  66.287  1.00  0.00    -0.082 C  
HETATM   19  O   UNL     1      -6.264   2.451  66.290  1.00  0.00    -0.023 OA 
HETATM   20  C   UNL     1      -6.437   3.509  65.628  1.00  0.00    -0.033 C  
HETATM   21  OXT UNL     1      -6.088   3.808  64.446  1.00  0.00    -0.021 OA 
BRANCH  17  22
HETATM   22  C   UNL     1      -8.809   4.664  64.148  1.00  0.00    -0.140 C  
BRANCH  22  23
HETATM   23  N   UNL     1      -9.807   3.469  63.911  1.00  0.00    -0.157 N  
HETATM   24  C   UNL     1      -9.549   2.178  64.666  1.00  0.00    -0.044 C  
HETATM   25  C   UNL     1     -11.220   3.984  64.148  1.00  0.00     0.337 C  
HETATM   26  C   UNL     1      -8.334   1.603  63.976  1.00  0.00    -0.077 C  
HETATM   27  C   UNL     1      -8.697   1.783  62.513  1.00  0.00    -0.072 C  
HETATM   28  C   UNL     1      -9.645   2.990  62.449  1.00  0.00    -0.092 C  
ENDBRANCH  22  23
ENDBRANCH  17  22
ENDBRANCH   9  10
ENDBRANCH   5   6
BRANCH   5  29
HETATM   29  C   UNL     1      -6.607   9.746  70.151  1.00  0.00    -0.091 A  
HETATM   30  S   UNL     1      -5.255  10.500  68.126  1.00  0.00    -0.033 SA 
HETATM   31  C   UNL     1      -5.649   9.283  69.265  1.00  0.00    -0.035 A  
HETATM   32  H2  UNL     1      -6.057  13.127  67.611  1.00  0.00     0.000 HD 
HETATM   33  H1  UNL     1      -7.265  13.423  68.856  1.00  0.00     0.000 HD 
HETATM   34  C   UNL     1      -6.389  11.551  68.867  1.00  0.00    -0.059 A  
HETATM   35  N   UNL     1      -6.591  12.797  68.415  1.00  0.00    -0.076 NA 
HETATM   36  N   UNL     1      -7.035  11.050  69.890  1.00  0.00    -0.107 NA 
ENDBRANCH   5  29
ENDBRANCH   3   5
ENDBRANCH   2   3
TORSDOF 7
ENDMDL
MODEL      175
REMARK 921   NORMALIZED FREE ENERGY PREDICTED BY IDOCK:    0.30 KCAL/MOL
REMARK 922        TOTAL FREE ENERGY PREDICTED BY IDOCK:   -0.69 KCAL/MOL
REMARK 923 INTER-LIGAND FREE ENERGY PREDICTED BY IDOCK:   -1.47 KCAL/MOL
REMARK 924 INTRA-LIGAND FREE ENERGY PREDICTED BY IDOCK:    0.78 KCAL/MOL
REMARK 927      BINDING AFFINITY PREDICTED BY RF-SCORE:    0.00 PKD
ROOT
HETATM    1  C   UNL     1      -9.895  20.077  70.985  1.00  0.00     1.909 C  
HETATM    2  O   UNL     1      -9.720  20.217  69.580  1.00  0.00     0.009 OA 
ENDROOT
BRANCH   2   3
HETATM    3  N   UNL     1      -8.807  19.251  69.142  1.00  0.00    -0.219 NA 
HETATM    4  H   UNL     1      -7.795  19.344  69.233  1.00  0.00     0.000 HD 
BRANCH   3   5
HETATM    5  C   UNL     1      -9.395  18.216  68.603  1.00  0.00    -0.297 C  
BRANCH   5   6
HETATM    6  C   UNL     1      -9.461  16.816  69.255  1.00  0.00    -0.091 C  
HETATM    7  H   UNL     1      -7.553  16.375  68.546  1.00  0.00     0.000 HD 
HETATM    8  O   UNL     1     -10.434  16.451  69.900  1.00  0.00    -0.277 OA 
HETATM    9  N   UNL     1      -8.386  15.986  68.986  1.00  0.00    -0.231 N  
BRANCH   9  10
HETATM   10  CA  UNL     1      -8.420  14.532  69.326  1.00  0.00     0.100 C  
HETATM   11  N   UNL     1      -8.266  12.963  67.974  1.00  0.00    -0.157 N  
HETATM   12  C   UNL     1      -7.313  13.657  68.634  1.00  0.00    -0.113 C  
HETATM   13  C   UNL     1      -9.413  13.614  68.564  1.00  0.00    -0.143 C  
HETATM   14  O   UNL     1      -6.110  13.710  68.568  1.00  0.00    -0.080 OA 
HETATM   15  S   UNL     1     -10.363  14.312  67.193  1.00  0.00    -0.263 SA 
HETATM   16  C   UNL     1     -10.679  12.682  66.488  1.00  0.00    -0.250 C  
HETATM   17  C   UNL     1      -9.474  11.786  66.313  1.00  0.00    -0.238 C  
HETATM   18  CA  UNL     1      -8.328  11.969  67.032  1.00  0.00    -0.178 C  
HETATM   19  O   UNL     1      -6.608  10.554  67.914  1.00  0.00    -0.060 OA 
HETATM   20  C   UNL     1      -7.089  11.012  66.843  1.00  0.00    -0.125 C  
HETATM   21  OXT UNL     1      -6.856  10.701  65.636  1.00  0.00    -0.131 OA 
BRANCH  17  22
HETATM   22  C   UNL     1      -9.712  10.583  65.399  1.00  0.00    -0.257 C  
BRANCH  22  23
HETATM   23  N   UNL     1      -9.757  10.766  63.836  1.00  0.00    -0.285 N  
HETATM   24  C   UNL     1      -9.304  12.100  63.271  1.00  0.00     0.481 C  
HETATM   25  C   UNL     1      -9.002   9.604  63.204  1.00  0.00    -0.232 C  
HETATM   26  C   UNL     1     -10.425  13.040  63.645  1.00  0.00     0.065 C  
HETATM   27  C   UNL     1     -11.650  12.225  63.270  1.00  0.00    -0.434 C  
HETATM   28  C   UNL     1     -11.240  10.750  63.393  1.00  0.00     0.981 C  
ENDBRANCH  22  23
ENDBRANCH  17  22
ENDBRANCH   9  10
ENDBRANCH   5   6
BRANCH   5  29
HETATM   29  C   UNL     1     -10.032  18.453  67.303  1.00  0.00    -0.335 A  
HETATM   30  S   UNL     1     -11.130  19.544  65.278  1.00  0.00     1.032 SA 
HETATM   31  C   UNL     1     -10.392  19.698  66.816  1.00  0.00    -0.476 A  
HETATM   32  H2  UNL     1     -11.760  17.453  63.535  1.00  0.00     0.000 HD 
HETATM   33  H1  UNL     1     -11.178  16.032  64.396  1.00  0.00     0.000 HD 
HETATM   34  C   UNL     1     -10.907  17.845  65.349  1.00  0.00     0.206 A  
HETATM   35  N   UNL     1     -11.310  17.043  64.353  1.00  0.00    -1.052 NA 
HETATM   36  N   UNL     1     -10.318  17.400  66.431  1.00  0.00    -0.334 NA 
ENDBRANCH   5  29
ENDBRANCH   3   5
ENDBRANCH   2   3
TORSDOF 7
ENDMDL
MODEL      176
REMARK 921   NORMALIZED FREE ENERGY PREDICTED BY IDOCK:    1.18 KCAL/MOL
REMARK 922        TOTAL FREE ENERGY PREDICTED BY IDOCK:    0.55 KCAL/MOL
REMARK 923 INTER-LIGAND FREE ENERGY PREDICTED BY IDOCK:    0.01 KCAL/MOL
REMARK 924 INTRA-LIGAND FREE ENERGY PREDICTED BY IDOCK:    0.53 KCAL/MOL
REMARK 927      BINDING AFFINITY PREDICTED BY RF-SCORE:    0.00 PKD
ROOT
HETATM    1  C   UNL     1     -11.652   8.476  67.116  1.00  0.00     2.562 C  
HETATM    2  O   UNL     1     -10.531   9.340  67.248  1.00  0.00    -0.252 OA 
ENDROOT
BRANCH   2   3
HETATM    3  N   UNL     1     -10.845  10.348  68.166  1.00  0.00    -0.243 NA 
HETATM    4  H   UNL     1     -11.439  10.206  68.983  1.00  0.00     0.000 HD 
BRANCH   3   5
HETATM    5  C   UNL     1     -10.293  11.492  67.860  1.00  0.00    -0.183 C  
BRANCH   5   6
HETATM    6  C   UNL     1      -9.590  12.418  68.879  1.00  0.00     0.205 C  
HETATM    7  H   UNL     1     -11.122  13.817  68.692  1.00  0.00     0.000 HD 
HETATM    8  O   UNL     1      -8.537  12.103  69.417  1.00  0.00     0.646 OA 
HETATM    9  N   UNL     1     -10.190  13.651  69.071  1.00  0.00    -0.070 N  
BRANCH   9  10
HETATM   10  CA  UNL     1      -9.502  14.745  69.819  1.00  0.00     0.281 C  
HETATM   11  N   UNL     1      -9.071  16.639  69.083  1.00  0.00    -0.211 N  
HETATM   12  C   UNL     1     -10.173  16.161  69.703  1.00  0.00    -0.243 C  
HETATM   13  C   UNL     1      -8.276  15.436  69.164  1.00  0.00    -0.243 C  
HETATM   14  O   UNL     1     -11.281  16.593  69.904  1.00  0.00    -0.239 OA 
HETATM   15  S   UNL     1      -7.838  14.999  67.465  1.00  0.00    -0.197 SA 
HETATM   16  C   UNL     1      -6.906  16.526  67.236  1.00  0.00    -0.177 C  
HETATM   17  C   UNL     1      -7.614  17.804  67.626  1.00  0.00    -0.215 C  
HETATM   18  CA  UNL     1      -8.662  17.810  68.500  1.00  0.00    -0.283 C  
HETATM   19  O   UNL     1      -9.520  19.327  70.145  1.00  0.00     0.615 OA 
HETATM   20  C   UNL     1      -9.375  19.158  68.904  1.00  0.00    -0.341 C  
HETATM   21  OXT UNL     1      -9.549  19.959  67.938  1.00  0.00    -0.349 OA 
BRANCH  17  22
HETATM   22  C   UNL     1      -6.954  19.077  67.092  1.00  0.00    -0.203 C  
BRANCH  22  23
HETATM   23  N   UNL     1      -7.267  19.585  65.635  1.00  0.00    -0.294 N  
HETATM   24  C   UNL     1      -6.750  18.756  64.475  1.00  0.00     1.073 C  
HETATM   25  C   UNL     1      -8.768  19.819  65.532  1.00  0.00     0.474 C  
HETATM   26  C   UNL     1      -5.261  19.013  64.494  1.00  0.00    -0.239 C  
HETATM   27  C   UNL     1      -5.211  20.520  64.670  1.00  0.00    -0.211 C  
HETATM   28  C   UNL     1      -6.498  20.910  65.413  1.00  0.00    -0.151 C  
ENDBRANCH  22  23
ENDBRANCH  17  22
ENDBRANCH   9  10
ENDBRANCH   5   6
BRANCH   5  29
HETATM   29  C   UNL     1     -10.357  11.870  66.445  1.00  0.00    -0.219 A  
HETATM   30  S   UNL     1     -10.999  12.947  64.225  1.00  0.00    -0.413 SA 
HETATM   31  C   UNL     1     -11.219  12.818  65.919  1.00  0.00    -0.300 A  
HETATM   32  H2  UNL     1      -9.360  11.759  62.300  1.00  0.00     0.000 HD 
HETATM   33  H1  UNL     1      -8.385  10.642  63.247  1.00  0.00     0.000 HD 
HETATM   34  C   UNL     1      -9.768  11.757  64.301  1.00  0.00    -0.146 A  
HETATM   35  N   UNL     1      -9.117  11.350  63.202  1.00  0.00    -0.198 NA 
HETATM   36  N   UNL     1      -9.514  11.286  65.497  1.00  0.00    -0.225 NA 
ENDBRANCH   5  29
ENDBRANCH   3   5
ENDBRANCH   2   3
TORSDOF 7
ENDMDL
MODEL      177
REMARK 921   NORMALIZED FREE ENERGY PREDICTED BY IDOCK:    2.67 KCAL/MOL
REMARK 922        TOTAL FREE ENERGY PREDICTED BY IDOCK:    2.64 KCAL/MOL
REMARK 923 INTER-LIGAND FREE ENERGY PREDICTED BY IDOCK:   -5.47 KCAL/MOL
REMARK 924 INTRA-LIGAND FREE ENERGY PREDICTED BY IDOCK:    8.11 KCAL/MOL
REMARK 927      BINDING AFFINITY PREDICTED BY RF-SCORE:    0.00 PKD
ROOT
HETATM    1  C   UNL     1     -11.366  15.310  71.775  1.00  0.00    -0.371 C  
HETATM    2  O   UNL     1     -12.609  14.621  71.716  1.00  0.00    -0.314 OA 
ENDROOT
BRANCH   2   3
HETATM    3  N   UNL     1     -13.045  14.593  70.386  1.00  0.00    -0.562 NA 
HETATM    4  H   UNL     1     -14.026  14.614  70.111  1.00  0.00     0.000 HD 
BRANCH   3   5
HETATM    5  C   UNL     1     -12.054  14.535  69.537  1.00  0.00    -0.306 C  
BRANCH   5   6
HETATM    6  C   UNL     1     -11.615  13.250  68.798  1.00  0.00    -0.312 C  
HETATM    7  H   UNL     1     -12.800  12.096  70.064  1.00  0.00     0.000 HD 
HETATM    8  O   UNL     1     -10.853  13.285  67.842  1.00  0.00    -0.234 OA 
HETATM    9  N   UNL     1     -12.077  12.065  69.345  1.00  0.00    -0.246 N  
BRANCH   9  10
HETATM   10  CA  UNL     1     -11.541  10.743  68.906  1.00  0.00    -0.291 C  
HETATM   11  N   UNL     1      -9.702  10.416  67.999  1.00  0.00    -0.149 N  
HETATM   12  C   UNL     1     -10.047  10.460  69.304  1.00  0.00    -0.230 C  
HETATM   13  C   UNL     1     -11.026  10.597  67.450  1.00  0.00    -0.298 C  
HETATM   14  O   UNL     1      -9.429  10.473  70.340  1.00  0.00     0.488 OA 
HETATM   15  S   UNL     1     -10.947  12.070  66.404  1.00  0.00    -0.309 SA 
HETATM   16  C   UNL     1      -9.748  11.307  65.294  1.00  0.00    -0.239 C  
HETATM   17  C   UNL     1      -8.545  10.668  65.948  1.00  0.00    -0.177 C  
HETATM   18  CA  UNL     1      -8.558  10.274  67.256  1.00  0.00    -0.125 C  
HETATM   19  O   UNL     1      -7.535   8.527  68.535  1.00  0.00    -0.090 OA 
HETATM   20  C   UNL     1      -7.295   9.597  67.913  1.00  0.00    -0.082 C  
HETATM   21  OXT UNL     1      -6.193  10.128  67.581  1.00  0.00    -0.057 OA 
BRANCH  17  22
HETATM   22  C   UNL     1      -7.395  10.360  64.988  1.00  0.00    -0.070 C  
BRANCH  22  23
HETATM   23  N   UNL     1      -7.670   9.608  63.632  1.00  0.00    -0.122 N  
HETATM   24  C   UNL     1      -8.570   8.387  63.674  1.00  0.00     0.129 C  
HETATM   25  C   UNL     1      -8.163  10.633  62.618  1.00  0.00    -0.170 C  
HETATM   26  C   UNL     1      -7.713   7.341  64.348  1.00  0.00    -0.120 C  
HETATM   27  C   UNL     1      -6.390   7.512  63.622  1.00  0.00    -0.053 C  
HETATM   28  C   UNL     1      -6.340   8.974  63.156  1.00  0.00    -0.090 C  
ENDBRANCH  22  23
ENDBRANCH  17  22
ENDBRANCH   9  10
ENDBRANCH   5   6
BRANCH   5  29
HETATM   29  C   UNL     1     -11.353  15.800  69.291  1.00  0.00    -0.350 A  
HETATM   30  S   UNL     1     -10.071  17.985  69.580  1.00  0.00     0.422 SA 
HETATM   31  C   UNL     1     -10.759  16.577  70.272  1.00  0.00    -0.081 A  
HETATM   32  H2  UNL     1      -9.839  19.076  67.018  1.00  0.00     0.000 HD 
HETATM   33  H1  UNL     1     -10.650  17.885  66.007  1.00  0.00     0.000 HD 
HETATM   34  C   UNL     1     -10.587  17.466  68.029  1.00  0.00    -0.389 A  
HETATM   35  N   UNL     1     -10.343  18.193  66.929  1.00  0.00    -0.365 NA 
HETATM   36  N   UNL     1     -11.223  16.321  68.002  1.00  0.00    -0.306 NA 
ENDBRANCH   5  29
ENDBRANCH   3   5
ENDBRANCH   2   3
TORSDOF 7
ENDMDL
MODEL      178
REMARK 921   NORMALIZED FREE ENERGY PREDICTED BY IDOCK:    4.69 KCAL/MOL
REMARK 922        TOTAL FREE ENERGY PREDICTED BY IDOCK:    5.49 KCAL/MOL
REMARK 923 INTER-LIGAND FREE ENERGY PREDICTED BY IDOCK:    3.77 KCAL/MOL
REMARK 924 INTRA-LIGAND FREE ENERGY PREDICTED BY IDOCK:    1.71 KCAL/MOL
REMARK 927      BINDING AFFINITY PREDICTED BY RF-SCORE:    0.00 PKD
ROOT
HETATM    1  C   UNL     1     -10.046  18.717  72.729  1.00  0.00     5.260 C  
HETATM    2  O   UNL     1     -10.354  18.823  71.345  1.00  0.00     2.179 OA 
ENDROOT
BRANCH   2   3
HETATM    3  N   UNL     1     -10.806  17.580  70.888  1.00  0.00     0.659 NA 
HETATM    4  H   UNL     1     -11.414  16.964  71.428  1.00  0.00     0.000 HD 
BRANCH   3   5
HETATM    5  C   UNL     1     -10.363  17.296  69.692  1.00  0.00     0.042 C  
BRANCH   5   6
HETATM    6  C   UNL     1     -10.926  16.165  68.802  1.00  0.00    -0.330 C  
HETATM    7  H   UNL     1      -9.757  14.765  69.808  1.00  0.00     0.000 HD 
HETATM    8  O   UNL     1     -11.762  16.382  67.935  1.00  0.00    -0.007 OA 
HETATM    9  N   UNL     1     -10.359  14.917  68.999  1.00  0.00    -0.240 N  
BRANCH   9  10
HETATM   10  CA  UNL     1     -10.609  13.789  68.054  1.00  0.00    -0.252 C  
HETATM   11  N   UNL     1      -9.717  11.914  68.135  1.00  0.00    -0.189 N  
HETATM   12  C   UNL     1     -10.835  12.388  68.729  1.00  0.00    -0.226 C  
HETATM   13  C   UNL     1      -9.391  13.102  67.380  1.00  0.00    -0.213 C  
HETATM   14  O   UNL     1     -11.582  11.966  69.577  1.00  0.00    -0.290 OA 
HETATM   15  S   UNL     1      -7.726  13.589  67.890  1.00  0.00    -0.172 SA 
HETATM   16  C   UNL     1      -7.008  12.057  67.267  1.00  0.00    -0.146 C  
HETATM   17  C   UNL     1      -7.686  10.777  67.701  1.00  0.00    -0.104 C  
HETATM   18  CA  UNL     1      -8.982  10.757  68.131  1.00  0.00    -0.140 C  
HETATM   19  O   UNL     1     -10.800   9.199  68.039  1.00  0.00    -0.185 OA 
HETATM   20  C   UNL     1      -9.674   9.408  68.565  1.00  0.00    -0.149 C  
HETATM   21  OXT UNL     1      -8.928   8.642  69.246  1.00  0.00    -0.142 OA 
BRANCH  17  22
HETATM   22  C   UNL     1      -6.859   9.513  67.462  1.00  0.00    -0.083 C  
BRANCH  22  23
HETATM   23  N   UNL     1      -7.366   8.405  66.465  1.00  0.00    -0.080 N  
HETATM   24  C   UNL     1      -6.341   7.761  65.550  1.00  0.00    -0.042 C  
HETATM   25  C   UNL     1      -8.131   7.364  67.270  1.00  0.00    -0.112 C  
HETATM   26  C   UNL     1      -6.032   8.848  64.547  1.00  0.00    -0.065 C  
HETATM   27  C   UNL     1      -7.421   9.352  64.199  1.00  0.00    -0.113 C  
HETATM   28  C   UNL     1      -8.299   9.080  65.431  1.00  0.00    -0.144 C  
ENDBRANCH  22  23
ENDBRANCH  17  22
ENDBRANCH   9  10
ENDBRANCH   5   6
BRANCH   5  29
HETATM   29  C   UNL     1      -9.270  18.143  69.202  1.00  0.00     0.069 A  
HETATM   30  S   UNL     1      -7.904  20.095  68.296  1.00  0.00    -0.057 SA 
HETATM   31  C   UNL     1      -9.405  19.472  68.838  1.00  0.00    -0.334 A  
HETATM   32  H2  UNL     1      -5.303  19.123  67.982  1.00  0.00     0.000 HD 
HETATM   33  H1  UNL     1      -5.436  17.456  68.531  1.00  0.00     0.000 HD 
HETATM   34  C   UNL     1      -7.173  18.573  68.595  1.00  0.00    -0.287 A  
HETATM   35  N   UNL     1      -5.871  18.361  68.353  1.00  0.00    -0.179 NA 
HETATM   36  N   UNL     1      -7.970  17.651  69.074  1.00  0.00    -0.153 NA 
ENDBRANCH   5  29
ENDBRANCH   3   5
ENDBRANCH   2   3
TORSDOF 7
ENDMDL
MODEL      179
REMARK 921   NORMALIZED FREE ENERGY PREDICTED BY IDOCK:    6.47 KCAL/MOL
REMARK 922        TOTAL FREE ENERGY PREDICTED BY IDOCK:    8.00 KCAL/MOL
REMARK 923 INTER-LIGAND FREE ENERGY PREDICTED BY IDOCK:    6.94 KCAL/MOL
REMARK 924 INTRA-LIGAND FREE ENERGY PREDICTED BY IDOCK:    1.06 KCAL/MOL
REMARK 927      BINDING AFFINITY PREDICTED BY RF-SCORE:    0.00 PKD
ROOT
HETATM    1  C   UNL     1      -9.877   9.208  62.379  1.00  0.00     1.736 C  
HETATM    2  O   UNL     1      -9.987  10.301  63.282  1.00  0.00    -0.186 OA 
ENDROOT
BRANCH   2   3
HETATM    3  N   UNL     1      -9.245  10.011  64.433  1.00  0.00    -0.248 NA 
HETATM    4  H   UNL     1      -8.641   9.195  64.527  1.00  0.00     0.000 HD 
BRANCH   3   5
HETATM    5  C   UNL     1      -9.411  10.903  65.372  1.00  0.00    -0.214 C  
BRANCH   5   6
HETATM    6  C   UNL     1     -10.296  12.163  65.229  1.00  0.00    -0.277 C  
HETATM    7  H   UNL     1      -9.190  13.131  66.704  1.00  0.00     0.000 HD 
HETATM    8  O   UNL     1     -11.211  12.219  64.418  1.00  0.00    -0.304 OA 
HETATM    9  N   UNL     1     -10.033  13.178  66.133  1.00  0.00    -0.287 N  
BRANCH   9  10
HETATM   10  CA  UNL     1     -10.956  14.341  66.290  1.00  0.00    -0.317 C  
HETATM   11  N   UNL     1     -11.093  15.568  67.959  1.00  0.00    -0.311 N  
HETATM   12  C   UNL     1     -10.298  15.645  66.870  1.00  0.00    -0.293 C  
HETATM   13  C   UNL     1     -11.855  14.410  67.553  1.00  0.00    -0.386 C  
HETATM   14  O   UNL     1      -9.347  16.321  66.566  1.00  0.00    -0.233 OA 
HETATM   15  S   UNL     1     -11.627  13.170  68.850  1.00  0.00    -0.330 SA 
HETATM   16  C   UNL     1     -12.416  14.216  70.089  1.00  0.00    -0.331 C  
HETATM   17  C   UNL     1     -11.912  15.639  70.180  1.00  0.00    -0.387 C  
HETATM   18  CA  UNL     1     -11.263  16.242  69.141  1.00  0.00    -0.309 C  
HETATM   19  O   UNL     1     -11.087  18.474  68.289  1.00  0.00     0.114 OA 
HETATM   20  C   UNL     1     -10.759  17.732  69.254  1.00  0.00     0.347 C  
HETATM   21  OXT UNL     1     -10.244  18.019  70.376  1.00  0.00     1.017 OA 
BRANCH  17  22
HETATM   22  C   UNL     1     -12.333  16.376  71.452  1.00  0.00     0.324 C  
BRANCH  22  23
HETATM   23  N   UNL     1     -11.650  16.041  72.831  1.00  0.00    -0.291 N  
HETATM   24  C   UNL     1     -10.554  14.991  72.835  1.00  0.00     2.593 C  
HETATM   25  C   UNL     1     -11.175  17.349  73.449  1.00  0.00     1.787 C  
HETATM   26  C   UNL     1     -11.305  13.697  72.631  1.00  0.00     3.787 C  
HETATM   27  C   UNL     1     -12.462  13.855  73.601  1.00  0.00     1.226 C  
HETATM   28  C   UNL     1     -12.705  15.366  73.739  1.00  0.00    -0.583 C  
ENDBRANCH  22  23
ENDBRANCH  17  22
ENDBRANCH   9  10
ENDBRANCH   5   6
BRANCH   5  29
HETATM   29  C   UNL     1      -8.705  10.640  66.631  1.00  0.00    -0.140 A  
HETATM   30  S   UNL     1      -7.757   9.527  68.719  1.00  0.00    -0.081 SA 
HETATM   31  C   UNL     1      -8.657   9.411  67.266  1.00  0.00    -0.128 A  
HETATM   32  H2  UNL     1      -6.377  11.533  70.091  1.00  0.00     0.000 HD 
HETATM   33  H1  UNL     1      -6.594  12.940  69.056  1.00  0.00     0.000 HD 
HETATM   34  C   UNL     1      -7.475  11.189  68.403  1.00  0.00    -0.102 A  
HETATM   35  N   UNL     1      -6.761  11.951  69.243  1.00  0.00    -0.107 NA 
HETATM   36  N   UNL     1      -7.999  11.646  67.293  1.00  0.00    -0.149 NA 
ENDBRANCH   5  29
ENDBRANCH   3   5
ENDBRANCH   2   3
TORSDOF 7
ENDMDL
MODEL      180
REMARK 921   NORMALIZED FREE ENERGY PREDICTED BY IDOCK:    9.75 KCAL/MOL
REMARK 922        TOTAL FREE ENERGY PREDICTED BY IDOCK:   12.63 KCAL/MOL
REMARK 923 INTER-LIGAND FREE ENERGY PREDICTED BY IDOCK:    9.38 KCAL/MOL
REMARK 924 INTRA-LIGAND FREE ENERGY PREDICTED BY IDOCK:    3.25 KCAL/MOL
REMARK 927      BINDING AFFINITY PREDICTED BY RF-SCORE:    0.00 PKD
ROOT
HETATM    1  C   UNL     1     -10.685  15.659  64.944  1.00  0.00    -0.382 C  
HETATM    2  O   UNL     1     -11.736  14.702  64.959  1.00  0.00    -0.364 OA 
ENDROOT
BRANCH   2   3
HETATM    3  N   UNL     1     -11.729  14.045  66.195  1.00  0.00    -0.367 NA 
HETATM    4  H   UNL     1     -12.419  14.209  66.927  1.00  0.00     0.000 HD 
BRANCH   3   5
HETATM    5  C   UNL     1     -10.739  13.200  66.305  1.00  0.00    -0.284 C  
BRANCH   5   6
HETATM    6  C   UNL     1     -10.791  11.733  65.822  1.00  0.00    -0.291 C  
HETATM    7  H   UNL     1      -9.903  11.098  67.596  1.00  0.00     0.000 HD 
HETATM    8  O   UNL     1     -11.273  11.427  64.740  1.00  0.00    -0.238 OA 
HETATM    9  N   UNL     1     -10.183  10.812  66.658  1.00  0.00    -0.225 N  
BRANCH   9  10
HETATM   10  CA  UNL     1      -9.926   9.409  66.217  1.00  0.00    -0.283 C  
HETATM   11  N   UNL     1     -10.225   7.700  67.360  1.00  0.00    -0.224 N  
HETATM   12  C   UNL     1     -11.067   8.382  66.552  1.00  0.00     1.383 C  
HETATM   13  C   UNL     1      -9.046   8.498  67.115  1.00  0.00    -0.140 C  
HETATM   14  O   UNL     1     -12.252   8.332  66.335  1.00  0.00     6.270 OA 
HETATM   15  S   UNL     1      -8.510   9.122  68.725  1.00  0.00    -0.131 SA 
HETATM   16  C   UNL     1      -8.200   7.458  69.348  1.00  0.00    -0.131 C  
HETATM   17  C   UNL     1      -9.316   6.456  69.158  1.00  0.00    -0.132 C  
HETATM   18  CA  UNL     1     -10.280   6.622  68.205  1.00  0.00    -0.170 C  
HETATM   19  O   UNL     1     -11.600   5.175  66.826  1.00  0.00     1.380 OA 
HETATM   20  C   UNL     1     -11.426   5.556  68.015  1.00  0.00     1.648 C  
HETATM   21  OXT UNL     1     -11.896   5.104  69.102  1.00  0.00     3.143 OA 
BRANCH  17  22
HETATM   22  C   UNL     1      -9.174   5.188  70.000  1.00  0.00    -0.134 C  
BRANCH  22  23
HETATM   23  N   UNL     1      -7.757   4.541  70.234  1.00  0.00    -0.056 N  
HETATM   24  C   UNL     1      -7.308   4.335  71.669  1.00  0.00    -0.056 C  
HETATM   25  C   UNL     1      -7.694   3.246  69.435  1.00  0.00    -0.050 C  
HETATM   26  C   UNL     1      -7.003   5.735  72.147  1.00  0.00    -0.082 C  
HETATM   27  C   UNL     1      -6.207   6.294  70.981  1.00  0.00    -0.039 C  
HETATM   28  C   UNL     1      -6.685   5.538  69.732  1.00  0.00    -0.051 C  
ENDBRANCH  22  23
ENDBRANCH  17  22
ENDBRANCH   9  10
ENDBRANCH   5   6
BRANCH   5  29
HETATM   29  C   UNL     1      -9.517  13.730  66.919  1.00  0.00    -0.262 A  
HETATM   30  S   UNL     1      -7.414  15.083  67.413  1.00  0.00    -0.188 SA 
HETATM   31  C   UNL     1      -8.782  14.794  66.424  1.00  0.00    -0.027 A  
HETATM   32  H2  UNL     1      -6.324  13.977  69.736  1.00  0.00     0.000 HD 
HETATM   33  H1  UNL     1      -7.459  12.691  70.130  1.00  0.00     0.000 HD 
HETATM   34  C   UNL     1      -7.893  13.796  68.439  1.00  0.00    -0.143 A  
HETATM   35  N   UNL     1      -7.175  13.457  69.520  1.00  0.00     0.203 NA 
HETATM   36  N   UNL     1      -8.997  13.183  68.094  1.00  0.00    -0.193 NA 
ENDBRANCH   5  29
ENDBRANCH   3   5
ENDBRANCH   2   3
TORSDOF 7
ENDMDL
MODEL      181
REMARK 921   NORMALIZED FREE ENERGY PREDICTED BY IDOCK:   31.05 KCAL/MOL
REMARK 922        TOTAL FREE ENERGY PREDICTED BY IDOCK:   42.64 KCAL/MOL
REMARK 923 INTER-LIGAND FREE ENERGY PREDICTED BY IDOCK:   31.29 KCAL/MOL
REMARK 924 INTRA-LIGAND FREE ENERGY PREDICTED BY IDOCK:   11.35 KCAL/MOL
REMARK 927      BINDING AFFINITY PREDICTED BY RF-SCORE:    0.00 PKD
ROOT
HETATM    1  C   UNL     1      -7.649   9.198  62.910  1.00  0.00    -0.104 C  
HETATM    2  O   UNL     1      -7.159   9.840  64.080  1.00  0.00    -0.115 OA 
ENDROOT
BRANCH   2   3
HETATM    3  N   UNL     1      -7.918   9.417  65.177  1.00  0.00    -0.112 NA 
HETATM    4  H   UNL     1      -7.993   8.444  65.472  1.00  0.00     0.000 HD 
BRANCH   3   5
HETATM    5  C   UNL     1      -8.521  10.407  65.780  1.00  0.00    -0.166 C  
BRANCH   5   6
HETATM    6  C   UNL     1      -8.907  10.408  67.276  1.00  0.00    -0.132 C  
HETATM    7  H   UNL     1      -8.830  12.489  67.314  1.00  0.00     0.000 HD 
HETATM    8  O   UNL     1      -9.126   9.370  67.886  1.00  0.00    -0.130 OA 
HETATM    9  N   UNL     1      -8.903  11.650  67.889  1.00  0.00    -0.149 N  
BRANCH   9  10
HETATM   10  CA  UNL     1      -9.003  11.789  69.372  1.00  0.00     0.866 C  
HETATM   11  N   UNL     1     -10.451  12.866  70.399  1.00  0.00     2.361 N  
HETATM   12  C   UNL     1     -10.442  11.585  69.968  1.00  0.00     0.904 C  
HETATM   13  C   UNL     1      -9.113  13.213  69.979  1.00  0.00     3.342 C  
HETATM   14  O   UNL     1     -11.272  10.713  69.900  1.00  0.00    -0.267 OA 
HETATM   15  S   UNL     1      -9.279  14.624  68.859  1.00  0.00    -0.104 SA 
HETATM   16  C   UNL     1      -9.975  15.664  70.158  1.00  0.00    -0.036 C  
HETATM   17  C   UNL     1     -11.119  15.070  70.947  1.00  0.00    -0.225 C  
HETATM   18  CA  UNL     1     -11.323  13.722  71.019  1.00  0.00     0.980 C  
HETATM   19  O   UNL     1     -12.190  12.200  72.653  1.00  0.00     1.631 OA 
HETATM   20  C   UNL     1     -12.515  13.125  71.862  1.00  0.00     0.140 C  
HETATM   21  OXT UNL     1     -13.600  13.772  71.751  1.00  0.00    -0.364 OA 
BRANCH  17  22
HETATM   22  C   UNL     1     -11.908  16.087  71.774  1.00  0.00    -0.519 C  
BRANCH  22  23
HETATM   23  N   UNL     1     -13.456  15.905  71.996  1.00  0.00    -0.346 N  
HETATM   24  C   UNL     1     -14.243  17.107  72.484  1.00  0.00     5.381 C  
HETATM   25  C   UNL     1     -14.049  15.328  70.717  1.00  0.00     0.075 C  
HETATM   26  C   UNL     1     -13.818  17.244  73.927  1.00  0.00     3.038 C  
HETATM   27  C   UNL     1     -13.898  15.807  74.410  1.00  0.00     3.113 C  
HETATM   28  C   UNL     1     -13.660  14.924  73.176  1.00  0.00    -0.158 C  
ENDBRANCH  22  23
ENDBRANCH  17  22
ENDBRANCH   9  10
ENDBRANCH   5   6
BRANCH   5  29
HETATM   29  C   UNL     1      -8.814  11.576  64.944  1.00  0.00     0.294 A  
HETATM   30  S   UNL     1      -8.775  13.344  63.108  1.00  0.00    10.065 SA 
HETATM   31  C   UNL     1      -8.156  11.890  63.766  1.00  0.00     2.231 A  
HETATM   32  H2  UNL     1     -10.752  15.197  63.793  1.00  0.00     0.000 HD 
HETATM   33  H1  UNL     1     -11.411  14.536  65.285  1.00  0.00     0.000 HD 
HETATM   34  C   UNL     1      -9.884  13.454  64.411  1.00  0.00     0.282 A  
HETATM   35  N   UNL     1     -10.752  14.471  64.510  1.00  0.00    -0.291 NA 
HETATM   36  N   UNL     1      -9.822  12.480  65.285  1.00  0.00    -0.194 NA 
ENDBRANCH   5  29
ENDBRANCH   3   5
ENDBRANCH   2   3
TORSDOF 7
ENDMDL
