MODEL        1
REMARK 921   NORMALIZED FREE ENERGY PREDICTED BY IDOCK:   -7.41 KCAL/MOL
REMARK 922        TOTAL FREE ENERGY PREDICTED BY IDOCK:  -15.60 KCAL/MOL
REMARK 923 INTER-LIGAND FREE ENERGY PREDICTED BY IDOCK:  -12.17 KCAL/MOL
REMARK 924 INTRA-LIGAND FREE ENERGY PREDICTED BY IDOCK:   -3.43 KCAL/MOL
REMARK 927      BINDING AFFINITY PREDICTED BY RF-SCORE:    0.00 PKD
ROOT
HETATM    1  C   UNL     1      -5.931  11.244  68.113  1.00  0.00    -0.045 C  
HETATM    2  S   UNL     1      -7.013  11.271  69.550  1.00  0.00    -0.043 SA 
HETATM    3  C   UNL     1      -6.722   9.559  69.987  1.00  0.00    -0.070 C  
HETATM    4  C   UNL     1      -6.797   8.527  68.888  1.00  0.00    -0.061 C  
HETATM    5  CA  UNL     1      -6.452   8.836  67.598  1.00  0.00    -0.061 C  
HETATM    6  O   UNL     1      -6.551  10.614  64.922  1.00  0.00    -0.044 OA 
HETATM    7  C   UNL     1      -6.204   7.710  66.482  1.00  0.00    -0.045 C  
HETATM    8  CA  UNL     1      -6.337  12.181  66.939  1.00  0.00    -0.007 C  
HETATM    9  N   UNL     1      -6.232  10.142  67.243  1.00  0.00    -0.058 N  
HETATM   10  C   UNL     1      -6.343  10.855  66.102  1.00  0.00    -0.123 C  
HETATM   11  O   UNL     1      -5.240   7.961  65.707  1.00  0.00    -0.028 OA 
HETATM   12  OXT UNL     1      -6.831   6.625  66.652  1.00  0.00    -0.058 OA 
ENDROOT
BRANCH   4  13
HETATM   13  C   UNL     1      -7.208   7.101  69.256  1.00  0.00    -0.085 C  
BRANCH  13  14
HETATM   14  N   UNL     1      -8.752   6.678  69.331  1.00  0.00    -0.134 N  
HETATM   15  C   UNL     1      -8.788   4.998  71.050  1.00  0.00    -0.153 C  
HETATM   16  C   UNL     1      -8.859   5.268  68.661  1.00  0.00    -0.096 C  
HETATM   17  C   UNL     1      -9.184   4.288  69.783  1.00  0.00    -0.207 C  
HETATM   18  C   UNL     1      -9.188   6.433  70.766  1.00  0.00    -0.158 C  
BRANCH  14  19
HETATM   19  C   UNL     1      -9.507   7.730  68.449  1.00  0.00    -0.147 C  
BRANCH  19  20
HETATM   20  C   UNL     1     -10.982   8.018  68.834  1.00  0.00     0.149 C  
BRANCH  20  21
HETATM   21  N   UNL     1     -11.403   9.426  68.984  1.00  0.00    -0.441 N  
HETATM   22  C   UNL     1     -11.128  10.231  70.073  1.00  0.00    -0.311 C  
HETATM   23  O   UNL     1     -10.310   9.882  70.914  1.00  0.00    -0.253 OA 
HETATM   24  H   UNL     1     -11.940   9.839  68.220  1.00  0.00     0.000 HD 
BRANCH  22  25
HETATM   25  C   UNL     1     -11.890  11.519  70.285  1.00  0.00    -0.431 A  
HETATM   26  C   UNL     1     -12.855  11.750  71.283  1.00  0.00    -0.308 A  
HETATM   27  C   UNL     1     -11.419  12.634  69.547  1.00  0.00    -0.294 A  
HETATM   28  H   UNL     1     -12.753  16.156  70.691  1.00  0.00     0.000 HD 
HETATM   29  C   UNL     1     -11.865  13.936  69.811  1.00  0.00    -0.390 A  
HETATM   30  O   UNL     1     -13.094  15.421  71.188  1.00  0.00    -0.438 OA 
HETATM   31  H   UNL     1     -14.380  14.265  72.802  1.00  0.00     0.000 HD 
HETATM   32  C   UNL     1     -13.271  13.066  71.562  1.00  0.00    -0.272 A  
HETATM   33 CL   UNL     1     -13.481  10.509  72.320  1.00  0.00    -0.323 Cl 
HETATM   34  C   UNL     1     -12.771  14.143  70.834  1.00  0.00    -0.361 A  
HETATM   35  O   UNL     1     -14.100  13.377  72.614  1.00  0.00    -0.767 OA 
ENDBRANCH  22  25
ENDBRANCH  20  21
ENDBRANCH  19  20
ENDBRANCH  14  19
ENDBRANCH  13  14
ENDBRANCH   4  13
BRANCH   8  36
HETATM   36  N   UNL     1      -7.642  12.931  67.074  1.00  0.00    -0.389 N  
HETATM   37  H   UNL     1      -8.508  12.396  67.147  1.00  0.00     0.000 HD 
HETATM   38  C   UNL     1      -7.714  14.315  67.102  1.00  0.00    -0.017 C  
HETATM   39  O   UNL     1      -6.780  15.093  67.196  1.00  0.00    -0.279 OA 
BRANCH  38  40
HETATM   40  C   UNL     1      -9.099  14.899  66.992  1.00  0.00    -0.237 C  
BRANCH  40  41
HETATM   41  C   UNL     1      -9.361  16.316  67.120  1.00  0.00    -0.222 A  
HETATM   42  H2  UNL     1     -10.608  20.151  65.852  1.00  0.00     0.000 HD 
HETATM   43  C   UNL     1     -10.051  18.254  66.364  1.00  0.00    -0.396 A  
HETATM   44  C   UNL     1      -9.753  16.896  68.318  1.00  0.00    -0.256 A  
HETATM   45  H1  UNL     1      -9.819  19.253  64.564  1.00  0.00     0.000 HD 
HETATM   46  S   UNL     1     -10.629  18.323  67.972  1.00  0.00    -0.263 SA 
HETATM   47  N   UNL     1     -10.164  19.294  65.522  1.00  0.00    -0.378 NA 
HETATM   48  N   UNL     1      -9.455  17.146  66.019  1.00  0.00    -0.495 NA 
ENDBRANCH  40  41
BRANCH  40  49
HETATM   49  N   UNL     1     -10.174  14.243  66.683  1.00  0.00    -0.267 NA 
HETATM   50  H   UNL     1     -10.951  14.151  67.337  1.00  0.00     0.000 HD 
BRANCH  49  51
HETATM   51  O   UNL     1     -10.216  13.672  65.422  1.00  0.00    -0.310 OA 
HETATM   52  O   UNL     1     -12.596  12.144  63.316  1.00  0.00    -0.641 OA 
HETATM   53  C   UNL     1     -12.669  13.885  65.616  1.00  0.00    -0.534 C  
HETATM   54  O   UNL     1     -10.358  12.426  63.236  1.00  0.00    -0.376 OA 
HETATM   55  C   UNL     1     -11.447  11.755  66.251  1.00  0.00    -0.296 C  
HETATM   56  C   UNL     1     -11.558  12.477  63.871  1.00  0.00    -0.442 C  
HETATM   57  C   UNL     1     -11.473  12.965  65.315  1.00  0.00    -0.313 C  
ENDBRANCH  49  51
ENDBRANCH  40  49
ENDBRANCH  38  40
ENDBRANCH   8  36
TORSDOF 11
ENDMDL
MODEL        2
REMARK 921   NORMALIZED FREE ENERGY PREDICTED BY IDOCK:   -7.40 KCAL/MOL
REMARK 922        TOTAL FREE ENERGY PREDICTED BY IDOCK:  -15.59 KCAL/MOL
REMARK 923 INTER-LIGAND FREE ENERGY PREDICTED BY IDOCK:  -12.18 KCAL/MOL
REMARK 924 INTRA-LIGAND FREE ENERGY PREDICTED BY IDOCK:   -3.41 KCAL/MOL
REMARK 927      BINDING AFFINITY PREDICTED BY RF-SCORE:    0.00 PKD
ROOT
HETATM    1  C   UNL     1      -6.956   8.907  68.127  1.00  0.00    -0.077 C  
HETATM    2  S   UNL     1      -7.175   9.762  69.694  1.00  0.00    -0.113 SA 
HETATM    3  C   UNL     1      -7.259   8.263  70.670  1.00  0.00    -0.049 C  
HETATM    4  C   UNL     1      -8.152   7.149  70.179  1.00  0.00    -0.130 C  
HETATM    5  CA  UNL     1      -8.371   6.952  68.841  1.00  0.00    -0.121 C  
HETATM    6  O   UNL     1      -9.151   7.888  65.867  1.00  0.00    -0.161 OA 
HETATM    7  C   UNL     1      -9.033   5.607  68.268  1.00  0.00    -0.114 C  
HETATM    8  CA  UNL     1      -7.550   9.617  66.876  1.00  0.00    -0.095 C  
HETATM    9  N   UNL     1      -7.951   7.889  67.934  1.00  0.00    -0.126 N  
HETATM   10  C   UNL     1      -8.354   8.281  66.706  1.00  0.00    -0.107 C  
HETATM   11  O   UNL     1      -8.516   5.201  67.190  1.00  0.00    -0.107 OA 
HETATM   12  OXT UNL     1      -9.809   4.999  69.061  1.00  0.00    -0.156 OA 
ENDROOT
BRANCH   4  13
HETATM   13  C   UNL     1      -8.761   6.198  71.210  1.00  0.00    -0.132 C  
BRANCH  13  14
HETATM   14  N   UNL     1      -9.941   6.677  72.182  1.00  0.00    -0.161 N  
HETATM   15  C   UNL     1      -8.883   6.776  74.338  1.00  0.00    -0.204 C  
HETATM   16  C   UNL     1     -10.367   5.423  73.015  1.00  0.00    -0.197 C  
HETATM   17  C   UNL     1      -9.923   5.694  74.448  1.00  0.00    -0.262 C  
HETATM   18  C   UNL     1      -9.430   7.654  73.230  1.00  0.00    -0.259 C  
BRANCH  14  19
HETATM   19  C   UNL     1     -11.114   7.090  71.228  1.00  0.00    -0.252 C  
BRANCH  19  20
HETATM   20  C   UNL     1     -12.301   7.843  71.885  1.00  0.00    -0.315 C  
BRANCH  20  21
HETATM   21  N   UNL     1     -12.209   9.312  72.019  1.00  0.00    -0.363 N  
HETATM   22  C   UNL     1     -13.165  10.214  71.595  1.00  0.00    -0.418 C  
HETATM   23  O   UNL     1     -14.281   9.831  71.266  1.00  0.00     0.064 OA 
HETATM   24  H   UNL     1     -11.370   9.691  72.460  1.00  0.00     0.000 HD 
BRANCH  22  25
HETATM   25  C   UNL     1     -12.826  11.681  71.457  1.00  0.00    -0.469 A  
HETATM   26  C   UNL     1     -12.112  12.263  70.393  1.00  0.00    -0.300 A  
HETATM   27  C   UNL     1     -13.480  12.545  72.370  1.00  0.00    -0.372 A  
HETATM   28  H   UNL     1     -13.344  16.385  71.517  1.00  0.00     0.000 HD 
HETATM   29  C   UNL     1     -13.452  13.938  72.217  1.00  0.00    -0.623 A  
HETATM   30  O   UNL     1     -12.886  15.825  70.901  1.00  0.00    -0.468 OA 
HETATM   31  H   UNL     1     -11.568  15.230  69.028  1.00  0.00     0.000 HD 
HETATM   32  C   UNL     1     -12.119  13.661  70.230  1.00  0.00    -0.357 A  
HETATM   33 CL   UNL     1     -11.317  11.348  69.153  1.00  0.00    -0.319 Cl 
HETATM   34  C   UNL     1     -12.790  14.483  71.132  1.00  0.00    -0.338 A  
HETATM   35  O   UNL     1     -11.563  14.287  69.138  1.00  0.00    -0.266 OA 
ENDBRANCH  22  25
ENDBRANCH  20  21
ENDBRANCH  19  20
ENDBRANCH  14  19
ENDBRANCH  13  14
ENDBRANCH   4  13
BRANCH   8  36
HETATM   36  N   UNL     1      -8.339  10.884  67.111  1.00  0.00    -0.123 N  
HETATM   37  H   UNL     1      -9.352  10.819  67.206  1.00  0.00     0.000 HD 
HETATM   38  C   UNL     1      -7.743  12.133  67.204  1.00  0.00    -0.151 C  
HETATM   39  O   UNL     1      -6.549  12.369  67.282  1.00  0.00    -0.150 OA 
BRANCH  38  40
HETATM   40  C   UNL     1      -8.686  13.308  67.192  1.00  0.00    -0.212 C  
BRANCH  40  41
HETATM   41  C   UNL     1      -8.243  14.667  67.417  1.00  0.00    -0.201 A  
HETATM   42  H2  UNL     1      -7.700  18.760  66.511  1.00  0.00     0.000 HD 
HETATM   43  C   UNL     1      -8.034  16.775  66.854  1.00  0.00    -0.213 A  
HETATM   44  C   UNL     1      -8.181  15.231  68.683  1.00  0.00    -0.159 A  
HETATM   45  H1  UNL     1      -7.571  17.745  65.083  1.00  0.00     0.000 HD 
HETATM   46  S   UNL     1      -8.327  16.928  68.532  1.00  0.00    -0.265 SA 
HETATM   47  N   UNL     1      -7.745  17.835  66.083  1.00  0.00    -0.435 NA 
HETATM   48  N   UNL     1      -8.065  15.561  66.377  1.00  0.00    -0.070 NA 
ENDBRANCH  40  41
BRANCH  40  49
HETATM   49  N   UNL     1      -9.947  13.263  66.893  1.00  0.00    -0.245 NA 
HETATM   50  H   UNL     1     -10.661  13.620  67.529  1.00  0.00     0.000 HD 
BRANCH  49  51
HETATM   51  O   UNL     1     -10.278  12.706  65.670  1.00  0.00    -0.267 OA 
HETATM   52  O   UNL     1     -12.323  13.487  62.904  1.00  0.00    -0.542 OA 
HETATM   53  C   UNL     1     -11.156  14.945  65.104  1.00  0.00    -0.399 C  
HETATM   54  O   UNL     1     -11.112  11.685  63.521  1.00  0.00    -0.405 OA 
HETATM   55  C   UNL     1     -12.640  13.113  66.041  1.00  0.00    -0.192 C  
HETATM   56  C   UNL     1     -11.673  12.900  63.757  1.00  0.00    -0.492 C  
HETATM   57  C   UNL     1     -11.425  13.431  65.167  1.00  0.00    -0.296 C  
ENDBRANCH  49  51
ENDBRANCH  40  49
ENDBRANCH  38  40
ENDBRANCH   8  36
TORSDOF 11
ENDMDL
MODEL        3
REMARK 921   NORMALIZED FREE ENERGY PREDICTED BY IDOCK:   -7.14 KCAL/MOL
REMARK 922        TOTAL FREE ENERGY PREDICTED BY IDOCK:  -15.16 KCAL/MOL
REMARK 923 INTER-LIGAND FREE ENERGY PREDICTED BY IDOCK:  -11.66 KCAL/MOL
REMARK 924 INTRA-LIGAND FREE ENERGY PREDICTED BY IDOCK:   -3.50 KCAL/MOL
REMARK 927      BINDING AFFINITY PREDICTED BY RF-SCORE:    0.00 PKD
ROOT
HETATM    1  C   UNL     1      -7.246   8.720  68.128  1.00  0.00    -0.083 C  
HETATM    2  S   UNL     1      -7.464   9.668  69.641  1.00  0.00    -0.118 SA 
HETATM    3  C   UNL     1      -7.513   8.232  70.709  1.00  0.00    -0.065 C  
HETATM    4  C   UNL     1      -8.391   7.075  70.298  1.00  0.00    -0.133 C  
HETATM    5  CA  UNL     1      -8.620   6.791  68.978  1.00  0.00    -0.131 C  
HETATM    6  O   UNL     1      -9.445   7.526  65.959  1.00  0.00    -0.085 OA 
HETATM    7  C   UNL     1      -9.264   5.402  68.497  1.00  0.00    -0.111 C  
HETATM    8  CA  UNL     1      -7.864   9.341  66.841  1.00  0.00    -0.098 C  
HETATM    9  N   UNL     1      -8.225   7.677  68.009  1.00  0.00    -0.123 N  
HETATM   10  C   UNL     1      -8.647   7.984  66.764  1.00  0.00    -0.130 C  
HETATM   11  O   UNL     1      -8.751   4.938  67.441  1.00  0.00    -0.105 OA 
HETATM   12  OXT UNL     1     -10.022   4.832  69.334  1.00  0.00    -0.204 OA 
ENDROOT
BRANCH   4  13
HETATM   13  C   UNL     1      -8.974   6.180  71.392  1.00  0.00    -0.143 C  
BRANCH  13  14
HETATM   14  N   UNL     1     -10.158   6.696  72.339  1.00  0.00    -0.168 N  
HETATM   15  C   UNL     1      -9.215   6.548  74.546  1.00  0.00    -0.228 C  
HETATM   16  C   UNL     1     -10.738   5.431  73.056  1.00  0.00    -0.257 C  
HETATM   17  C   UNL     1     -10.351   5.560  74.525  1.00  0.00    -0.263 C  
HETATM   18  C   UNL     1      -9.622   7.547  73.480  1.00  0.00    -0.285 C  
BRANCH  14  19
HETATM   19  C   UNL     1     -11.237   7.280  71.364  1.00  0.00    -0.248 C  
BRANCH  19  20
HETATM   20  C   UNL     1     -12.468   7.956  72.025  1.00  0.00    -0.304 C  
BRANCH  20  21
HETATM   21  N   UNL     1     -12.483   9.429  72.129  1.00  0.00    -0.349 N  
HETATM   22  C   UNL     1     -13.223  10.279  71.330  1.00  0.00    -0.370 C  
HETATM   23  O   UNL     1     -14.105   9.840  70.603  1.00  0.00     0.154 OA 
HETATM   24  H   UNL     1     -11.899   9.854  72.851  1.00  0.00     0.000 HD 
BRANCH  22  25
HETATM   25  C   UNL     1     -12.904  11.756  71.281  1.00  0.00    -0.409 A  
HETATM   26  C   UNL     1     -12.267  12.426  70.220  1.00  0.00    -0.267 A  
HETATM   27  C   UNL     1     -13.501  12.541  72.299  1.00  0.00    -0.490 A  
HETATM   28  H   UNL     1     -13.449  16.436  71.733  1.00  0.00     0.000 HD 
HETATM   29  C   UNL     1     -13.493  13.942  72.251  1.00  0.00    -0.623 A  
HETATM   30  O   UNL     1     -13.030  15.929  71.048  1.00  0.00    -0.477 OA 
HETATM   31  H   UNL     1     -11.837  15.493  69.052  1.00  0.00     0.000 HD 
HETATM   32  C   UNL     1     -12.295  13.832  70.165  1.00  0.00    -0.323 A  
HETATM   33 CL   UNL     1     -11.551  11.616  68.864  1.00  0.00    -0.341 Cl 
HETATM   34  C   UNL     1     -12.910  14.576  71.169  1.00  0.00    -0.338 A  
HETATM   35  O   UNL     1     -11.817  14.545  69.089  1.00  0.00    -0.293 OA 
ENDBRANCH  22  25
ENDBRANCH  20  21
ENDBRANCH  19  20
ENDBRANCH  14  19
ENDBRANCH  13  14
ENDBRANCH   4  13
BRANCH   8  36
HETATM   36  N   UNL     1      -8.672  10.608  67.006  1.00  0.00    -0.128 N  
HETATM   37  H   UNL     1      -9.653  10.530  67.273  1.00  0.00     0.000 HD 
HETATM   38  C   UNL     1      -8.136  11.871  66.810  1.00  0.00    -0.108 C  
HETATM   39  O   UNL     1      -6.958  12.150  66.656  1.00  0.00     0.028 OA 
BRANCH  38  40
HETATM   40  C   UNL     1      -9.130  13.003  66.772  1.00  0.00    -0.210 C  
BRANCH  40  41
HETATM   41  C   UNL     1     -10.122  13.136  65.727  1.00  0.00    -0.285 A  
HETATM   42  H2  UNL     1     -13.758  12.345  63.721  1.00  0.00     0.000 HD 
HETATM   43  C   UNL     1     -12.043  12.665  64.782  1.00  0.00    -0.436 A  
HETATM   44  C   UNL     1     -10.335  14.327  65.048  1.00  0.00    -0.421 A  
HETATM   45  H1  UNL     1     -13.100  10.907  64.487  1.00  0.00     0.000 HD 
HETATM   46  S   UNL     1     -11.942  14.342  64.463  1.00  0.00    -0.457 SA 
HETATM   47  N   UNL     1     -13.039  11.907  64.297  1.00  0.00    -0.544 NA 
HETATM   48  N   UNL     1     -11.070  12.158  65.489  1.00  0.00    -0.307 NA 
ENDBRANCH  40  41
BRANCH  40  49
HETATM   49  N   UNL     1      -9.279  13.910  67.687  1.00  0.00    -0.192 NA 
HETATM   50  H   UNL     1     -10.142  14.447  67.773  1.00  0.00     0.000 HD 
BRANCH  49  51
HETATM   51  O   UNL     1      -8.209  14.114  68.541  1.00  0.00    -0.144 OA 
HETATM   52  O   UNL     1      -6.389  16.834  69.856  1.00  0.00    -0.215 OA 
HETATM   53  C   UNL     1      -8.974  16.461  68.631  1.00  0.00    -0.233 C  
HETATM   54  O   UNL     1      -6.145  14.590  69.908  1.00  0.00    -0.119 OA 
HETATM   55  C   UNL     1      -7.188  15.688  67.004  1.00  0.00    -0.175 C  
HETATM   56  C   UNL     1      -6.725  15.730  69.450  1.00  0.00    -0.184 C  
HETATM   57  C   UNL     1      -7.801  15.494  68.393  1.00  0.00    -0.126 C  
ENDBRANCH  49  51
ENDBRANCH  40  49
ENDBRANCH  38  40
ENDBRANCH   8  36
TORSDOF 11
ENDMDL
MODEL        4
REMARK 921   NORMALIZED FREE ENERGY PREDICTED BY IDOCK:   -6.91 KCAL/MOL
REMARK 922        TOTAL FREE ENERGY PREDICTED BY IDOCK:  -14.79 KCAL/MOL
REMARK 923 INTER-LIGAND FREE ENERGY PREDICTED BY IDOCK:  -12.86 KCAL/MOL
REMARK 924 INTRA-LIGAND FREE ENERGY PREDICTED BY IDOCK:   -1.93 KCAL/MOL
REMARK 927      BINDING AFFINITY PREDICTED BY RF-SCORE:    0.00 PKD
ROOT
HETATM    1  C   UNL     1      -6.740  10.311  67.789  1.00  0.00    -0.073 C  
HETATM    2  S   UNL     1      -7.816  10.599  69.202  1.00  0.00    -0.132 SA 
HETATM    3  C   UNL     1      -7.913   8.873  69.669  1.00  0.00    -0.092 C  
HETATM    4  C   UNL     1      -8.191   7.862  68.583  1.00  0.00    -0.127 C  
HETATM    5  CA  UNL     1      -7.764   8.065  67.297  1.00  0.00    -0.101 C  
HETATM    6  O   UNL     1      -7.424   9.773  64.595  1.00  0.00    -0.122 OA 
HETATM    7  C   UNL     1      -7.747   6.892  66.202  1.00  0.00    -0.091 C  
HETATM    8  CA  UNL     1      -6.911  11.293  66.593  1.00  0.00    -0.130 C  
HETATM    9  N   UNL     1      -7.258   9.285  66.928  1.00  0.00    -0.086 N  
HETATM   10  C   UNL     1      -7.190   9.984  65.775  1.00  0.00    -0.117 C  
HETATM   11  O   UNL     1      -6.737   6.913  65.445  1.00  0.00    -0.049 OA 
HETATM   12  OXT UNL     1      -8.598   5.972  66.373  1.00  0.00    -0.121 OA 
ENDROOT
BRANCH   4  13
HETATM   13  C   UNL     1      -8.910   6.567  68.962  1.00  0.00    -0.130 C  
BRANCH  13  14
HETATM   14  N   UNL     1      -9.759   6.458  70.316  1.00  0.00    -0.167 N  
HETATM   15  C   UNL     1      -8.499   4.896  71.640  1.00  0.00    -0.124 C  
HETATM   16  C   UNL     1     -10.475   5.067  70.280  1.00  0.00    -0.173 C  
HETATM   17  C   UNL     1      -9.816   4.221  71.363  1.00  0.00    -0.260 C  
HETATM   18  C   UNL     1      -8.850   6.367  71.531  1.00  0.00    -0.137 C  
BRANCH  14  19
HETATM   19  C   UNL     1     -10.831   7.597  70.220  1.00  0.00    -0.246 C  
BRANCH  19  20
HETATM   20  C   UNL     1     -11.454   8.069  71.560  1.00  0.00    -0.264 C  
BRANCH  20  21
HETATM   21  N   UNL     1     -11.619   9.520  71.780  1.00  0.00    -0.375 N  
HETATM   22  C   UNL     1     -12.758  10.247  71.493  1.00  0.00    -0.452 C  
HETATM   23  O   UNL     1     -13.810   9.679  71.229  1.00  0.00    -0.276 OA 
HETATM   24  H   UNL     1     -10.827  10.028  72.177  1.00  0.00     0.000 HD 
BRANCH  22  25
HETATM   25  C   UNL     1     -12.706  11.757  71.422  1.00  0.00    -0.413 A  
HETATM   26  C   UNL     1     -12.052  12.512  70.431  1.00  0.00    -0.297 A  
HETATM   27  C   UNL     1     -13.576  12.438  72.310  1.00  0.00    -0.371 A  
HETATM   28  H   UNL     1     -14.142  16.264  71.582  1.00  0.00     0.000 HD 
HETATM   29  C   UNL     1     -13.813  13.815  72.200  1.00  0.00    -0.649 A  
HETATM   30  O   UNL     1     -13.543  15.830  70.985  1.00  0.00    -0.568 OA 
HETATM   31  H   UNL     1     -12.014  15.584  69.197  1.00  0.00     0.000 HD 
HETATM   32  C   UNL     1     -12.323  13.888  70.309  1.00  0.00    -0.345 A  
HETATM   33 CL   UNL     1     -11.013  11.822  69.226  1.00  0.00    -0.259 Cl 
HETATM   34  C   UNL     1     -13.201  14.524  71.183  1.00  0.00    -0.361 A  
HETATM   35  O   UNL     1     -11.830  14.656  69.279  1.00  0.00    -0.294 OA 
ENDBRANCH  22  25
ENDBRANCH  20  21
ENDBRANCH  19  20
ENDBRANCH  14  19
ENDBRANCH  13  14
ENDBRANCH   4  13
BRANCH   8  36
HETATM   36  N   UNL     1      -8.023  12.310  66.690  1.00  0.00    -0.396 N  
HETATM   37  H   UNL     1      -8.982  12.004  66.522  1.00  0.00     0.000 HD 
HETATM   38  C   UNL     1      -7.797  13.644  66.995  1.00  0.00     0.127 C  
HETATM   39  O   UNL     1      -6.752  14.137  67.384  1.00  0.00    -0.252 OA 
BRANCH  38  40
HETATM   40  C   UNL     1      -8.975  14.565  66.807  1.00  0.00    -0.246 C  
BRANCH  40  41
HETATM   41  C   UNL     1     -10.085  14.245  65.935  1.00  0.00    -0.326 A  
HETATM   42  H2  UNL     1     -12.281  11.940  63.153  1.00  0.00     0.000 HD 
HETATM   43  C   UNL     1     -11.146  12.962  64.510  1.00  0.00    -0.342 A  
HETATM   44  C   UNL     1     -11.387  14.633  66.212  1.00  0.00    -0.347 A  
HETATM   45  H1  UNL     1     -10.549  11.840  62.874  1.00  0.00     0.000 HD 
HETATM   46  S   UNL     1     -12.457  13.546  65.440  1.00  0.00    -0.488 SA 
HETATM   47  N   UNL     1     -11.330  12.188  63.428  1.00  0.00    -0.426 NA 
HETATM   48  N   UNL     1      -9.959  13.350  64.889  1.00  0.00    -0.200 NA 
ENDBRANCH  40  41
BRANCH  40  49
HETATM   49  N   UNL     1      -9.181  15.670  67.453  1.00  0.00    -0.196 NA 
HETATM   50  H   UNL     1      -9.008  15.745  68.455  1.00  0.00     0.000 HD 
BRANCH  49  51
HETATM   51  O   UNL     1      -9.647  16.745  66.715  1.00  0.00    -0.231 OA 
HETATM   52  O   UNL     1      -9.715  20.262  66.967  1.00  0.00    -0.409 OA 
HETATM   53  C   UNL     1      -8.189  18.122  68.157  1.00  0.00    -0.284 C  
HETATM   54  O   UNL     1     -10.639  18.755  65.562  1.00  0.00    -0.596 OA 
HETATM   55  C   UNL     1     -10.644  17.756  68.681  1.00  0.00    -0.200 C  
HETATM   56  C   UNL     1      -9.970  19.097  66.695  1.00  0.00    -0.376 C  
HETATM   57  C   UNL     1      -9.597  17.907  67.576  1.00  0.00    -0.269 C  
ENDBRANCH  49  51
ENDBRANCH  40  49
ENDBRANCH  38  40
ENDBRANCH   8  36
TORSDOF 11
ENDMDL
MODEL        5
REMARK 921   NORMALIZED FREE ENERGY PREDICTED BY IDOCK:   -6.65 KCAL/MOL
REMARK 922        TOTAL FREE ENERGY PREDICTED BY IDOCK:  -14.36 KCAL/MOL
REMARK 923 INTER-LIGAND FREE ENERGY PREDICTED BY IDOCK:  -11.11 KCAL/MOL
REMARK 924 INTRA-LIGAND FREE ENERGY PREDICTED BY IDOCK:   -3.25 KCAL/MOL
REMARK 927      BINDING AFFINITY PREDICTED BY RF-SCORE:    0.00 PKD
ROOT
HETATM    1  C   UNL     1      -6.195  10.737  68.407  1.00  0.00    -0.049 C  
HETATM    2  S   UNL     1      -7.213  10.434  69.859  1.00  0.00    -0.124 SA 
HETATM    3  C   UNL     1      -7.028   8.654  69.800  1.00  0.00    -0.046 C  
HETATM    4  C   UNL     1      -7.223   7.967  68.469  1.00  0.00    -0.085 C  
HETATM    5  CA  UNL     1      -6.909   8.596  67.293  1.00  0.00    -0.067 C  
HETATM    6  O   UNL     1      -6.988  11.040  65.206  1.00  0.00     0.143 OA 
HETATM    7  C   UNL     1      -6.789   7.806  65.901  1.00  0.00    -0.057 C  
HETATM    8  CA  UNL     1      -6.580  11.982  67.555  1.00  0.00    -0.123 C  
HETATM    9  N   UNL     1      -6.610   9.934  67.291  1.00  0.00    -0.069 N  
HETATM   10  C   UNL     1      -6.715  10.937  66.393  1.00  0.00    -0.134 C  
HETATM   11  O   UNL     1      -5.841   8.202  65.168  1.00  0.00    -0.044 OA 
HETATM   12  OXT UNL     1      -7.485   6.754  65.809  1.00  0.00    -0.079 OA 
ENDROOT
BRANCH   4  13
HETATM   13  C   UNL     1      -7.720   6.522  68.463  1.00  0.00    -0.105 C  
BRANCH  13  14
HETATM   14  N   UNL     1      -9.206   6.156  68.936  1.00  0.00    -0.125 N  
HETATM   15  C   UNL     1      -8.851   4.683  70.802  1.00  0.00    -0.155 C  
HETATM   16  C   UNL     1      -9.469   4.683  68.478  1.00  0.00    -0.147 C  
HETATM   17  C   UNL     1      -9.530   3.847  69.751  1.00  0.00    -0.264 C  
HETATM   18  C   UNL     1      -9.301   6.088  70.452  1.00  0.00    -0.160 C  
BRANCH  14  19
HETATM   19  C   UNL     1     -10.141   7.124  68.134  1.00  0.00    -0.169 C  
BRANCH  19  20
HETATM   20  C   UNL     1     -10.432   8.500  68.789  1.00  0.00    -0.184 C  
BRANCH  20  21
HETATM   21  N   UNL     1     -10.364   9.707  67.940  1.00  0.00    -0.209 N  
HETATM   22  C   UNL     1     -11.346  10.674  67.846  1.00  0.00    -0.268 C  
HETATM   23  O   UNL     1     -12.271  10.703  68.648  1.00  0.00    -0.386 OA 
HETATM   24  H   UNL     1      -9.523   9.837  67.376  1.00  0.00     0.000 HD 
BRANCH  22  25
HETATM   25  C   UNL     1     -11.339  11.665  66.704  1.00  0.00    -0.338 A  
HETATM   26  C   UNL     1     -10.848  11.423  65.408  1.00  0.00    -0.229 A  
HETATM   27  C   UNL     1     -12.089  12.848  66.920  1.00  0.00    -0.313 A  
HETATM   28  H   UNL     1     -12.838  15.028  63.730  1.00  0.00     0.000 HD 
HETATM   29  C   UNL     1     -12.370  13.744  65.880  1.00  0.00    -0.516 A  
HETATM   30  O   UNL     1     -12.320  14.249  63.566  1.00  0.00    -0.714 OA 
HETATM   31  H   UNL     1     -11.053  12.666  62.346  1.00  0.00     0.000 HD 
HETATM   32  C   UNL     1     -11.165  12.313  64.364  1.00  0.00    -0.334 A  
HETATM   33 CL   UNL     1      -9.974   9.993  64.962  1.00  0.00    -0.385 Cl 
HETATM   34  C   UNL     1     -11.924  13.456  64.604  1.00  0.00    -0.399 A  
HETATM   35  O   UNL     1     -10.839  12.066  63.050  1.00  0.00    -0.276 OA 
ENDBRANCH  22  25
ENDBRANCH  20  21
ENDBRANCH  19  20
ENDBRANCH  14  19
ENDBRANCH  13  14
ENDBRANCH   4  13
BRANCH   8  36
HETATM   36  N   UNL     1      -7.821  12.741  67.964  1.00  0.00    -0.138 N  
HETATM   37  H   UNL     1      -8.732  12.315  67.794  1.00  0.00     0.000 HD 
HETATM   38  C   UNL     1      -7.774  13.992  68.559  1.00  0.00    -0.139 C  
HETATM   39  O   UNL     1      -6.783  14.564  68.981  1.00  0.00    -0.093 OA 
BRANCH  38  40
HETATM   40  C   UNL     1      -9.094  14.709  68.674  1.00  0.00    -0.189 C  
BRANCH  40  41
HETATM   41  C   UNL     1      -9.396  15.914  67.931  1.00  0.00    -0.207 A  
HETATM   42  H2  UNL     1     -11.343  18.277  65.017  1.00  0.00     0.000 HD 
HETATM   43  C   UNL     1     -10.480  17.049  66.401  1.00  0.00    -0.252 A  
HETATM   44  C   UNL     1      -9.327  17.177  68.500  1.00  0.00    -0.274 A  
HETATM   45  H1  UNL     1     -11.058  16.637  64.455  1.00  0.00     0.000 HD 
HETATM   46  S   UNL     1     -10.379  18.219  67.644  1.00  0.00    -0.409 SA 
HETATM   47  N   UNL     1     -10.998  17.334  65.196  1.00  0.00    -0.556 NA 
HETATM   48  N   UNL     1      -9.983  15.875  66.680  1.00  0.00    -0.247 NA 
ENDBRANCH  40  41
BRANCH  40  49
HETATM   49  N   UNL     1     -10.121  14.300  69.352  1.00  0.00    -0.426 NA 
HETATM   50  H   UNL     1     -10.587  13.418  69.138  1.00  0.00     0.000 HD 
BRANCH  49  51
HETATM   51  O   UNL     1     -10.554  15.117  70.382  1.00  0.00    -0.235 OA 
HETATM   52  O   UNL     1     -13.452  15.544  72.346  1.00  0.00    -0.426 OA 
HETATM   53  C   UNL     1     -12.349  13.450  70.695  1.00  0.00    -0.423 C  
HETATM   54  O   UNL     1     -11.517  16.683  72.106  1.00  0.00    -0.272 OA 
HETATM   55  C   UNL     1     -12.669  15.523  69.269  1.00  0.00     0.353 C  
HETATM   56  C   UNL     1     -12.407  15.725  71.736  1.00  0.00    -0.454 C  
HETATM   57  C   UNL     1     -11.984  14.932  70.502  1.00  0.00    -0.309 C  
ENDBRANCH  49  51
ENDBRANCH  40  49
ENDBRANCH  38  40
ENDBRANCH   8  36
TORSDOF 11
ENDMDL
MODEL        6
REMARK 921   NORMALIZED FREE ENERGY PREDICTED BY IDOCK:   -6.47 KCAL/MOL
REMARK 922        TOTAL FREE ENERGY PREDICTED BY IDOCK:  -14.05 KCAL/MOL
REMARK 923 INTER-LIGAND FREE ENERGY PREDICTED BY IDOCK:  -11.27 KCAL/MOL
REMARK 924 INTRA-LIGAND FREE ENERGY PREDICTED BY IDOCK:   -2.78 KCAL/MOL
REMARK 927      BINDING AFFINITY PREDICTED BY RF-SCORE:    0.00 PKD
ROOT
HETATM    1  C   UNL     1      -8.653  10.081  68.592  1.00  0.00    -0.123 C  
HETATM    2  S   UNL     1     -10.244   9.339  68.198  1.00  0.00    -0.215 SA 
HETATM    3  C   UNL     1      -9.560   8.092  67.111  1.00  0.00    -0.175 C  
HETATM    4  C   UNL     1      -8.550   8.531  66.078  1.00  0.00    -0.162 C  
HETATM    5  CA  UNL     1      -7.705   9.584  66.315  1.00  0.00    -0.101 C  
HETATM    6  O   UNL     1      -7.009  12.595  67.199  1.00  0.00    -0.130 OA 
HETATM    7  C   UNL     1      -6.418   9.874  65.401  1.00  0.00    -0.094 C  
HETATM    8  CA  UNL     1      -8.670  11.610  68.884  1.00  0.00     0.087 C  
HETATM    9  N   UNL     1      -7.903  10.388  67.407  1.00  0.00    -0.102 N  
HETATM   10  C   UNL     1      -7.635  11.677  67.708  1.00  0.00    -0.121 C  
HETATM   11  O   UNL     1      -5.404  10.253  66.051  1.00  0.00    -0.048 OA 
HETATM   12  OXT UNL     1      -6.495   9.472  64.204  1.00  0.00    -0.091 OA 
ENDROOT
BRANCH   4  13
HETATM   13  C   UNL     1      -8.444   7.733  64.779  1.00  0.00     0.031 C  
BRANCH  13  14
HETATM   14  N   UNL     1      -7.722   6.303  64.743  1.00  0.00    -0.094 N  
HETATM   15  C   UNL     1      -8.319   5.430  62.584  1.00  0.00    -0.112 C  
HETATM   16  C   UNL     1      -8.849   5.232  64.922  1.00  0.00    -0.088 C  
HETATM   17  C   UNL     1      -8.963   4.509  63.585  1.00  0.00    -0.130 C  
HETATM   18  C   UNL     1      -7.154   6.006  63.365  1.00  0.00    -0.048 C  
BRANCH  14  19
HETATM   19  C   UNL     1      -6.786   6.286  66.000  1.00  0.00    -0.052 C  
BRANCH  19  20
HETATM   20  C   UNL     1      -7.110   5.225  67.084  1.00  0.00    -0.070 C  
BRANCH  20  21
HETATM   21  N   UNL     1      -7.646   5.691  68.380  1.00  0.00    -0.081 N  
HETATM   22  C   UNL     1      -8.738   5.153  69.032  1.00  0.00    -0.092 C  
HETATM   23  O   UNL     1      -9.216   4.085  68.672  1.00  0.00    -0.127 OA 
HETATM   24  H   UNL     1      -7.170   6.475  68.829  1.00  0.00     0.000 HD 
BRANCH  22  25
HETATM   25  C   UNL     1      -9.410   5.913  70.153  1.00  0.00    -0.180 A  
HETATM   26  C   UNL     1      -8.817   6.919  70.938  1.00  0.00    -0.149 A  
HETATM   27  C   UNL     1     -10.813   5.732  70.256  1.00  0.00    -0.373 A  
HETATM   28  H   UNL     1     -12.728   8.309  72.532  1.00  0.00     0.000 HD 
HETATM   29  C   UNL     1     -11.603   6.541  71.083  1.00  0.00    -0.390 A  
HETATM   30  O   UNL     1     -11.787   8.438  72.490  1.00  0.00    -0.391 OA 
HETATM   31  H   UNL     1      -9.675   9.396  72.960  1.00  0.00     0.000 HD 
HETATM   32  C   UNL     1      -9.624   7.748  71.739  1.00  0.00    -0.163 A  
HETATM   33 CL   UNL     1      -7.129   7.315  70.878  1.00  0.00    -0.067 Cl 
HETATM   34  C   UNL     1     -11.003   7.560  71.801  1.00  0.00    -0.234 A  
HETATM   35  O   UNL     1      -9.130   8.837  72.419  1.00  0.00    -0.366 OA 
ENDBRANCH  22  25
ENDBRANCH  20  21
ENDBRANCH  19  20
ENDBRANCH  14  19
ENDBRANCH  13  14
ENDBRANCH   4  13
BRANCH   8  36
HETATM   36  N   UNL     1      -9.985  12.332  68.704  1.00  0.00    -0.374 N  
HETATM   37  H   UNL     1     -10.840  11.781  68.640  1.00  0.00     0.000 HD 
HETATM   38  C   UNL     1     -10.078  13.713  68.620  1.00  0.00    -0.180 C  
HETATM   39  O   UNL     1      -9.191  14.520  68.844  1.00  0.00    -0.186 OA 
BRANCH  38  40
HETATM   40  C   UNL     1     -11.419  14.252  68.195  1.00  0.00    -0.308 C  
BRANCH  40  41
HETATM   41  C   UNL     1     -11.797  14.399  66.806  1.00  0.00    -0.410 A  
HETATM   42  H2  UNL     1     -11.642  16.021  62.905  1.00  0.00     0.000 HD 
HETATM   43  C   UNL     1     -11.618  15.298  64.815  1.00  0.00    -0.322 A  
HETATM   44  C   UNL     1     -12.248  13.335  66.040  1.00  0.00    -0.424 A  
HETATM   45  H1  UNL     1     -11.351  17.238  64.139  1.00  0.00     0.000 HD 
HETATM   46  S   UNL     1     -11.917  13.667  64.395  1.00  0.00    -0.447 SA 
HETATM   47  N   UNL     1     -11.529  16.266  63.889  1.00  0.00    -0.952 NA 
HETATM   48  N   UNL     1     -11.525  15.551  66.092  1.00  0.00    -0.014 NA 
ENDBRANCH  40  41
BRANCH  40  49
HETATM   49  N   UNL     1     -12.401  14.549  68.989  1.00  0.00    -0.579 NA 
HETATM   50  H   UNL     1     -13.365  14.311  68.759  1.00  0.00     0.000 HD 
BRANCH  49  51
HETATM   51  O   UNL     1     -12.075  15.206  70.163  1.00  0.00    -0.301 OA 
HETATM   52  O   UNL     1     -12.642  14.820  73.623  1.00  0.00    -0.504 OA 
HETATM   53  C   UNL     1     -12.760  13.120  71.295  1.00  0.00    -0.396 C  
HETATM   54  O   UNL     1     -11.723  16.432  72.337  1.00  0.00    -0.508 OA 
HETATM   55  C   UNL     1     -14.360  15.060  70.963  1.00  0.00    -0.225 C  
HETATM   56  C   UNL     1     -12.423  15.281  72.511  1.00  0.00    -0.363 C  
HETATM   57  C   UNL     1     -12.907  14.649  71.208  1.00  0.00    -0.335 C  
ENDBRANCH  49  51
ENDBRANCH  40  49
ENDBRANCH  38  40
ENDBRANCH   8  36
TORSDOF 11
ENDMDL
MODEL        7
REMARK 921   NORMALIZED FREE ENERGY PREDICTED BY IDOCK:   -6.39 KCAL/MOL
REMARK 922        TOTAL FREE ENERGY PREDICTED BY IDOCK:  -13.92 KCAL/MOL
REMARK 923 INTER-LIGAND FREE ENERGY PREDICTED BY IDOCK:  -11.00 KCAL/MOL
REMARK 924 INTRA-LIGAND FREE ENERGY PREDICTED BY IDOCK:   -2.92 KCAL/MOL
REMARK 927      BINDING AFFINITY PREDICTED BY RF-SCORE:    0.00 PKD
ROOT
HETATM    1  C   UNL     1     -10.265   8.521  68.883  1.00  0.00    -0.207 C  
HETATM    2  S   UNL     1     -10.579   9.038  67.188  1.00  0.00    -0.146 SA 
HETATM    3  C   UNL     1      -9.483   7.824  66.458  1.00  0.00    -0.201 C  
HETATM    4  C   UNL     1      -8.105   7.666  67.057  1.00  0.00    -0.117 C  
HETATM    5  CA  UNL     1      -7.881   7.884  68.390  1.00  0.00    -0.120 C  
HETATM    6  O   UNL     1      -8.062   9.575  71.118  1.00  0.00    -0.308 OA 
HETATM    7  C   UNL     1      -6.531   7.417  69.122  1.00  0.00    -0.040 C  
HETATM    8  CA  UNL     1     -10.348   9.640  69.961  1.00  0.00    -0.257 C  
HETATM    9  N   UNL     1      -8.859   8.451  69.165  1.00  0.00    -0.142 N  
HETATM   10  C   UNL     1      -8.876   9.207  70.284  1.00  0.00    -0.213 C  
HETATM   11  O   UNL     1      -6.711   6.957  70.284  1.00  0.00    -0.050 OA 
HETATM   12  OXT UNL     1      -5.506   7.344  68.383  1.00  0.00    -0.021 OA 
ENDROOT
BRANCH   4  13
HETATM   13  C   UNL     1      -6.969   7.192  66.150  1.00  0.00    -0.065 C  
BRANCH  13  14
HETATM   14  N   UNL     1      -6.995   5.735  65.484  1.00  0.00    -0.066 N  
HETATM   15  C   UNL     1      -5.201   5.820  63.886  1.00  0.00    -0.016 C  
HETATM   16  C   UNL     1      -7.599   5.912  64.051  1.00  0.00    -0.085 C  
HETATM   17  C   UNL     1      -6.458   5.652  63.074  1.00  0.00    -0.025 C  
HETATM   18  C   UNL     1      -5.587   5.222  65.225  1.00  0.00    -0.014 C  
BRANCH  14  19
HETATM   19  C   UNL     1      -7.985   4.900  66.366  1.00  0.00    -0.107 C  
BRANCH  19  20
HETATM   20  C   UNL     1      -7.346   4.019  67.472  1.00  0.00    -0.068 C  
BRANCH  20  21
HETATM   21  N   UNL     1      -7.697   4.301  68.879  1.00  0.00    -0.058 N  
HETATM   22  C   UNL     1      -8.739   3.718  69.574  1.00  0.00    -0.079 C  
HETATM   23  O   UNL     1      -9.323   2.742  69.120  1.00  0.00    -0.144 OA 
HETATM   24  H   UNL     1      -7.124   4.982  69.378  1.00  0.00     0.000 HD 
BRANCH  22  25
HETATM   25  C   UNL     1      -9.227   4.322  70.871  1.00  0.00    -0.203 A  
HETATM   26  C   UNL     1      -8.474   4.453  72.053  1.00  0.00    -0.112 A  
HETATM   27  C   UNL     1     -10.470   5.001  70.797  1.00  0.00    -0.222 A  
HETATM   28  H   UNL     1     -11.360   7.317  73.852  1.00  0.00     0.000 HD 
HETATM   29  C   UNL     1     -10.934   5.806  71.845  1.00  0.00    -0.318 A  
HETATM   30  O   UNL     1     -10.532   6.859  73.929  1.00  0.00    -0.366 OA 
HETATM   31  H   UNL     1      -8.498   6.141  74.900  1.00  0.00     0.000 HD 
HETATM   32  C   UNL     1      -8.935   5.291  73.085  1.00  0.00    -0.118 A  
HETATM   33 CL   UNL     1      -6.906   3.746  72.277  1.00  0.00    -0.035 Cl 
HETATM   34  C   UNL     1     -10.150   5.963  72.973  1.00  0.00    -0.181 A  
HETATM   35  O   UNL     1      -8.186   5.575  74.204  1.00  0.00    -0.109 OA 
ENDBRANCH  22  25
ENDBRANCH  20  21
ENDBRANCH  19  20
ENDBRANCH  14  19
ENDBRANCH  13  14
ENDBRANCH   4  13
BRANCH   8  36
HETATM   36  N   UNL     1     -10.572  11.053  69.474  1.00  0.00    -0.409 N  
HETATM   37  H   UNL     1      -9.759  11.634  69.270  1.00  0.00     0.000 HD 
HETATM   38  C   UNL     1     -11.836  11.593  69.291  1.00  0.00    -0.331 C  
HETATM   39  O   UNL     1     -12.898  10.994  69.323  1.00  0.00    -0.173 OA 
BRANCH  38  40
HETATM   40  C   UNL     1     -11.881  13.078  69.042  1.00  0.00    -0.316 C  
BRANCH  40  41
HETATM   41  C   UNL     1     -12.266  14.030  70.062  1.00  0.00    -0.352 A  
HETATM   42  H2  UNL     1     -13.262  15.335  73.957  1.00  0.00     0.000 HD 
HETATM   43  C   UNL     1     -12.748  14.600  72.122  1.00  0.00    -0.334 A  
HETATM   44  C   UNL     1     -11.888  15.364  70.018  1.00  0.00    -0.343 A  
HETATM   45  H1  UNL     1     -13.859  13.715  73.630  1.00  0.00     0.000 HD 
HETATM   46  S   UNL     1     -11.874  15.979  71.613  1.00  0.00    -0.504 SA 
HETATM   47  N   UNL     1     -13.337  14.537  73.326  1.00  0.00    -0.562 NA 
HETATM   48  N   UNL     1     -12.843  13.632  71.253  1.00  0.00    -0.348 NA 
ENDBRANCH  40  41
BRANCH  40  49
HETATM   49  N   UNL     1     -11.502  13.674  67.954  1.00  0.00    -0.295 NA 
HETATM   50  H   UNL     1     -10.814  14.428  67.969  1.00  0.00     0.000 HD 
BRANCH  49  51
HETATM   51  O   UNL     1     -12.076  13.239  66.772  1.00  0.00    -0.384 OA 
HETATM   52  O   UNL     1     -11.041  12.436  63.497  1.00  0.00    -0.435 OA 
HETATM   53  C   UNL     1      -9.769  12.697  66.075  1.00  0.00    -0.232 C  
HETATM   54  O   UNL     1     -13.043  12.653  64.519  1.00  0.00    -0.763 OA 
HETATM   55  C   UNL     1     -10.870  14.905  65.487  1.00  0.00    -0.365 C  
HETATM   56  C   UNL     1     -11.691  12.784  64.474  1.00  0.00    -0.366 C  
HETATM   57  C   UNL     1     -11.088  13.410  65.729  1.00  0.00    -0.282 C  
ENDBRANCH  49  51
ENDBRANCH  40  49
ENDBRANCH  38  40
ENDBRANCH   8  36
TORSDOF 11
ENDMDL
MODEL        8
REMARK 921   NORMALIZED FREE ENERGY PREDICTED BY IDOCK:   -6.31 KCAL/MOL
REMARK 922        TOTAL FREE ENERGY PREDICTED BY IDOCK:  -13.79 KCAL/MOL
REMARK 923 INTER-LIGAND FREE ENERGY PREDICTED BY IDOCK:  -11.00 KCAL/MOL
REMARK 924 INTRA-LIGAND FREE ENERGY PREDICTED BY IDOCK:   -2.80 KCAL/MOL
REMARK 927      BINDING AFFINITY PREDICTED BY RF-SCORE:    0.00 PKD
ROOT
HETATM    1  C   UNL     1      -5.659  11.231  68.477  1.00  0.00    -0.042 C  
HETATM    2  S   UNL     1      -6.250  11.527  70.150  1.00  0.00    -0.069 SA 
HETATM    3  C   UNL     1      -6.444   9.792  70.548  1.00  0.00    -0.108 C  
HETATM    4  C   UNL     1      -7.147   8.911  69.544  1.00  0.00    -0.059 C  
HETATM    5  CA  UNL     1      -7.071   9.166  68.200  1.00  0.00    -0.078 C  
HETATM    6  O   UNL     1      -7.272  11.035  65.592  1.00  0.00    -0.008 OA 
HETATM    7  C   UNL     1      -7.519   8.091  67.095  1.00  0.00    -0.092 C  
HETATM    8  CA  UNL     1      -6.023  12.319  67.425  1.00  0.00    -0.149 C  
HETATM    9  N   UNL     1      -6.530  10.345  67.756  1.00  0.00    -0.061 N  
HETATM   10  C   UNL     1      -6.692  11.122  66.664  1.00  0.00    -0.137 C  
HETATM   11  O   UNL     1      -6.766   8.056  66.082  1.00  0.00    -0.052 OA 
HETATM   12  OXT UNL     1      -8.404   7.266  67.462  1.00  0.00    -0.115 OA 
ENDROOT
BRANCH   4  13
HETATM   13  C   UNL     1      -7.899   7.682  70.055  1.00  0.00    -0.101 C  
BRANCH  13  14
HETATM   14  N   UNL     1      -9.294   7.828  70.829  1.00  0.00    -0.160 N  
HETATM   15  C   UNL     1      -8.805   6.986  73.027  1.00  0.00    -0.148 C  
HETATM   16  C   UNL     1      -9.881   6.383  70.962  1.00  0.00    -0.180 C  
HETATM   17  C   UNL     1      -9.812   6.032  72.445  1.00  0.00    -0.179 C  
HETATM   18  C   UNL     1      -9.083   8.269  72.269  1.00  0.00    -0.221 C  
BRANCH  14  19
HETATM   19  C   UNL     1     -10.205   8.672  69.874  1.00  0.00    -0.203 C  
BRANCH  19  20
HETATM   20  C   UNL     1     -10.252  10.200  70.141  1.00  0.00    -0.179 C  
BRANCH  20  21
HETATM   21  N   UNL     1     -10.387  11.108  68.983  1.00  0.00    -0.272 N  
HETATM   22  C   UNL     1     -11.562  11.365  68.304  1.00  0.00    -0.306 C  
HETATM   23  O   UNL     1     -12.640  11.011  68.765  1.00  0.00    -0.350 OA 
HETATM   24  H   UNL     1      -9.545  11.584  68.659  1.00  0.00     0.000 HD 
BRANCH  22  25
HETATM   25  C   UNL     1     -11.531  12.018  66.940  1.00  0.00    -0.402 A  
HETATM   26  C   UNL     1     -11.028  11.437  65.761  1.00  0.00    -0.194 A  
HETATM   27  C   UNL     1     -12.272  13.220  66.824  1.00  0.00    -0.340 A  
HETATM   28  H   UNL     1     -12.962  14.481  63.160  1.00  0.00     0.000 HD 
HETATM   29  C   UNL     1     -12.532  13.810  65.580  1.00  0.00    -0.541 A  
HETATM   30  O   UNL     1     -12.450  13.682  63.216  1.00  0.00    -0.801 OA 
HETATM   31  H   UNL     1     -11.185  11.825  62.477  1.00  0.00     0.000 HD 
HETATM   32  C   UNL     1     -11.323  12.020  64.514  1.00  0.00    -0.330 A  
HETATM   33 CL   UNL     1     -10.163   9.934  65.723  1.00  0.00    -0.306 Cl 
HETATM   34  C   UNL     1     -12.074  13.190  64.432  1.00  0.00    -0.410 A  
HETATM   35  O   UNL     1     -10.985  11.431  63.318  1.00  0.00    -0.336 OA 
ENDBRANCH  22  25
ENDBRANCH  20  21
ENDBRANCH  19  20
ENDBRANCH  14  19
ENDBRANCH  13  14
ENDBRANCH   4  13
BRANCH   8  36
HETATM   36  N   UNL     1      -6.918  13.448  67.881  1.00  0.00    -0.122 N  
HETATM   37  H   UNL     1      -7.924  13.362  67.739  1.00  0.00     0.000 HD 
HETATM   38  C   UNL     1      -6.429  14.596  68.485  1.00  0.00    -0.089 C  
HETATM   39  O   UNL     1      -5.291  14.787  68.879  1.00  0.00    -0.086 OA 
BRANCH  38  40
HETATM   40  C   UNL     1      -7.421  15.719  68.650  1.00  0.00    -0.151 C  
BRANCH  40  41
HETATM   41  C   UNL     1      -8.839  15.489  68.828  1.00  0.00    -0.203 A  
HETATM   42  H2  UNL     1     -12.480  15.242  70.960  1.00  0.00     0.000 HD 
HETATM   43  C   UNL     1     -10.672  15.411  70.026  1.00  0.00    -0.307 A  
HETATM   44  C   UNL     1      -9.767  15.751  67.832  1.00  0.00    -0.216 A  
HETATM   45  H1  UNL     1     -11.112  14.710  71.926  1.00  0.00     0.000 HD 
HETATM   46  S   UNL     1     -11.282  16.055  68.564  1.00  0.00    -0.375 SA 
HETATM   47  N   UNL     1     -11.476  15.094  71.054  1.00  0.00    -0.319 NA 
HETATM   48  N   UNL     1      -9.384  15.205  70.066  1.00  0.00     0.075 NA 
ENDBRANCH  40  41
BRANCH  40  49
HETATM   49  N   UNL     1      -7.128  16.978  68.747  1.00  0.00    -0.208 NA 
HETATM   50  H   UNL     1      -6.720  17.369  69.596  1.00  0.00     0.000 HD 
BRANCH  49  51
HETATM   51  O   UNL     1      -7.397  17.768  67.642  1.00  0.00    -0.194 OA 
HETATM   52  O   UNL     1      -7.672  21.200  66.879  1.00  0.00    -0.155 OA 
HETATM   53  C   UNL     1      -6.484  19.628  68.987  1.00  0.00    -0.349 C  
HETATM   54  O   UNL     1      -8.081  19.287  65.751  1.00  0.00    -0.448 OA 
HETATM   55  C   UNL     1      -8.968  19.121  68.899  1.00  0.00    -0.327 C  
HETATM   56  C   UNL     1      -7.791  19.982  66.882  1.00  0.00    -0.305 C  
HETATM   57  C   UNL     1      -7.648  19.108  68.125  1.00  0.00    -0.286 C  
ENDBRANCH  49  51
ENDBRANCH  40  49
ENDBRANCH  38  40
ENDBRANCH   8  36
TORSDOF 11
ENDMDL
MODEL        9
REMARK 921   NORMALIZED FREE ENERGY PREDICTED BY IDOCK:   -6.25 KCAL/MOL
REMARK 922        TOTAL FREE ENERGY PREDICTED BY IDOCK:  -13.70 KCAL/MOL
REMARK 923 INTER-LIGAND FREE ENERGY PREDICTED BY IDOCK:  -10.49 KCAL/MOL
REMARK 924 INTRA-LIGAND FREE ENERGY PREDICTED BY IDOCK:   -3.21 KCAL/MOL
REMARK 927      BINDING AFFINITY PREDICTED BY RF-SCORE:    0.00 PKD
ROOT
HETATM    1  C   UNL     1      -8.300  10.467  65.985  1.00  0.00    -0.158 C  
HETATM    2  S   UNL     1      -9.985  10.284  66.587  1.00  0.00    -0.225 SA 
HETATM    3  C   UNL     1     -10.255  12.040  66.810  1.00  0.00    -0.202 C  
HETATM    4  C   UNL     1      -9.183  12.834  67.518  1.00  0.00    -0.191 C  
HETATM    5  CA  UNL     1      -7.862  12.484  67.426  1.00  0.00    -0.175 C  
HETATM    6  O   UNL     1      -5.396  10.428  67.575  1.00  0.00    -0.040 OA 
HETATM    7  C   UNL     1      -6.679  13.468  67.880  1.00  0.00    -0.150 C  
HETATM    8  CA  UNL     1      -7.327   9.300  66.323  1.00  0.00    -0.092 C  
HETATM    9  N   UNL     1      -7.510  11.285  66.863  1.00  0.00    -0.139 N  
HETATM   10  C   UNL     1      -6.476  10.428  67.003  1.00  0.00    -0.074 C  
HETATM   11  O   UNL     1      -5.672  13.442  67.119  1.00  0.00    -0.302 OA 
HETATM   12  OXT UNL     1      -6.978  14.304  68.781  1.00  0.00    -0.091 OA 
ENDROOT
BRANCH   4  13
HETATM   13  C   UNL     1      -9.598  14.085  68.293  1.00  0.00    -0.224 C  
BRANCH  13  14
HETATM   14  N   UNL     1     -10.826  14.991  67.806  1.00  0.00    -0.276 N  
HETATM   15  C   UNL     1      -9.906  16.240  65.969  1.00  0.00    -0.371 C  
HETATM   16  C   UNL     1     -10.520  16.449  68.285  1.00  0.00    -0.302 C  
HETATM   17  C   UNL     1     -10.237  17.260  67.025  1.00  0.00    -0.320 C  
HETATM   18  C   UNL     1     -10.860  15.106  66.290  1.00  0.00    -0.333 C  
BRANCH  14  19
HETATM   19  C   UNL     1     -12.072  14.441  68.580  1.00  0.00    -0.243 C  
BRANCH  19  20
HETATM   20  C   UNL     1     -11.782  13.698  69.911  1.00  0.00    -0.276 C  
BRANCH  20  21
HETATM   21  N   UNL     1     -11.785  12.221  69.901  1.00  0.00    -0.463 N  
HETATM   22  C   UNL     1     -12.350  11.417  70.873  1.00  0.00    -0.381 C  
HETATM   23  O   UNL     1     -13.094  11.893  71.721  1.00  0.00    -0.451 OA 
HETATM   24  H   UNL     1     -11.333  11.756  69.113  1.00  0.00     0.000 HD 
BRANCH  22  25
HETATM   25  C   UNL     1     -11.997   9.949  70.952  1.00  0.00    -0.434 A  
HETATM   26  C   UNL     1     -12.762   8.952  71.586  1.00  0.00    -0.349 A  
HETATM   27  C   UNL     1     -10.919   9.536  70.129  1.00  0.00    -0.302 A  
HETATM   28  H   UNL     1     -10.524   5.654  69.613  1.00  0.00     0.000 HD 
HETATM   29  C   UNL     1     -10.630   8.182  69.915  1.00  0.00    -0.239 A  
HETATM   30  O   UNL     1     -11.242   5.909  70.182  1.00  0.00    -0.353 OA 
HETATM   31  H   UNL     1     -13.087   5.658  71.641  1.00  0.00     0.000 HD 
HETATM   32  C   UNL     1     -12.483   7.595  71.338  1.00  0.00    -0.333 A  
HETATM   33 CL   UNL     1     -14.152   9.285  72.567  1.00  0.00    -0.424 Cl 
HETATM   34  C   UNL     1     -11.431   7.221  70.504  1.00  0.00    -0.279 A  
HETATM   35  O   UNL     1     -13.275   6.573  71.809  1.00  0.00    -0.190 OA 
ENDBRANCH  22  25
ENDBRANCH  20  21
ENDBRANCH  19  20
ENDBRANCH  14  19
ENDBRANCH  13  14
ENDBRANCH   4  13
BRANCH   8  36
HETATM   36  N   UNL     1      -7.857   8.193  67.204  1.00  0.00    -0.100 N  
HETATM   37  H   UNL     1      -8.852   8.180  67.426  1.00  0.00     0.000 HD 
HETATM   38  C   UNL     1      -7.048   7.195  67.724  1.00  0.00    -0.085 C  
HETATM   39  O   UNL     1      -5.887   6.965  67.427  1.00  0.00    -0.019 OA 
BRANCH  38  40
HETATM   40  C   UNL     1      -7.684   6.321  68.775  1.00  0.00    -0.100 C  
BRANCH  40  41
HETATM   41  C   UNL     1      -7.520   6.560  70.193  1.00  0.00    -0.094 A  
HETATM   42  H2  UNL     1      -7.427   8.850  73.744  1.00  0.00     0.000 HD 
HETATM   43  C   UNL     1      -7.518   7.838  71.973  1.00  0.00    -0.076 A  
HETATM   44  C   UNL     1      -7.838   5.608  71.150  1.00  0.00    -0.110 A  
HETATM   45  H1  UNL     1      -6.818   9.749  72.363  1.00  0.00     0.000 HD 
HETATM   46  S   UNL     1      -8.207   6.410  72.615  1.00  0.00    -0.107 SA 
HETATM   47  N   UNL     1      -7.229   8.897  72.745  1.00  0.00    -0.332 NA 
HETATM   48  N   UNL     1      -7.250   7.819  70.696  1.00  0.00    -0.060 NA 
ENDBRANCH  40  41
BRANCH  40  49
HETATM   49  N   UNL     1      -8.504   5.342  68.549  1.00  0.00    -0.092 NA 
HETATM   50  H   UNL     1      -8.840   4.742  69.302  1.00  0.00     0.000 HD 
BRANCH  49  51
HETATM   51  O   UNL     1      -8.899   5.151  67.236  1.00  0.00    -0.107 OA 
HETATM   52  O   UNL     1      -9.556   2.450  65.065  1.00  0.00    -0.084 OA 
HETATM   53  C   UNL     1      -9.382   2.827  67.921  1.00  0.00    -0.251 C  
HETATM   54  O   UNL     1      -9.407   4.688  64.811  1.00  0.00    -0.155 OA 
HETATM   55  C   UNL     1      -7.167   3.492  66.879  1.00  0.00    -0.063 C  
HETATM   56  C   UNL     1      -9.256   3.543  65.526  1.00  0.00    -0.156 C  
HETATM   57  C   UNL     1      -8.673   3.757  66.921  1.00  0.00    -0.114 C  
ENDBRANCH  49  51
ENDBRANCH  40  49
ENDBRANCH  38  40
ENDBRANCH   8  36
TORSDOF 11
ENDMDL
MODEL       10
REMARK 921   NORMALIZED FREE ENERGY PREDICTED BY IDOCK:   -6.22 KCAL/MOL
REMARK 922        TOTAL FREE ENERGY PREDICTED BY IDOCK:  -13.64 KCAL/MOL
REMARK 923 INTER-LIGAND FREE ENERGY PREDICTED BY IDOCK:  -10.04 KCAL/MOL
REMARK 924 INTRA-LIGAND FREE ENERGY PREDICTED BY IDOCK:   -3.60 KCAL/MOL
REMARK 927      BINDING AFFINITY PREDICTED BY RF-SCORE:    0.00 PKD
ROOT
HETATM    1  C   UNL     1      -5.456  10.823  68.839  1.00  0.00    -0.040 C  
HETATM    2  S   UNL     1      -6.765  10.828  70.072  1.00  0.00    -0.102 SA 
HETATM    3  C   UNL     1      -7.138   9.085  69.899  1.00  0.00    -0.053 C  
HETATM    4  C   UNL     1      -7.289   8.530  68.503  1.00  0.00    -0.092 C  
HETATM    5  CA  UNL     1      -6.584   9.054  67.451  1.00  0.00    -0.065 C  
HETATM    6  O   UNL     1      -5.513  11.444  65.587  1.00  0.00    -0.218 OA 
HETATM    7  C   UNL     1      -6.463   8.301  66.038  1.00  0.00    -0.049 C  
HETATM    8  CA  UNL     1      -5.270  12.146  68.040  1.00  0.00    -0.060 C  
HETATM    9  N   UNL     1      -5.888  10.224  67.608  1.00  0.00    -0.045 N  
HETATM   10  C   UNL     1      -5.508  11.230  66.791  1.00  0.00    -0.115 C  
HETATM   11  O   UNL     1      -5.321   8.390  65.508  1.00  0.00    -0.034 OA 
HETATM   12  OXT UNL     1      -7.423   7.531  65.745  1.00  0.00    -0.075 OA 
ENDROOT
BRANCH   4  13
HETATM   13  C   UNL     1      -8.202   7.322  68.295  1.00  0.00    -0.125 C  
BRANCH  13  14
HETATM   14  N   UNL     1      -9.792   7.451  68.446  1.00  0.00    -0.154 N  
HETATM   15  C   UNL     1     -10.249   6.330  70.523  1.00  0.00    -0.240 C  
HETATM   16  C   UNL     1     -10.383   6.035  68.140  1.00  0.00    -0.205 C  
HETATM   17  C   UNL     1     -10.929   5.508  69.462  1.00  0.00    -0.125 C  
HETATM   18  C   UNL     1     -10.190   7.707  69.891  1.00  0.00    -0.215 C  
BRANCH  14  19
HETATM   19  C   UNL     1     -10.229   8.451  67.322  1.00  0.00    -0.279 C  
BRANCH  19  20
HETATM   20  C   UNL     1     -10.846   9.793  67.797  1.00  0.00    -0.246 C  
BRANCH  20  21
HETATM   21  N   UNL     1     -11.017  10.873  66.804  1.00  0.00    -0.228 N  
HETATM   22  C   UNL     1      -9.992  11.607  66.238  1.00  0.00    -0.217 C  
HETATM   23  O   UNL     1      -8.827  11.254  66.368  1.00  0.00    -0.172 OA 
HETATM   24  H   UNL     1     -11.970  11.096  66.512  1.00  0.00     0.000 HD 
BRANCH  22  25
HETATM   25  C   UNL     1     -10.286  12.903  65.516  1.00  0.00    -0.304 A  
HETATM   26  C   UNL     1     -11.316  13.107  64.579  1.00  0.00    -0.349 A  
HETATM   27  C   UNL     1      -9.596  14.041  66.003  1.00  0.00    -0.230 A  
HETATM   28  H   UNL     1     -10.947  17.533  64.788  1.00  0.00     0.000 HD 
HETATM   29  C   UNL     1      -9.936  15.339  65.598  1.00  0.00    -0.397 A  
HETATM   30  O   UNL     1     -11.413  16.783  64.438  1.00  0.00    -1.024 OA 
HETATM   31  H   UNL     1     -12.994  15.579  63.154  1.00  0.00     0.000 HD 
HETATM   32  C   UNL     1     -11.670  14.417  64.205  1.00  0.00    -0.227 A  
HETATM   33 CL   UNL     1     -12.302  11.831  63.940  1.00  0.00    -0.449 Cl 
HETATM   34  C   UNL     1     -10.988  15.517  64.718  1.00  0.00    -0.399 A  
HETATM   35  O   UNL     1     -12.755  14.695  63.406  1.00  0.00    -0.514 OA 
ENDBRANCH  22  25
ENDBRANCH  20  21
ENDBRANCH  19  20
ENDBRANCH  14  19
ENDBRANCH  13  14
ENDBRANCH   4  13
BRANCH   8  36
HETATM   36  N   UNL     1      -6.265  13.254  68.298  1.00  0.00    -0.088 N  
HETATM   37  H   UNL     1      -7.124  13.277  67.748  1.00  0.00     0.000 HD 
HETATM   38  C   UNL     1      -6.062  14.240  69.251  1.00  0.00    -0.099 C  
HETATM   39  O   UNL     1      -5.186  14.267  70.100  1.00  0.00    -0.090 OA 
BRANCH  38  40
HETATM   40  C   UNL     1      -7.025  15.398  69.208  1.00  0.00    -0.168 C  
BRANCH  40  41
HETATM   41  C   UNL     1      -6.803  16.568  68.386  1.00  0.00    -0.145 A  
HETATM   42  H2  UNL     1      -7.203  19.033  64.975  1.00  0.00     0.000 HD 
HETATM   43  C   UNL     1      -7.095  17.773  66.579  1.00  0.00    -0.240 A  
HETATM   44  C   UNL     1      -6.604  17.830  68.925  1.00  0.00    -0.229 A  
HETATM   45  H1  UNL     1      -7.166  17.327  64.557  1.00  0.00     0.000 HD 
HETATM   46  S   UNL     1      -7.084  18.998  67.772  1.00  0.00    -0.229 SA 
HETATM   47  N   UNL     1      -7.159  18.057  65.268  1.00  0.00    -0.291 NA 
HETATM   48  N   UNL     1      -6.995  16.548  67.017  1.00  0.00    -0.196 NA 
ENDBRANCH  40  41
BRANCH  40  49
HETATM   49  N   UNL     1      -8.176  15.446  69.803  1.00  0.00    -0.276 NA 
HETATM   50  H   UNL     1      -8.399  16.178  70.477  1.00  0.00     0.000 HD 
BRANCH  49  51
HETATM   51  O   UNL     1      -9.087  14.456  69.479  1.00  0.00     0.213 OA 
HETATM   52  O   UNL     1     -12.518  14.206  68.697  1.00  0.00    -0.145 OA 
HETATM   53  C   UNL     1     -10.537  16.304  68.717  1.00  0.00    -0.298 C  
HETATM   54  O   UNL     1     -10.869  12.715  69.091  1.00  0.00    -0.186 OA 
HETATM   55  C   UNL     1     -10.710  15.333  71.053  1.00  0.00    -0.058 C  
HETATM   56  C   UNL     1     -11.377  13.975  69.076  1.00  0.00    -0.281 C  
HETATM   57  C   UNL     1     -10.407  15.039  69.583  1.00  0.00    -0.187 C  
ENDBRANCH  49  51
ENDBRANCH  40  49
ENDBRANCH  38  40
ENDBRANCH   8  36
TORSDOF 11
ENDMDL
MODEL       11
REMARK 921   NORMALIZED FREE ENERGY PREDICTED BY IDOCK:   -6.19 KCAL/MOL
REMARK 922        TOTAL FREE ENERGY PREDICTED BY IDOCK:  -13.61 KCAL/MOL
REMARK 923 INTER-LIGAND FREE ENERGY PREDICTED BY IDOCK:  -11.50 KCAL/MOL
REMARK 924 INTRA-LIGAND FREE ENERGY PREDICTED BY IDOCK:   -2.11 KCAL/MOL
REMARK 927      BINDING AFFINITY PREDICTED BY RF-SCORE:    0.00 PKD
ROOT
HETATM    1  C   UNL     1     -11.906  12.120  68.090  1.00  0.00    -0.299 C  
HETATM    2  S   UNL     1     -10.451  11.538  67.205  1.00  0.00    -0.234 SA 
HETATM    3  C   UNL     1     -10.638   9.833  67.718  1.00  0.00    -0.266 C  
HETATM    4  C   UNL     1     -10.908   9.561  69.179  1.00  0.00    -0.194 C  
HETATM    5  CA  UNL     1     -11.607  10.451  69.950  1.00  0.00    -0.284 C  
HETATM    6  O   UNL     1     -12.256  13.367  71.136  1.00  0.00    -0.315 OA 
HETATM    7  C   UNL     1     -12.193  10.064  71.393  1.00  0.00    -0.416 C  
HETATM    8  CA  UNL     1     -11.840  13.583  68.617  1.00  0.00    -0.369 C  
HETATM    9  N   UNL     1     -11.894  11.700  69.463  1.00  0.00    -0.329 N  
HETATM   10  C   UNL     1     -12.106  12.916  70.011  1.00  0.00    -0.286 C  
HETATM   11  O   UNL     1     -13.336  10.545  71.627  1.00  0.00    -0.377 OA 
HETATM   12  OXT UNL     1     -11.567   9.155  72.011  1.00  0.00    -0.361 OA 
ENDROOT
BRANCH   4  13
HETATM   13  C   UNL     1     -10.437   8.232  69.770  1.00  0.00    -0.220 C  
BRANCH  13  14
HETATM   14  N   UNL     1      -8.930   8.041  70.279  1.00  0.00    -0.146 N  
HETATM   15  C   UNL     1      -7.878  10.124  69.706  1.00  0.00    -0.175 C  
HETATM   16  C   UNL     1      -8.052   7.832  69.001  1.00  0.00    -0.125 C  
HETATM   17  C   UNL     1      -7.186   9.080  68.872  1.00  0.00    -0.073 C  
HETATM   18  C   UNL     1      -8.387   9.323  70.888  1.00  0.00    -0.145 C  
BRANCH  14  19
HETATM   19  C   UNL     1      -8.947   6.718  71.119  1.00  0.00    -0.147 C  
BRANCH  19  20
HETATM   20  C   UNL     1     -10.204   5.821  70.963  1.00  0.00    -0.217 C  
BRANCH  20  21
HETATM   21  N   UNL     1     -10.332   5.006  69.737  1.00  0.00    -0.267 N  
HETATM   22  C   UNL     1      -9.362   4.161  69.235  1.00  0.00    -0.167 C  
HETATM   23  O   UNL     1      -8.386   3.861  69.910  1.00  0.00    -0.056 OA 
HETATM   24  H   UNL     1     -11.209   5.074  69.219  1.00  0.00     0.000 HD 
BRANCH  22  25
HETATM   25  C   UNL     1      -9.449   3.655  67.813  1.00  0.00    -0.231 A  
HETATM   26  C   UNL     1      -9.735   4.436  66.677  1.00  0.00    -0.215 A  
HETATM   27  C   UNL     1      -8.986   2.331  67.609  1.00  0.00    -0.189 A  
HETATM   28  H   UNL     1      -8.359   1.275  63.869  1.00  0.00     0.000 HD 
HETATM   29  C   UNL     1      -8.784   1.810  66.324  1.00  0.00    -0.116 A  
HETATM   30  O   UNL     1      -8.684   2.160  63.983  1.00  0.00    -0.088 OA 
HETATM   31  H   UNL     1      -9.457   4.313  63.381  1.00  0.00     0.000 HD 
HETATM   32  C   UNL     1      -9.496   3.913  65.392  1.00  0.00    -0.170 A  
HETATM   33 CL   UNL     1     -10.241   6.093  66.753  1.00  0.00    -0.249 Cl 
HETATM   34  C   UNL     1      -9.019   2.615  65.225  1.00  0.00    -0.137 A  
HETATM   35  O   UNL     1      -9.619   4.666  64.248  1.00  0.00    -0.070 OA 
ENDBRANCH  22  25
ENDBRANCH  20  21
ENDBRANCH  19  20
ENDBRANCH  14  19
ENDBRANCH  13  14
ENDBRANCH   4  13
BRANCH   8  36
HETATM   36  N   UNL     1     -10.537  14.325  68.432  1.00  0.00    -0.246 N  
HETATM   37  H   UNL     1      -9.784  13.870  67.916  1.00  0.00     0.000 HD 
HETATM   38  C   UNL     1     -10.321  15.599  68.933  1.00  0.00    -0.218 C  
HETATM   39  O   UNL     1     -11.155  16.345  69.418  1.00  0.00    -0.318 OA 
BRANCH  38  40
HETATM   40  C   UNL     1      -8.897  16.090  68.876  1.00  0.00    -0.233 C  
BRANCH  40  41
HETATM   41  C   UNL     1      -7.761  15.194  68.886  1.00  0.00    -0.159 A  
HETATM   42  H2  UNL     1      -4.927  12.521  67.245  1.00  0.00     0.000 HD 
HETATM   43  C   UNL     1      -6.332  13.837  67.927  1.00  0.00    -0.157 A  
HETATM   44  C   UNL     1      -6.682  15.368  69.739  1.00  0.00    -0.170 A  
HETATM   45  H1  UNL     1      -6.511  12.341  66.506  1.00  0.00     0.000 HD 
HETATM   46  S   UNL     1      -5.304  14.643  69.032  1.00  0.00    -0.091 SA 
HETATM   47  N   UNL     1      -5.899  12.821  67.164  1.00  0.00    -0.327 NA 
HETATM   48  N   UNL     1      -7.573  14.240  67.903  1.00  0.00    -0.136 NA 
ENDBRANCH  40  41
BRANCH  40  49
HETATM   49  N   UNL     1      -8.528  17.323  68.719  1.00  0.00    -0.263 NA 
HETATM   50  H   UNL     1      -8.656  18.018  69.454  1.00  0.00     0.000 HD 
BRANCH  49  51
HETATM   51  O   UNL     1      -7.953  17.651  67.503  1.00  0.00    -0.199 OA 
HETATM   52  O   UNL     1      -6.927  20.558  65.789  1.00  0.00    -0.247 OA 
HETATM   53  C   UNL     1      -7.498  19.851  68.528  1.00  0.00    -0.300 C  
HETATM   54  O   UNL     1      -7.108  18.375  65.241  1.00  0.00    -0.530 OA 
HETATM   55  C   UNL     1      -9.570  19.419  67.131  1.00  0.00    -0.412 C  
HETATM   56  C   UNL     1      -7.320  19.433  66.067  1.00  0.00    -0.290 C  
HETATM   57  C   UNL     1      -8.092  19.082  67.336  1.00  0.00    -0.266 C  
ENDBRANCH  49  51
ENDBRANCH  40  49
ENDBRANCH  38  40
ENDBRANCH   8  36
TORSDOF 11
ENDMDL
MODEL       12
REMARK 921   NORMALIZED FREE ENERGY PREDICTED BY IDOCK:   -6.17 KCAL/MOL
REMARK 922        TOTAL FREE ENERGY PREDICTED BY IDOCK:  -13.57 KCAL/MOL
REMARK 923 INTER-LIGAND FREE ENERGY PREDICTED BY IDOCK:  -11.72 KCAL/MOL
REMARK 924 INTRA-LIGAND FREE ENERGY PREDICTED BY IDOCK:   -1.86 KCAL/MOL
REMARK 927      BINDING AFFINITY PREDICTED BY RF-SCORE:    0.00 PKD
ROOT
HETATM    1  C   UNL     1      -6.110  10.892  68.148  1.00  0.00    -0.049 C  
HETATM    2  S   UNL     1      -7.308  11.183  69.458  1.00  0.00     0.059 SA 
HETATM    3  C   UNL     1      -7.317   9.485  70.030  1.00  0.00    -0.115 C  
HETATM    4  C   UNL     1      -7.439   8.393  68.996  1.00  0.00    -0.093 C  
HETATM    5  CA  UNL     1      -6.930   8.549  67.733  1.00  0.00    -0.075 C  
HETATM    6  O   UNL     1      -6.508  10.111  64.955  1.00  0.00    -0.114 OA 
HETATM    7  C   UNL     1      -6.747   7.317  66.722  1.00  0.00    -0.061 C  
HETATM    8  CA  UNL     1      -6.258  11.784  66.881  1.00  0.00    -0.134 C  
HETATM    9  N   UNL     1      -6.486   9.779  67.322  1.00  0.00    -0.068 N  
HETATM   10  C   UNL     1      -6.380  10.411  66.133  1.00  0.00    -0.106 C  
HETATM   11  O   UNL     1      -5.686   7.368  66.039  1.00  0.00    -0.034 OA 
HETATM   12  OXT UNL     1      -7.541   6.347  66.892  1.00  0.00    -0.092 OA 
ENDROOT
BRANCH   4  13
HETATM   13  C   UNL     1      -8.090   7.072  69.407  1.00  0.00    -0.130 C  
BRANCH  13  14
HETATM   14  N   UNL     1      -9.388   7.047  70.346  1.00  0.00    -0.159 N  
HETATM   15  C   UNL     1      -8.888   5.320  71.943  1.00  0.00    -0.142 C  
HETATM   16  C   UNL     1     -10.186   5.755  69.965  1.00  0.00    -0.238 C  
HETATM   17  C   UNL     1     -10.072   4.817  71.162  1.00  0.00    -0.261 C  
HETATM   18  C   UNL     1      -9.011   6.825  71.802  1.00  0.00    -0.139 C  
BRANCH  14  19
HETATM   19  C   UNL     1     -10.217   8.310  69.932  1.00  0.00    -0.201 C  
BRANCH  19  20
HETATM   20  C   UNL     1     -11.687   8.359  70.425  1.00  0.00     0.014 C  
BRANCH  20  21
HETATM   21  N   UNL     1     -12.193   9.629  70.986  1.00  0.00    -0.315 N  
HETATM   22  C   UNL     1     -12.407  10.790  70.268  1.00  0.00    -0.341 C  
HETATM   23  O   UNL     1     -12.393  10.778  69.044  1.00  0.00    -0.422 OA 
HETATM   24  H   UNL     1     -12.403   9.650  71.985  1.00  0.00     0.000 HD 
BRANCH  22  25
HETATM   25  C   UNL     1     -12.583  12.111  70.983  1.00  0.00    -0.359 A  
HETATM   26  C   UNL     1     -12.079  13.353  70.554  1.00  0.00    -0.323 A  
HETATM   27  C   UNL     1     -13.518  12.106  72.048  1.00  0.00    -0.388 A  
HETATM   28  H   UNL     1     -14.672  15.636  73.353  1.00  0.00     0.000 HD 
HETATM   29  C   UNL     1     -13.962  13.293  72.646  1.00  0.00    -0.295 A  
HETATM   30  O   UNL     1     -14.033  15.661  72.650  1.00  0.00    -0.566 OA 
HETATM   31  H   UNL     1     -12.538  16.590  71.070  1.00  0.00     0.000 HD 
HETATM   32  C   UNL     1     -12.557  14.540  71.139  1.00  0.00    -0.335 A  
HETATM   33 CL   UNL     1     -10.984  13.537  69.221  1.00  0.00    -0.217 Cl 
HETATM   34  C   UNL     1     -13.494  14.504  72.169  1.00  0.00    -0.400 A  
HETATM   35  O   UNL     1     -12.215  15.789  70.675  1.00  0.00    -0.392 OA 
ENDBRANCH  22  25
ENDBRANCH  20  21
ENDBRANCH  19  20
ENDBRANCH  14  19
ENDBRANCH  13  14
ENDBRANCH   4  13
BRANCH   8  36
HETATM   36  N   UNL     1      -7.445  12.718  66.830  1.00  0.00    -0.375 N  
HETATM   37  H   UNL     1      -8.332  12.362  66.475  1.00  0.00     0.000 HD 
HETATM   38  C   UNL     1      -7.379  14.039  67.245  1.00  0.00     0.003 C  
HETATM   39  O   UNL     1      -6.460  14.572  67.845  1.00  0.00    -0.135 OA 
BRANCH  38  40
HETATM   40  C   UNL     1      -8.572  14.892  66.899  1.00  0.00    -0.239 C  
BRANCH  40  41
HETATM   41  C   UNL     1      -8.881  16.122  67.597  1.00  0.00    -0.186 A  
HETATM   42  H2  UNL     1      -8.300  20.125  68.824  1.00  0.00     0.000 HD 
HETATM   43  C   UNL     1      -8.492  18.205  68.154  1.00  0.00    -0.273 A  
HETATM   44  C   UNL     1     -10.183  16.535  67.837  1.00  0.00    -0.273 A  
HETATM   45  H1  UNL     1      -6.782  19.251  68.679  1.00  0.00     0.000 HD 
HETATM   46  S   UNL     1     -10.194  18.238  67.996  1.00  0.00    -0.393 SA 
HETATM   47  N   UNL     1      -7.797  19.270  68.585  1.00  0.00    -0.352 NA 
HETATM   48  N   UNL     1      -7.914  17.070  67.872  1.00  0.00    -0.186 NA 
ENDBRANCH  40  41
BRANCH  40  49
HETATM   49  N   UNL     1      -9.384  14.691  65.908  1.00  0.00    -0.515 NA 
HETATM   50  H   UNL     1      -9.157  14.992  64.961  1.00  0.00     0.000 HD 
BRANCH  49  51
HETATM   51  O   UNL     1     -10.574  14.046  66.199  1.00  0.00    -0.283 OA 
HETATM   52  O   UNL     1     -13.171  12.425  64.447  1.00  0.00    -0.816 OA 
HETATM   53  C   UNL     1     -10.435  13.160  63.897  1.00  0.00    -0.125 C  
HETATM   54  O   UNL     1     -12.852  13.043  66.595  1.00  0.00     0.077 OA 
HETATM   55  C   UNL     1     -11.742  15.261  64.456  1.00  0.00    -0.306 C  
HETATM   56  C   UNL     1     -12.519  13.043  65.278  1.00  0.00    -0.499 C  
HETATM   57  C   UNL     1     -11.289  13.886  64.951  1.00  0.00    -0.347 C  
ENDBRANCH  49  51
ENDBRANCH  40  49
ENDBRANCH  38  40
ENDBRANCH   8  36
TORSDOF 11
ENDMDL
MODEL       13
REMARK 921   NORMALIZED FREE ENERGY PREDICTED BY IDOCK:   -6.11 KCAL/MOL
REMARK 922        TOTAL FREE ENERGY PREDICTED BY IDOCK:  -13.46 KCAL/MOL
REMARK 923 INTER-LIGAND FREE ENERGY PREDICTED BY IDOCK:  -10.61 KCAL/MOL
REMARK 924 INTRA-LIGAND FREE ENERGY PREDICTED BY IDOCK:   -2.85 KCAL/MOL
REMARK 927      BINDING AFFINITY PREDICTED BY RF-SCORE:    0.00 PKD
ROOT
HETATM    1  C   UNL     1      -7.895   9.711  68.808  1.00  0.00    -0.081 C  
HETATM    2  S   UNL     1      -9.614   9.181  68.789  1.00  0.00    -0.161 SA 
HETATM    3  C   UNL     1      -9.299   7.692  67.844  1.00  0.00    -0.139 C  
HETATM    4  C   UNL     1      -8.433   7.807  66.613  1.00  0.00    -0.129 C  
HETATM    5  CA  UNL     1      -7.428   8.735  66.536  1.00  0.00    -0.085 C  
HETATM    6  O   UNL     1      -6.197  11.695  66.773  1.00  0.00    -0.143 OA 
HETATM    7  C   UNL     1      -6.290   8.678  65.405  1.00  0.00    -0.055 C  
HETATM    8  CA  UNL     1      -7.659  11.249  68.830  1.00  0.00    -0.126 C  
HETATM    9  N   UNL     1      -7.326   9.715  67.489  1.00  0.00    -0.090 N  
HETATM   10  C   UNL     1      -6.842  10.975  67.520  1.00  0.00    -0.084 C  
HETATM   11  O   UNL     1      -5.139   8.984  65.822  1.00  0.00    -0.032 OA 
HETATM   12  OXT UNL     1      -6.625   8.119  64.321  1.00  0.00    -0.064 OA 
ENDROOT
BRANCH   4  13
HETATM   13  C   UNL     1      -8.659   6.817  65.470  1.00  0.00    -0.086 C  
BRANCH  13  14
HETATM   14  N   UNL     1      -8.193   5.289  65.595  1.00  0.00    -0.117 N  
HETATM   15  C   UNL     1      -9.019   4.286  63.572  1.00  0.00    -0.134 C  
HETATM   16  C   UNL     1      -9.478   4.459  65.927  1.00  0.00    -0.174 C  
HETATM   17  C   UNL     1      -9.769   3.615  64.691  1.00  0.00    -0.179 C  
HETATM   18  C   UNL     1      -7.741   4.738  64.252  1.00  0.00    -0.079 C  
BRANCH  14  19
HETATM   19  C   UNL     1      -7.222   5.257  66.824  1.00  0.00    -0.078 C  
BRANCH  19  20
HETATM   20  C   UNL     1      -7.634   4.333  68.001  1.00  0.00    -0.068 C  
BRANCH  20  21
HETATM   21  N   UNL     1      -8.294   4.946  69.172  1.00  0.00    -0.081 N  
HETATM   22  C   UNL     1      -9.453   4.487  69.767  1.00  0.00    -0.177 C  
HETATM   23  O   UNL     1      -9.903   3.383  69.486  1.00  0.00    -0.057 OA 
HETATM   24  H   UNL     1      -7.858   5.777  69.575  1.00  0.00     0.000 HD 
BRANCH  22  25
HETATM   25  C   UNL     1     -10.228   5.370  70.718  1.00  0.00    -0.313 A  
HETATM   26  C   UNL     1      -9.834   5.719  72.024  1.00  0.00    -0.155 A  
HETATM   27  C   UNL     1     -11.323   6.066  70.147  1.00  0.00    -0.351 A  
HETATM   28  H   UNL     1     -12.812   9.009  72.294  1.00  0.00     0.000 HD 
HETATM   29  C   UNL     1     -11.985   7.092  70.834  1.00  0.00    -0.375 A  
HETATM   30  O   UNL     1     -12.090   8.546  72.702  1.00  0.00    -0.378 OA 
HETATM   31  H   UNL     1     -10.500   7.971  74.357  1.00  0.00     0.000 HD 
HETATM   32  C   UNL     1     -10.485   6.774  72.691  1.00  0.00    -0.213 A  
HETATM   33 CL   UNL     1      -8.474   5.015  72.838  1.00  0.00    -0.115 Cl 
HETATM   34  C   UNL     1     -11.543   7.453  72.094  1.00  0.00    -0.293 A  
HETATM   35  O   UNL     1     -10.061   7.259  73.907  1.00  0.00    -0.324 OA 
ENDBRANCH  22  25
ENDBRANCH  20  21
ENDBRANCH  19  20
ENDBRANCH  14  19
ENDBRANCH  13  14
ENDBRANCH   4  13
BRANCH   8  36
HETATM   36  N   UNL     1      -8.877  12.136  68.724  1.00  0.00    -0.381 N  
HETATM   37  H   UNL     1      -9.798  11.722  68.873  1.00  0.00     0.000 HD 
HETATM   38  C   UNL     1      -8.798  13.489  68.434  1.00  0.00    -0.146 C  
HETATM   39  O   UNL     1      -7.788  14.171  68.395  1.00  0.00    -0.128 OA 
BRANCH  38  40
HETATM   40  C   UNL     1     -10.108  14.168  68.123  1.00  0.00    -0.239 C  
BRANCH  40  41
HETATM   41  C   UNL     1     -11.098  14.456  69.138  1.00  0.00    -0.265 A  
HETATM   42  H2  UNL     1     -13.568  13.652  72.472  1.00  0.00     0.000 HD 
HETATM   43  C   UNL     1     -12.319  13.937  70.882  1.00  0.00    -0.377 A  
HETATM   44  C   UNL     1     -11.264  15.723  69.678  1.00  0.00    -0.319 A  
HETATM   45  H1  UNL     1     -13.381  12.246  71.434  1.00  0.00     0.000 HD 
HETATM   46  S   UNL     1     -11.937  15.565  71.242  1.00  0.00    -0.436 SA 
HETATM   47  N   UNL     1     -13.152  13.216  71.649  1.00  0.00    -0.383 NA 
HETATM   48  N   UNL     1     -11.788  13.453  69.793  1.00  0.00    -0.320 NA 
ENDBRANCH  40  41
BRANCH  40  49
HETATM   49  N   UNL     1     -10.456  14.646  66.969  1.00  0.00    -0.267 NA 
HETATM   50  H   UNL     1     -10.609  15.644  66.828  1.00  0.00     0.000 HD 
BRANCH  49  51
HETATM   51  O   UNL     1     -10.611  13.735  65.938  1.00  0.00    -0.280 OA 
HETATM   52  O   UNL     1     -12.422  13.476  62.922  1.00  0.00    -0.601 OA 
HETATM   53  C   UNL     1     -11.616  15.613  64.686  1.00  0.00    -0.249 C  
HETATM   54  O   UNL     1     -11.130  12.066  64.122  1.00  0.00    -0.317 OA 
HETATM   55  C   UNL     1     -13.025  13.964  66.001  1.00  0.00    -0.139 C  
HETATM   56  C   UNL     1     -11.814  13.228  63.954  1.00  0.00    -0.465 C  
HETATM   57  C   UNL     1     -11.759  14.157  65.164  1.00  0.00    -0.361 C  
ENDBRANCH  49  51
ENDBRANCH  40  49
ENDBRANCH  38  40
ENDBRANCH   8  36
TORSDOF 11
ENDMDL
MODEL       14
REMARK 921   NORMALIZED FREE ENERGY PREDICTED BY IDOCK:   -6.10 KCAL/MOL
REMARK 922        TOTAL FREE ENERGY PREDICTED BY IDOCK:  -13.46 KCAL/MOL
REMARK 923 INTER-LIGAND FREE ENERGY PREDICTED BY IDOCK:  -11.26 KCAL/MOL
REMARK 924 INTRA-LIGAND FREE ENERGY PREDICTED BY IDOCK:   -2.20 KCAL/MOL
REMARK 927      BINDING AFFINITY PREDICTED BY RF-SCORE:    0.00 PKD
ROOT
HETATM    1  C   UNL     1     -11.116  10.504  67.937  1.00  0.00    -0.304 C  
HETATM    2  S   UNL     1      -9.428  10.399  67.326  1.00  0.00    -0.155 SA 
HETATM    3  C   UNL     1      -9.049   8.881  68.198  1.00  0.00    -0.140 C  
HETATM    4  C   UNL     1      -9.431   8.791  69.656  1.00  0.00    -0.170 C  
HETATM    5  CA  UNL     1     -10.525   9.452  70.146  1.00  0.00    -0.240 C  
HETATM    6  O   UNL     1     -12.393  12.033  70.582  1.00  0.00    -0.356 OA 
HETATM    7  C   UNL     1     -11.150   9.129  71.589  1.00  0.00    -0.375 C  
HETATM    8  CA  UNL     1     -11.685  11.941  68.121  1.00  0.00    -0.320 C  
HETATM    9  N   UNL     1     -11.172  10.376  69.366  1.00  0.00    -0.246 N  
HETATM   10  C   UNL     1     -11.906  11.484  69.605  1.00  0.00    -0.354 C  
HETATM   11  O   UNL     1     -12.412   9.151  71.616  1.00  0.00    -0.318 OA 
HETATM   12  OXT UNL     1     -10.340   8.671  72.445  1.00  0.00    -0.319 OA 
ENDROOT
BRANCH   4  13
HETATM   13  C   UNL     1      -8.602   7.887  70.570  1.00  0.00    -0.131 C  
BRANCH  13  14
HETATM   14  N   UNL     1      -8.579   6.299  70.362  1.00  0.00    -0.140 N  
HETATM   15  C   UNL     1     -10.908   5.700  70.373  1.00  0.00    -0.326 C  
HETATM   16  C   UNL     1      -8.935   5.664  71.749  1.00  0.00    -0.136 C  
HETATM   17  C   UNL     1     -10.315   5.036  71.587  1.00  0.00    -0.262 C  
HETATM   18  C   UNL     1      -9.711   5.844  69.454  1.00  0.00    -0.152 C  
BRANCH  14  19
HETATM   19  C   UNL     1      -7.094   5.955  70.000  1.00  0.00    -0.071 C  
BRANCH  19  20
HETATM   20  C   UNL     1      -6.640   6.303  68.557  1.00  0.00    -0.059 C  
BRANCH  20  21
HETATM   21  N   UNL     1      -6.903   5.321  67.486  1.00  0.00    -0.059 N  
HETATM   22  C   UNL     1      -7.616   5.572  66.330  1.00  0.00    -0.091 C  
HETATM   23  O   UNL     1      -7.902   6.719  66.010  1.00  0.00    -0.096 OA 
HETATM   24  H   UNL     1      -6.527   4.380  67.610  1.00  0.00     0.000 HD 
BRANCH  22  25
HETATM   25  C   UNL     1      -8.124   4.429  65.480  1.00  0.00    -0.105 A  
HETATM   26  C   UNL     1      -9.476   4.142  65.210  1.00  0.00    -0.173 A  
HETATM   27  C   UNL     1      -7.137   3.741  64.731  1.00  0.00    -0.065 A  
HETATM   28  H   UNL     1      -8.464   1.384  61.872  1.00  0.00     0.000 HD 
HETATM   29  C   UNL     1      -7.477   2.824  63.728  1.00  0.00    -0.066 A  
HETATM   30  O   UNL     1      -9.142   1.822  62.373  1.00  0.00    -0.072 OA 
HETATM   31  H   UNL     1     -11.323   2.419  63.070  1.00  0.00     0.000 HD 
HETATM   32  C   UNL     1      -9.806   3.244  64.177  1.00  0.00    -0.171 A  
HETATM   33 CL   UNL     1     -10.803   4.944  65.986  1.00  0.00    -0.281 Cl 
HETATM   34  C   UNL     1      -8.812   2.601  63.443  1.00  0.00    -0.085 A  
HETATM   35  O   UNL     1     -11.100   3.025  63.767  1.00  0.00    -0.267 OA 
ENDBRANCH  22  25
ENDBRANCH  20  21
ENDBRANCH  19  20
ENDBRANCH  14  19
ENDBRANCH  13  14
ENDBRANCH   4  13
BRANCH   8  36
HETATM   36  N   UNL     1     -10.739  13.093  67.875  1.00  0.00    -0.231 N  
HETATM   37  H   UNL     1      -9.755  12.979  68.121  1.00  0.00     0.000 HD 
HETATM   38  C   UNL     1     -11.150  14.300  67.331  1.00  0.00    -0.304 C  
HETATM   39  O   UNL     1     -12.236  14.544  66.830  1.00  0.00    -0.375 OA 
BRANCH  38  40
HETATM   40  C   UNL     1     -10.141  15.418  67.383  1.00  0.00    -0.233 C  
BRANCH  40  41
HETATM   41  C   UNL     1      -8.814  15.246  67.937  1.00  0.00    -0.165 A  
HETATM   42  H2  UNL     1      -4.591  15.421  67.986  1.00  0.00     0.000 HD 
HETATM   43  C   UNL     1      -6.629  15.400  67.862  1.00  0.00    -0.153 A  
HETATM   44  C   UNL     1      -8.552  15.360  69.294  1.00  0.00    -0.252 A  
HETATM   45  H1  UNL     1      -5.217  15.027  66.392  1.00  0.00     0.000 HD 
HETATM   46  S   UNL     1      -6.915  15.808  69.498  1.00  0.00    -0.166 SA 
HETATM   47  N   UNL     1      -5.388  15.271  67.367  1.00  0.00    -0.338 NA 
HETATM   48  N   UNL     1      -7.690  15.180  67.135  1.00  0.00    -0.208 NA 
ENDBRANCH  40  41
BRANCH  40  49
HETATM   49  N   UNL     1     -10.293  16.599  66.872  1.00  0.00    -0.301 NA 
HETATM   50  H   UNL     1     -10.456  16.733  65.874  1.00  0.00     0.000 HD 
BRANCH  49  51
HETATM   51  O   UNL     1     -10.225  17.670  67.746  1.00  0.00    -0.320 OA 
HETATM   52  O   UNL     1      -9.858  21.174  67.572  1.00  0.00    -0.306 OA 
HETATM   53  C   UNL     1     -10.650  19.074  65.758  1.00  0.00    -0.388 C  
HETATM   54  O   UNL     1      -9.875  19.663  69.250  1.00  0.00    -0.416 OA 
HETATM   55  C   UNL     1      -8.302  18.587  66.586  1.00  0.00    -0.285 C  
HETATM   56  C   UNL     1      -9.840  20.006  67.935  1.00  0.00    -0.406 C  
HETATM   57  C   UNL     1      -9.761  18.812  66.987  1.00  0.00    -0.311 C  
ENDBRANCH  49  51
ENDBRANCH  40  49
ENDBRANCH  38  40
ENDBRANCH   8  36
TORSDOF 11
ENDMDL
MODEL       15
REMARK 921   NORMALIZED FREE ENERGY PREDICTED BY IDOCK:   -6.04 KCAL/MOL
REMARK 922        TOTAL FREE ENERGY PREDICTED BY IDOCK:  -13.35 KCAL/MOL
REMARK 923 INTER-LIGAND FREE ENERGY PREDICTED BY IDOCK:  -10.61 KCAL/MOL
REMARK 924 INTRA-LIGAND FREE ENERGY PREDICTED BY IDOCK:   -2.74 KCAL/MOL
REMARK 927      BINDING AFFINITY PREDICTED BY RF-SCORE:    0.00 PKD
ROOT
HETATM    1  C   UNL     1     -10.857   7.000  71.579  1.00  0.00    -0.230 C  
HETATM    2  S   UNL     1     -11.409   6.948  69.868  1.00  0.00    -0.241 SA 
HETATM    3  C   UNL     1     -10.500   5.459  69.464  1.00  0.00    -0.273 C  
HETATM    4  C   UNL     1      -9.055   5.376  69.893  1.00  0.00    -0.165 C  
HETATM    5  CA  UNL     1      -8.613   6.004  71.027  1.00  0.00    -0.131 C  
HETATM    6  O   UNL     1      -8.282   8.520  73.000  1.00  0.00    -0.357 OA 
HETATM    7  C   UNL     1      -7.188   5.680  71.689  1.00  0.00    -0.082 C  
HETATM    8  CA  UNL     1     -10.716   8.418  72.205  1.00  0.00    -0.347 C  
HETATM    9  N   UNL     1      -9.429   6.891  71.680  1.00  0.00    -0.158 N  
HETATM   10  C   UNL     1      -9.234   7.975  72.461  1.00  0.00    -0.216 C  
HETATM   11  O   UNL     1      -7.203   5.655  72.951  1.00  0.00    -0.087 OA 
HETATM   12  OXT UNL     1      -6.297   5.264  70.893  1.00  0.00    -0.022 OA 
ENDROOT
BRANCH   4  13
HETATM   13  C   UNL     1      -8.099   4.517  69.064  1.00  0.00    -0.073 C  
BRANCH  13  14
HETATM   14  N   UNL     1      -8.347   2.945  68.882  1.00  0.00    -0.062 N  
HETATM   15  C   UNL     1      -7.738   2.031  71.021  1.00  0.00    -0.032 C  
HETATM   16  C   UNL     1      -6.933   2.282  68.768  1.00  0.00    -0.040 C  
HETATM   17  C   UNL     1      -6.742   1.469  70.043  1.00  0.00    -0.029 C  
HETATM   18  C   UNL     1      -8.937   2.329  70.141  1.00  0.00    -0.092 C  
BRANCH  14  19
HETATM   19  C   UNL     1      -9.097   2.804  67.513  1.00  0.00    -0.178 C  
BRANCH  19  20
HETATM   20  C   UNL     1      -8.222   2.910  66.236  1.00  0.00    -0.088 C  
BRANCH  20  21
HETATM   21  N   UNL     1      -8.376   4.106  65.382  1.00  0.00    -0.108 N  
HETATM   22  C   UNL     1      -7.509   5.182  65.351  1.00  0.00    -0.077 C  
HETATM   23  O   UNL     1      -6.412   5.114  65.890  1.00  0.00    -0.038 OA 
HETATM   24  H   UNL     1      -9.188   4.140  64.764  1.00  0.00     0.000 HD 
BRANCH  22  25
HETATM   25  C   UNL     1      -7.933   6.488  64.720  1.00  0.00    -0.120 A  
HETATM   26  C   UNL     1      -8.234   7.677  65.411  1.00  0.00    -0.136 A  
HETATM   27  C   UNL     1      -7.796   6.556  63.311  1.00  0.00    -0.104 A  
HETATM   28  H   UNL     1      -8.026  10.150  61.721  1.00  0.00     0.000 HD 
HETATM   29  C   UNL     1      -7.920   7.766  62.615  1.00  0.00    -0.132 A  
HETATM   30  O   UNL     1      -8.137  10.124  62.664  1.00  0.00    -0.130 OA 
HETATM   31  H   UNL     1      -8.535  10.927  64.855  1.00  0.00     0.000 HD 
HETATM   32  C   UNL     1      -8.324   8.892  64.705  1.00  0.00    -0.170 A  
HETATM   33 CL   UNL     1      -8.366   7.778  67.137  1.00  0.00    -0.117 Cl 
HETATM   34  C   UNL     1      -8.161   8.929  63.322  1.00  0.00    -0.174 A  
HETATM   35  O   UNL     1      -8.474  10.107  65.331  1.00  0.00    -0.142 OA 
ENDBRANCH  22  25
ENDBRANCH  20  21
ENDBRANCH  19  20
ENDBRANCH  14  19
ENDBRANCH  13  14
ENDBRANCH   4  13
BRANCH   8  36
HETATM   36  N   UNL     1     -10.948   9.600  71.294  1.00  0.00    -0.359 N  
HETATM   37  H   UNL     1     -10.169   9.944  70.732  1.00  0.00     0.000 HD 
HETATM   38  C   UNL     1     -12.174  10.239  71.189  1.00  0.00    -0.397 C  
HETATM   39  O   UNL     1     -13.237   9.861  71.653  1.00  0.00    -0.377 OA 
BRANCH  38  40
HETATM   40  C   UNL     1     -12.168  11.542  70.431  1.00  0.00    -0.355 C  
BRANCH  40  41
HETATM   41  C   UNL     1     -11.546  11.687  69.132  1.00  0.00    -0.314 A  
HETATM   42  H2  UNL     1     -11.389  12.493  64.986  1.00  0.00     0.000 HD 
HETATM   43  C   UNL     1     -11.576  12.144  66.990  1.00  0.00    -0.337 A  
HETATM   44  C   UNL     1     -10.236  12.114  68.978  1.00  0.00     0.064 A  
HETATM   45  H1  UNL     1     -12.883  11.692  65.447  1.00  0.00     0.000 HD 
HETATM   46  S   UNL     1     -10.075  12.833  67.434  1.00  0.00    -0.221 SA 
HETATM   47  N   UNL     1     -11.988  12.102  65.713  1.00  0.00    -0.550 NA 
HETATM   48  N   UNL     1     -12.276  11.624  67.960  1.00  0.00    -0.460 NA 
ENDBRANCH  40  41
BRANCH  40  49
HETATM   49  N   UNL     1     -12.781  12.627  70.788  1.00  0.00    -0.193 NA 
HETATM   50  H   UNL     1     -13.759  12.620  71.077  1.00  0.00     0.000 HD 
BRANCH  49  51
HETATM   51  O   UNL     1     -12.042  13.798  70.759  1.00  0.00    -0.341 OA 
HETATM   52  O   UNL     1     -11.776  16.775  72.631  1.00  0.00    -0.429 OA 
HETATM   53  C   UNL     1     -12.823  14.124  73.079  1.00  0.00    -0.385 C  
HETATM   54  O   UNL     1     -10.908  16.048  70.678  1.00  0.00    -0.291 OA 
HETATM   55  C   UNL     1     -14.029  15.146  71.096  1.00  0.00    -0.487 C  
HETATM   56  C   UNL     1     -11.758  15.945  71.732  1.00  0.00    -0.491 C  
HETATM   57  C   UNL     1     -12.675  14.725  71.671  1.00  0.00    -0.330 C  
ENDBRANCH  49  51
ENDBRANCH  40  49
ENDBRANCH  38  40
ENDBRANCH   8  36
TORSDOF 11
ENDMDL
MODEL       16
REMARK 921   NORMALIZED FREE ENERGY PREDICTED BY IDOCK:   -6.02 KCAL/MOL
REMARK 922        TOTAL FREE ENERGY PREDICTED BY IDOCK:  -13.33 KCAL/MOL
REMARK 923 INTER-LIGAND FREE ENERGY PREDICTED BY IDOCK:  -11.05 KCAL/MOL
REMARK 924 INTRA-LIGAND FREE ENERGY PREDICTED BY IDOCK:   -2.28 KCAL/MOL
REMARK 927      BINDING AFFINITY PREDICTED BY RF-SCORE:    0.00 PKD
ROOT
HETATM    1  C   UNL     1      -7.964   9.794  69.707  1.00  0.00    -0.164 C  
HETATM    2  S   UNL     1      -7.464   9.156  68.101  1.00  0.00    -0.084 SA 
HETATM    3  C   UNL     1      -8.435  10.334  67.165  1.00  0.00    -0.125 C  
HETATM    4  C   UNL     1      -9.870  10.556  67.581  1.00  0.00    -0.192 C  
HETATM    5  CA  UNL     1     -10.256  10.435  68.890  1.00  0.00    -0.205 C  
HETATM    6  O   UNL     1     -10.444   8.934  71.726  1.00  0.00    -0.314 OA 
HETATM    7  C   UNL     1     -11.672  10.973  69.420  1.00  0.00    -0.323 C  
HETATM    8  CA  UNL     1      -8.038   8.751  70.860  1.00  0.00    -0.150 C  
HETATM    9  N   UNL     1      -9.392   9.906  69.813  1.00  0.00    -0.220 N  
HETATM   10  C   UNL     1      -9.527   9.230  70.974  1.00  0.00    -0.243 C  
HETATM   11  O   UNL     1     -11.621  11.509  70.562  1.00  0.00    -0.245 OA 
HETATM   12  OXT UNL     1     -12.599  11.011  68.561  1.00  0.00    -0.202 OA 
ENDROOT
BRANCH   4  13
HETATM   13  C   UNL     1     -10.878  10.984  66.515  1.00  0.00    -0.209 C  
BRANCH  13  14
HETATM   14  N   UNL     1     -10.857  12.465  65.905  1.00  0.00    -0.262 N  
HETATM   15  C   UNL     1     -12.585  12.405  64.233  1.00  0.00    -0.494 C  
HETATM   16  C   UNL     1     -10.194  12.355  64.491  1.00  0.00    -0.299 C  
HETATM   17  C   UNL     1     -11.301  12.628  63.480  1.00  0.00    -0.527 C  
HETATM   18  C   UNL     1     -12.264  12.960  65.608  1.00  0.00    -0.463 C  
BRANCH  14  19
HETATM   19  C   UNL     1      -9.920  13.286  66.855  1.00  0.00    -0.250 C  
BRANCH  19  20
HETATM   20  C   UNL     1     -10.268  14.788  67.034  1.00  0.00    -0.253 C  
BRANCH  20  21
HETATM   21  N   UNL     1      -9.194  15.707  67.465  1.00  0.00    -0.199 N  
HETATM   22  C   UNL     1      -9.388  16.937  68.063  1.00  0.00    -0.238 C  
HETATM   23  O   UNL     1     -10.492  17.259  68.482  1.00  0.00    -0.343 OA 
HETATM   24  H   UNL     1      -8.231  15.409  67.307  1.00  0.00     0.000 HD 
BRANCH  22  25
HETATM   25  C   UNL     1      -8.257  17.937  68.140  1.00  0.00    -0.269 A  
HETATM   26  C   UNL     1      -8.171  19.139  67.412  1.00  0.00    -0.276 A  
HETATM   27  C   UNL     1      -7.333  17.733  69.195  1.00  0.00    -0.114 A  
HETATM   28  H   UNL     1      -4.921  20.740  69.991  1.00  0.00     0.000 HD 
HETATM   29  C   UNL     1      -6.378  18.699  69.538  1.00  0.00    -0.268 A  
HETATM   30  O   UNL     1      -5.521  20.891  69.270  1.00  0.00    -0.349 OA 
HETATM   31  H   UNL     1      -6.550  22.025  67.466  1.00  0.00     0.000 HD 
HETATM   32  C   UNL     1      -7.230  20.116  67.787  1.00  0.00    -0.294 A  
HETATM   33 CL   UNL     1      -9.267  19.574  66.140  1.00  0.00    -0.390 Cl 
HETATM   34  C   UNL     1      -6.350  19.895  68.844  1.00  0.00    -0.302 A  
HETATM   35  O   UNL     1      -7.185  21.366  67.213  1.00  0.00    -0.538 OA 
ENDBRANCH  22  25
ENDBRANCH  20  21
ENDBRANCH  19  20
ENDBRANCH  14  19
ENDBRANCH  13  14
ENDBRANCH   4  13
BRANCH   8  36
HETATM   36  N   UNL     1      -7.793   7.305  70.499  1.00  0.00    -0.097 N  
HETATM   37  H   UNL     1      -7.278   7.095  69.643  1.00  0.00     0.000 HD 
HETATM   38  C   UNL     1      -8.237   6.249  71.280  1.00  0.00    -0.122 C  
HETATM   39  O   UNL     1      -8.711   6.319  72.402  1.00  0.00    -0.122 OA 
BRANCH  38  40
HETATM   40  C   UNL     1      -8.126   4.882  70.655  1.00  0.00    -0.086 C  
BRANCH  40  41
HETATM   41  C   UNL     1      -7.992   3.674  71.440  1.00  0.00    -0.061 A  
HETATM   42  H2  UNL     1      -6.498   1.219  74.540  1.00  0.00     0.000 HD 
HETATM   43  C   UNL     1      -7.166   2.497  73.094  1.00  0.00    -0.040 A  
HETATM   44  C   UNL     1      -9.043   2.789  71.631  1.00  0.00    -0.092 A  
HETATM   45  H1  UNL     1      -5.270   2.305  73.907  1.00  0.00     0.000 HD 
HETATM   46  S   UNL     1      -8.782   1.939  73.092  1.00  0.00    -0.062 SA 
HETATM   47  N   UNL     1      -6.234   1.973  73.905  1.00  0.00    -0.011 NA 
HETATM   48  N   UNL     1      -6.883   3.433  72.230  1.00  0.00    -0.026 NA 
ENDBRANCH  40  41
BRANCH  40  49
HETATM   49  N   UNL     1      -8.230   4.619  69.390  1.00  0.00    -0.072 NA 
HETATM   50  H   UNL     1      -7.586   3.982  68.921  1.00  0.00     0.000 HD 
BRANCH  49  51
HETATM   51  O   UNL     1      -9.257   5.245  68.705  1.00  0.00    -0.110 OA 
HETATM   52  O   UNL     1     -11.021   4.833  65.679  1.00  0.00    -0.244 OA 
HETATM   53  C   UNL     1      -9.372   3.172  67.367  1.00  0.00    -0.232 C  
HETATM   54  O   UNL     1     -10.968   6.425  67.279  1.00  0.00    -0.342 OA 
HETATM   55  C   UNL     1      -8.011   5.179  66.627  1.00  0.00    -0.104 C  
HETATM   56  C   UNL     1     -10.496   5.300  66.681  1.00  0.00    -0.290 C  
HETATM   57  C   UNL     1      -9.266   4.707  67.362  1.00  0.00    -0.131 C  
ENDBRANCH  49  51
ENDBRANCH  40  49
ENDBRANCH  38  40
ENDBRANCH   8  36
TORSDOF 11
ENDMDL
MODEL       17
REMARK 921   NORMALIZED FREE ENERGY PREDICTED BY IDOCK:   -6.01 KCAL/MOL
REMARK 922        TOTAL FREE ENERGY PREDICTED BY IDOCK:  -13.30 KCAL/MOL
REMARK 923 INTER-LIGAND FREE ENERGY PREDICTED BY IDOCK:  -10.10 KCAL/MOL
REMARK 924 INTRA-LIGAND FREE ENERGY PREDICTED BY IDOCK:   -3.21 KCAL/MOL
REMARK 927      BINDING AFFINITY PREDICTED BY RF-SCORE:    0.00 PKD
ROOT
HETATM    1  C   UNL     1      -6.576  10.922  69.280  1.00  0.00    -0.079 C  
HETATM    2  S   UNL     1      -8.101  10.463  70.116  1.00  0.00     0.566 SA 
HETATM    3  C   UNL     1      -8.023   8.741  69.629  1.00  0.00    -0.096 C  
HETATM    4  C   UNL     1      -7.720   8.429  68.183  1.00  0.00    -0.103 C  
HETATM    5  CA  UNL     1      -6.928   9.254  67.430  1.00  0.00    -0.078 C  
HETATM    6  O   UNL     1      -6.019  12.096  66.235  1.00  0.00     0.069 OA 
HETATM    7  C   UNL     1      -6.319   8.803  66.015  1.00  0.00    -0.057 C  
HETATM    8  CA  UNL     1      -6.512  12.379  68.734  1.00  0.00    -0.084 C  
HETATM    9  N   UNL     1      -6.567  10.485  67.913  1.00  0.00    -0.060 N  
HETATM   10  C   UNL     1      -6.245  11.674  67.359  1.00  0.00    -0.101 C  
HETATM   11  O   UNL     1      -5.135   9.195  65.819  1.00  0.00    -0.035 OA 
HETATM   12  OXT UNL     1      -6.988   7.934  65.384  1.00  0.00    -0.057 OA 
ENDROOT
BRANCH   4  13
HETATM   13  C   UNL     1      -8.267   7.130  67.590  1.00  0.00    -0.114 C  
BRANCH  13  14
HETATM   14  N   UNL     1      -9.839   6.826  67.571  1.00  0.00    -0.126 N  
HETATM   15  C   UNL     1     -10.068   4.964  69.074  1.00  0.00    -0.210 C  
HETATM   16  C   UNL     1     -10.029   5.517  66.734  1.00  0.00    -0.183 C  
HETATM   17  C   UNL     1     -10.469   4.442  67.721  1.00  0.00     0.405 C  
HETATM   18  C   UNL     1     -10.346   6.450  68.954  1.00  0.00    -0.201 C  
BRANCH  14  19
HETATM   19  C   UNL     1     -10.479   8.032  66.801  1.00  0.00    -0.248 C  
BRANCH  19  20
HETATM   20  C   UNL     1     -10.655   9.346  67.607  1.00  0.00    -0.271 C  
BRANCH  20  21
HETATM   21  N   UNL     1     -10.962  10.586  66.863  1.00  0.00    -0.188 N  
HETATM   22  C   UNL     1     -10.296  11.025  65.735  1.00  0.00    -0.257 C  
HETATM   23  O   UNL     1      -9.526  10.284  65.137  1.00  0.00    -0.208 OA 
HETATM   24  H   UNL     1     -11.727  11.164  67.211  1.00  0.00     0.000 HD 
BRANCH  22  25
HETATM   25  C   UNL     1     -10.447  12.453  65.264  1.00  0.00    -0.316 A  
HETATM   26  C   UNL     1     -11.484  12.947  64.451  1.00  0.00    -0.357 A  
HETATM   27  C   UNL     1      -9.586  13.393  65.885  1.00  0.00    -0.127 A  
HETATM   28  H   UNL     1     -10.510  17.185  65.376  1.00  0.00     0.000 HD 
HETATM   29  C   UNL     1      -9.767  14.774  65.730  1.00  0.00    -0.347 A  
HETATM   30  O   UNL     1     -11.090  16.573  64.939  1.00  0.00    -0.539 OA 
HETATM   31  H   UNL     1     -12.880  15.822  63.587  1.00  0.00     0.000 HD 
HETATM   32  C   UNL     1     -11.676  14.336  64.329  1.00  0.00    -0.329 A  
HETATM   33 CL   UNL     1     -12.663  11.936  63.678  1.00  0.00    -0.595 Cl 
HETATM   34  C   UNL     1     -10.827  15.234  64.971  1.00  0.00    -0.439 A  
HETATM   35  O   UNL     1     -12.751  14.884  63.668  1.00  0.00    -0.689 OA 
ENDBRANCH  22  25
ENDBRANCH  20  21
ENDBRANCH  19  20
ENDBRANCH  14  19
ENDBRANCH  13  14
ENDBRANCH   4  13
BRANCH   8  36
HETATM   36  N   UNL     1      -7.762  13.218  68.860  1.00  0.00    -0.317 N  
HETATM   37  H   UNL     1      -8.651  12.819  68.558  1.00  0.00     0.000 HD 
HETATM   38  C   UNL     1      -7.753  14.507  69.369  1.00  0.00    -0.000 C  
HETATM   39  O   UNL     1      -6.823  15.067  69.925  1.00  0.00    -0.175 OA 
BRANCH  38  40
HETATM   40  C   UNL     1      -9.031  15.286  69.196  1.00  0.00    -0.233 C  
BRANCH  40  41
HETATM   41  C   UNL     1     -10.337  14.707  69.428  1.00  0.00    -0.122 A  
HETATM   42  H2  UNL     1     -13.133  11.600  70.064  1.00  0.00     0.000 HD 
HETATM   43  C   UNL     1     -11.695  13.021  69.770  1.00  0.00    -0.276 A  
HETATM   44  C   UNL     1     -11.325  15.359  70.150  1.00  0.00    -0.303 A  
HETATM   45  H1  UNL     1     -11.860  11.126  68.949  1.00  0.00     0.000 HD 
HETATM   46  S   UNL     1     -12.377  14.188  70.817  1.00  0.00    -0.389 SA 
HETATM   47  N   UNL     1     -12.266  11.822  69.574  1.00  0.00    -0.221 NA 
HETATM   48  N   UNL     1     -10.611  13.382  69.141  1.00  0.00    -0.079 NA 
ENDBRANCH  40  41
BRANCH  40  49
HETATM   49  N   UNL     1      -9.115  16.551  68.922  1.00  0.00    -0.248 NA 
HETATM   50  H   UNL     1      -9.587  17.204  69.548  1.00  0.00     0.000 HD 
BRANCH  49  51
HETATM   51  O   UNL     1      -8.532  16.972  67.739  1.00  0.00    -0.193 OA 
HETATM   52  O   UNL     1      -7.619  20.015  66.208  1.00  0.00    -0.288 OA 
HETATM   53  C   UNL     1      -8.208  19.133  68.891  1.00  0.00    -0.330 C  
HETATM   54  O   UNL     1      -7.680  17.860  65.539  1.00  0.00    -0.505 OA 
HETATM   55  C   UNL     1     -10.228  18.678  67.427  1.00  0.00    -0.422 C  
HETATM   56  C   UNL     1      -7.960  18.859  66.416  1.00  0.00    -0.285 C  
HETATM   57  C   UNL     1      -8.739  18.402  67.647  1.00  0.00    -0.260 C  
ENDBRANCH  49  51
ENDBRANCH  40  49
ENDBRANCH  38  40
ENDBRANCH   8  36
TORSDOF 11
ENDMDL
MODEL       18
REMARK 921   NORMALIZED FREE ENERGY PREDICTED BY IDOCK:   -5.91 KCAL/MOL
REMARK 922        TOTAL FREE ENERGY PREDICTED BY IDOCK:  -13.14 KCAL/MOL
REMARK 923 INTER-LIGAND FREE ENERGY PREDICTED BY IDOCK:  -11.49 KCAL/MOL
REMARK 924 INTRA-LIGAND FREE ENERGY PREDICTED BY IDOCK:   -1.65 KCAL/MOL
REMARK 927      BINDING AFFINITY PREDICTED BY RF-SCORE:    0.00 PKD
ROOT
HETATM    1  C   UNL     1      -9.042   9.102  71.299  1.00  0.00    -0.162 C  
HETATM    2  S   UNL     1      -8.283   8.526  69.773  1.00  0.00    -0.124 SA 
HETATM    3  C   UNL     1      -8.960   9.843  68.766  1.00  0.00    -0.140 C  
HETATM    4  C   UNL     1     -10.428  10.164  68.915  1.00  0.00    -0.230 C  
HETATM    5  CA  UNL     1     -11.074   9.993  70.111  1.00  0.00    -0.310 C  
HETATM    6  O   UNL     1     -11.928   8.335  72.729  1.00  0.00    -0.377 OA 
HETATM    7  C   UNL     1     -12.523  10.619  70.402  1.00  0.00    -0.338 C  
HETATM    8  CA  UNL     1      -9.419   7.997  72.329  1.00  0.00    -0.209 C  
HETATM    9  N   UNL     1     -10.450   9.332  71.138  1.00  0.00    -0.309 N  
HETATM   10  C   UNL     1     -10.862   8.597  72.193  1.00  0.00    -0.354 C  
HETATM   11  O   UNL     1     -12.658  11.074  71.572  1.00  0.00    -0.379 OA 
HETATM   12  OXT UNL     1     -13.256  10.794  69.386  1.00  0.00     0.205 OA 
ENDROOT
BRANCH   4  13
HETATM   13  C   UNL     1     -11.170  10.747  67.713  1.00  0.00    -0.316 C  
BRANCH  13  14
HETATM   14  N   UNL     1     -10.933  12.262  67.250  1.00  0.00    -0.244 N  
HETATM   15  C   UNL     1     -11.635  12.260  64.950  1.00  0.00    -0.395 C  
HETATM   16  C   UNL     1      -9.666  12.253  66.332  1.00  0.00    -0.234 C  
HETATM   17  C   UNL     1     -10.160  12.559  64.922  1.00  0.00    -0.249 C  
HETATM   18  C   UNL     1     -12.046  12.739  66.329  1.00  0.00    -0.332 C  
BRANCH  14  19
HETATM   19  C   UNL     1     -10.614  13.048  68.568  1.00  0.00    -0.258 C  
BRANCH  19  20
HETATM   20  C   UNL     1     -11.626  14.153  68.972  1.00  0.00    -0.304 C  
BRANCH  20  21
HETATM   21  N   UNL     1     -11.171  15.558  68.950  1.00  0.00    -0.283 N  
HETATM   22  C   UNL     1     -10.799  16.260  67.820  1.00  0.00    -0.315 C  
HETATM   23  O   UNL     1     -11.035  15.814  66.704  1.00  0.00    -0.286 OA 
HETATM   24  H   UNL     1     -11.127  16.050  69.843  1.00  0.00     0.000 HD 
BRANCH  22  25
HETATM   25  C   UNL     1     -10.025  17.552  67.941  1.00  0.00    -0.312 A  
HETATM   26  C   UNL     1      -8.682  17.673  68.345  1.00  0.00    -0.284 A  
HETATM   27  C   UNL     1     -10.656  18.695  67.388  1.00  0.00    -0.490 A  
HETATM   28  H   UNL     1      -8.370  21.857  66.876  1.00  0.00     0.000 HD 
HETATM   29  C   UNL     1      -9.971  19.904  67.213  1.00  0.00    -0.556 A  
HETATM   30  O   UNL     1      -7.932  21.109  67.262  1.00  0.00    -0.255 OA 
HETATM   31  H   UNL     1      -6.184  19.842  68.230  1.00  0.00     0.000 HD 
HETATM   32  C   UNL     1      -7.995  18.883  68.134  1.00  0.00    -0.300 A  
HETATM   33 CL   UNL     1      -7.746  16.355  68.974  1.00  0.00    -0.231 Cl 
HETATM   34  C   UNL     1      -8.637  19.981  67.567  1.00  0.00    -0.340 A  
HETATM   35  O   UNL     1      -6.647  19.025  68.373  1.00  0.00    -0.236 OA 
ENDBRANCH  22  25
ENDBRANCH  20  21
ENDBRANCH  19  20
ENDBRANCH  14  19
ENDBRANCH  13  14
ENDBRANCH   4  13
BRANCH   8  36
HETATM   36  N   UNL     1      -9.215   6.561  71.906  1.00  0.00    -0.149 N  
HETATM   37  H   UNL     1      -8.313   6.121  72.091  1.00  0.00     0.000 HD 
HETATM   38  C   UNL     1     -10.200   5.815  71.278  1.00  0.00    -0.215 C  
HETATM   39  O   UNL     1     -11.372   6.124  71.136  1.00  0.00    -0.299 OA 
BRANCH  38  40
HETATM   40  C   UNL     1      -9.754   4.494  70.706  1.00  0.00    -0.197 C  
BRANCH  40  41
HETATM   41  C   UNL     1      -9.220   3.428  71.527  1.00  0.00    -0.123 A  
HETATM   42  H2  UNL     1      -6.604   1.641  74.325  1.00  0.00     0.000 HD 
HETATM   43  C   UNL     1      -7.820   2.610  73.001  1.00  0.00    -0.051 A  
HETATM   44  C   UNL     1     -10.016   2.425  72.057  1.00  0.00    -0.161 A  
HETATM   45  H1  UNL     1      -5.781   2.813  73.306  1.00  0.00     0.000 HD 
HETATM   46  S   UNL     1      -9.262   1.816  73.465  1.00  0.00    -0.072 SA 
HETATM   47  N   UNL     1      -6.641   2.340  73.583  1.00  0.00    -0.020 NA 
HETATM   48  N   UNL     1      -7.928   3.461  72.018  1.00  0.00    -0.062 NA 
ENDBRANCH  40  41
BRANCH  40  49
HETATM   49  N   UNL     1      -9.878   4.125  69.469  1.00  0.00    -0.179 NA 
HETATM   50  H   UNL     1      -9.881   3.141  69.202  1.00  0.00     0.000 HD 
BRANCH  49  51
HETATM   51  O   UNL     1     -10.007   5.132  68.528  1.00  0.00    -0.155 OA 
HETATM   52  O   UNL     1      -8.957   5.780  65.224  1.00  0.00    -0.108 OA 
HETATM   53  C   UNL     1      -9.236   3.446  66.897  1.00  0.00    -0.202 C  
HETATM   54  O   UNL     1      -9.998   6.988  66.822  1.00  0.00    -0.196 OA 
HETATM   55  C   UNL     1      -7.637   5.062  68.021  1.00  0.00    -0.083 C  
HETATM   56  C   UNL     1      -9.320   5.894  66.387  1.00  0.00    -0.157 C  
HETATM   57  C   UNL     1      -9.052   4.859  67.476  1.00  0.00    -0.118 C  
ENDBRANCH  49  51
ENDBRANCH  40  49
ENDBRANCH  38  40
ENDBRANCH   8  36
TORSDOF 11
ENDMDL
MODEL       19
REMARK 921   NORMALIZED FREE ENERGY PREDICTED BY IDOCK:   -5.88 KCAL/MOL
REMARK 922        TOTAL FREE ENERGY PREDICTED BY IDOCK:  -13.09 KCAL/MOL
REMARK 923 INTER-LIGAND FREE ENERGY PREDICTED BY IDOCK:   -9.45 KCAL/MOL
REMARK 924 INTRA-LIGAND FREE ENERGY PREDICTED BY IDOCK:   -3.63 KCAL/MOL
REMARK 927      BINDING AFFINITY PREDICTED BY RF-SCORE:    0.00 PKD
ROOT
HETATM    1  C   UNL     1     -11.659  10.750  67.991  1.00  0.00    -0.163 C  
HETATM    2  S   UNL     1     -10.149  10.269  67.140  1.00  0.00    -0.221 SA 
HETATM    3  C   UNL     1      -9.951   8.737  68.046  1.00  0.00    -0.182 C  
HETATM    4  C   UNL     1     -10.102   8.780  69.548  1.00  0.00    -0.202 C  
HETATM    5  CA  UNL     1     -10.945   9.675  70.151  1.00  0.00    -0.275 C  
HETATM    6  O   UNL     1     -12.151  12.606  70.689  1.00  0.00    -0.357 OA 
HETATM    7  C   UNL     1     -11.380   9.542  71.690  1.00  0.00    -0.341 C  
HETATM    8  CA  UNL     1     -11.885  12.281  68.161  1.00  0.00    -0.311 C  
HETATM    9  N   UNL     1     -11.507  10.687  69.418  1.00  0.00    -0.269 N  
HETATM   10  C   UNL     1     -11.951  11.933  69.688  1.00  0.00    -0.298 C  
HETATM   11  O   UNL     1     -12.590   9.831  71.907  1.00  0.00    -0.385 OA 
HETATM   12  OXT UNL     1     -10.553   8.952  72.443  1.00  0.00    -0.261 OA 
ENDROOT
BRANCH   4  13
HETATM   13  C   UNL     1      -9.338   7.753  70.384  1.00  0.00    -0.160 C  
BRANCH  13  14
HETATM   14  N   UNL     1      -9.715   6.197  70.331  1.00  0.00    -0.167 N  
HETATM   15  C   UNL     1     -11.833   6.096  71.463  1.00  0.00    -0.204 C  
HETATM   16  C   UNL     1      -9.493   5.637  71.776  1.00  0.00    -0.149 C  
HETATM   17  C   UNL     1     -10.879   5.311  72.322  1.00  0.00    -0.269 C  
HETATM   18  C   UNL     1     -11.202   5.997  70.088  1.00  0.00    -0.342 C  
BRANCH  14  19
HETATM   19  C   UNL     1      -8.667   5.556  69.359  1.00  0.00    -0.107 C  
BRANCH  19  20
HETATM   20  C   UNL     1      -7.281   6.250  69.287  1.00  0.00    -0.086 C  
BRANCH  20  21
HETATM   21  N   UNL     1      -6.811   6.737  67.974  1.00  0.00    -0.075 N  
HETATM   22  C   UNL     1      -6.115   7.911  67.760  1.00  0.00    -0.046 C  
HETATM   23  O   UNL     1      -5.641   8.535  68.700  1.00  0.00    -0.036 OA 
HETATM   24  H   UNL     1      -7.017   6.159  67.158  1.00  0.00     0.000 HD 
BRANCH  22  25
HETATM   25  C   UNL     1      -5.992   8.485  66.367  1.00  0.00    -0.048 A  
HETATM   26  C   UNL     1      -6.077   7.757  65.165  1.00  0.00    -0.038 A  
HETATM   27  C   UNL     1      -6.015   9.901  66.288  1.00  0.00    -0.064 A  
HETATM   28  H   UNL     1      -6.590  11.424  62.704  1.00  0.00     0.000 HD 
HETATM   29  C   UNL     1      -6.149  10.569  65.063  1.00  0.00    -0.081 A  
HETATM   30  O   UNL     1      -6.562  10.475  62.733  1.00  0.00    -0.142 OA 
HETATM   31  H   UNL     1      -6.587   8.249  61.932  1.00  0.00     0.000 HD 
HETATM   32  C   UNL     1      -6.244   8.439  63.945  1.00  0.00    -0.072 A  
HETATM   33 CL   UNL     1      -6.132   6.025  65.094  1.00  0.00    -0.029 Cl 
HETATM   34  C   UNL     1      -6.286   9.830  63.903  1.00  0.00    -0.117 A  
HETATM   35  O   UNL     1      -6.474   7.789  62.755  1.00  0.00    -0.073 OA 
ENDBRANCH  22  25
ENDBRANCH  20  21
ENDBRANCH  19  20
ENDBRANCH  14  19
ENDBRANCH  13  14
ENDBRANCH   4  13
BRANCH   8  36
HETATM   36  N   UNL     1     -10.777  13.198  67.697  1.00  0.00    -0.236 N  
HETATM   37  H   UNL     1     -10.062  12.824  67.073  1.00  0.00     0.000 HD 
HETATM   38  C   UNL     1     -10.689  14.526  68.085  1.00  0.00    -0.239 C  
HETATM   39  O   UNL     1     -11.537  15.171  68.679  1.00  0.00    -0.309 OA 
BRANCH  38  40
HETATM   40  C   UNL     1      -9.400  15.224  67.737  1.00  0.00    -0.196 C  
BRANCH  40  41
HETATM   41  C   UNL     1      -9.301  16.661  67.603  1.00  0.00    -0.224 A  
HETATM   42  H2  UNL     1     -10.516  20.527  66.399  1.00  0.00     0.000 HD 
HETATM   43  C   UNL     1     -10.036  18.619  66.948  1.00  0.00    -0.345 A  
HETATM   44  C   UNL     1      -8.695  17.459  68.562  1.00  0.00    -0.277 A  
HETATM   45  H1  UNL     1     -10.940  19.302  65.213  1.00  0.00     0.000 HD 
HETATM   46  S   UNL     1      -9.361  19.031  68.464  1.00  0.00    -0.391 SA 
HETATM   47  N   UNL     1     -10.538  19.547  66.117  1.00  0.00    -0.487 NA 
HETATM   48  N   UNL     1      -9.995  17.355  66.629  1.00  0.00    -0.294 NA 
ENDBRANCH  40  41
BRANCH  40  49
HETATM   49  N   UNL     1      -8.241  14.654  67.613  1.00  0.00    -0.157 NA 
HETATM   50  H   UNL     1      -7.506  15.058  67.033  1.00  0.00     0.000 HD 
BRANCH  49  51
HETATM   51  O   UNL     1      -8.051  13.472  68.307  1.00  0.00    -0.143 OA 
HETATM   52  O   UNL     1      -5.706  12.104  70.559  1.00  0.00    -0.157 OA 
HETATM   53  C   UNL     1      -6.428  14.750  69.660  1.00  0.00    -0.150 C  
HETATM   54  O   UNL     1      -7.496  11.293  69.447  1.00  0.00    -0.085 OA 
HETATM   55  C   UNL     1      -5.719  13.376  67.650  1.00  0.00    -0.072 C  
HETATM   56  C   UNL     1      -6.567  12.251  69.702  1.00  0.00    -0.020 C  
HETATM   57  C   UNL     1      -6.698  13.490  68.819  1.00  0.00    -0.105 C  
ENDBRANCH  49  51
ENDBRANCH  40  49
ENDBRANCH  38  40
ENDBRANCH   8  36
TORSDOF 11
ENDMDL
MODEL       20
REMARK 921   NORMALIZED FREE ENERGY PREDICTED BY IDOCK:   -5.86 KCAL/MOL
REMARK 922        TOTAL FREE ENERGY PREDICTED BY IDOCK:  -13.06 KCAL/MOL
REMARK 923 INTER-LIGAND FREE ENERGY PREDICTED BY IDOCK:  -10.91 KCAL/MOL
REMARK 924 INTRA-LIGAND FREE ENERGY PREDICTED BY IDOCK:   -2.15 KCAL/MOL
REMARK 927      BINDING AFFINITY PREDICTED BY RF-SCORE:    0.00 PKD
ROOT
HETATM    1  C   UNL     1      -8.088  10.362  68.696  1.00  0.00    -0.118 C  
HETATM    2  S   UNL     1      -9.832   9.953  68.535  1.00  0.00    -0.161 SA 
HETATM    3  C   UNL     1      -9.542   8.397  67.697  1.00  0.00    -0.153 C  
HETATM    4  C   UNL     1      -8.558   8.384  66.552  1.00  0.00    -0.128 C  
HETATM    5  CA  UNL     1      -7.484   9.234  66.529  1.00  0.00    -0.093 C  
HETATM    6  O   UNL     1      -6.063  12.110  66.744  1.00  0.00    -0.204 OA 
HETATM    7  C   UNL     1      -6.253   9.036  65.518  1.00  0.00    -0.063 C  
HETATM    8  CA  UNL     1      -7.741  11.879  68.668  1.00  0.00    -0.113 C  
HETATM    9  N   UNL     1      -7.399  10.254  67.440  1.00  0.00    -0.092 N  
HETATM   10  C   UNL     1      -6.828  11.478  67.458  1.00  0.00    -0.098 C  
HETATM   11  O   UNL     1      -5.126   9.284  66.030  1.00  0.00    -0.035 OA 
HETATM   12  OXT UNL     1      -6.526   8.444  64.434  1.00  0.00    -0.065 OA 
ENDROOT
BRANCH   4  13
HETATM   13  C   UNL     1      -8.749   7.351  65.441  1.00  0.00     0.030 C  
BRANCH  13  14
HETATM   14  N   UNL     1      -8.287   5.830  65.637  1.00  0.00    -0.132 N  
HETATM   15  C   UNL     1      -9.101   4.739  63.655  1.00  0.00    -0.022 C  
HETATM   16  C   UNL     1      -9.575   5.017  65.996  1.00  0.00    -0.168 C  
HETATM   17  C   UNL     1      -9.859   4.119  64.797  1.00  0.00    -0.195 C  
HETATM   18  C   UNL     1      -7.827   5.220  64.322  1.00  0.00    -0.101 C  
BRANCH  14  19
HETATM   19  C   UNL     1      -7.324   5.851  66.873  1.00  0.00    -0.079 C  
BRANCH  19  20
HETATM   20  C   UNL     1      -7.696   4.911  68.050  1.00  0.00    -0.083 C  
BRANCH  20  21
HETATM   21  N   UNL     1      -8.463   5.476  69.179  1.00  0.00    -0.104 N  
HETATM   22  C   UNL     1      -9.590   4.909  69.742  1.00  0.00    -0.172 C  
HETATM   23  O   UNL     1      -9.911   3.759  69.472  1.00  0.00    -0.149 OA 
HETATM   24  H   UNL     1      -8.133   6.356  69.576  1.00  0.00     0.000 HD 
BRANCH  22  25
HETATM   25  C   UNL     1     -10.491   5.726  70.641  1.00  0.00    -0.331 A  
HETATM   26  C   UNL     1     -10.274   5.986  72.007  1.00  0.00    -0.194 A  
HETATM   27  C   UNL     1     -11.509   6.457  69.979  1.00  0.00    -0.496 A  
HETATM   28  H   UNL     1     -13.294   9.248  72.105  1.00  0.00     0.000 HD 
HETATM   29  C   UNL     1     -12.265   7.434  70.641  1.00  0.00    -0.125 A  
HETATM   30  O   UNL     1     -12.626   8.759  72.572  1.00  0.00    -0.391 OA 
HETATM   31  H   UNL     1     -11.260   8.075  74.378  1.00  0.00     0.000 HD 
HETATM   32  C   UNL     1     -11.016   6.993  72.652  1.00  0.00    -0.278 A  
HETATM   33 CL   UNL     1      -9.024   5.230  72.942  1.00  0.00    -0.121 Cl 
HETATM   34  C   UNL     1     -11.994   7.710  71.969  1.00  0.00    -0.302 A  
HETATM   35  O   UNL     1     -10.759   7.395  73.943  1.00  0.00    -0.319 OA 
ENDBRANCH  22  25
ENDBRANCH  20  21
ENDBRANCH  19  20
ENDBRANCH  14  19
ENDBRANCH  13  14
ENDBRANCH   4  13
BRANCH   8  36
HETATM   36  N   UNL     1      -8.874  12.842  68.402  1.00  0.00    -0.311 N  
HETATM   37  H   UNL     1      -9.789  12.464  68.155  1.00  0.00     0.000 HD 
HETATM   38  C   UNL     1      -8.725  14.218  68.479  1.00  0.00    -0.175 C  
HETATM   39  O   UNL     1      -7.763  14.825  68.920  1.00  0.00    -0.132 OA 
BRANCH  38  40
HETATM   40  C   UNL     1      -9.877  15.030  67.947  1.00  0.00    -0.217 C  
BRANCH  40  41
HETATM   41  C   UNL     1      -9.816  16.469  67.800  1.00  0.00    -0.240 A  
HETATM   42  H2  UNL     1      -9.837  20.149  65.721  1.00  0.00     0.000 HD 
HETATM   43  C   UNL     1      -9.860  18.318  66.624  1.00  0.00    -0.352 A  
HETATM   44  C   UNL     1     -10.292  17.338  68.770  1.00  0.00    -0.358 A  
HETATM   45  H1  UNL     1      -9.040  18.878  64.806  1.00  0.00     0.000 HD 
HETATM   46  S   UNL     1     -10.717  18.815  68.018  1.00  0.00    -0.097 SA 
HETATM   47  N   UNL     1      -9.551  19.174  65.637  1.00  0.00    -0.238 NA 
HETATM   48  N   UNL     1      -9.487  17.068  66.598  1.00  0.00    -0.252 NA 
ENDBRANCH  40  41
BRANCH  40  49
HETATM   49  N   UNL     1     -10.989  14.552  67.481  1.00  0.00    -0.285 NA 
HETATM   50  H   UNL     1     -11.487  13.799  67.955  1.00  0.00     0.000 HD 
BRANCH  49  51
HETATM   51  O   UNL     1     -11.465  15.112  66.308  1.00  0.00    -0.280 OA 
HETATM   52  O   UNL     1     -12.652  14.014  63.174  1.00  0.00    -0.733 OA 
HETATM   53  C   UNL     1     -12.298  12.845  65.788  1.00  0.00    -0.437 C  
HETATM   54  O   UNL     1     -12.144  16.027  64.060  1.00  0.00    -0.810 OA 
HETATM   55  C   UNL     1     -10.049  13.677  64.961  1.00  0.00    -0.293 C  
HETATM   56  C   UNL     1     -12.155  14.669  64.080  1.00  0.00    -0.320 C  
HETATM   57  C   UNL     1     -11.487  14.063  65.312  1.00  0.00    -0.322 C  
ENDBRANCH  49  51
ENDBRANCH  40  49
ENDBRANCH  38  40
ENDBRANCH   8  36
TORSDOF 11
ENDMDL
MODEL       21
REMARK 921   NORMALIZED FREE ENERGY PREDICTED BY IDOCK:   -5.82 KCAL/MOL
REMARK 922        TOTAL FREE ENERGY PREDICTED BY IDOCK:  -13.00 KCAL/MOL
REMARK 923 INTER-LIGAND FREE ENERGY PREDICTED BY IDOCK:  -10.47 KCAL/MOL
REMARK 924 INTRA-LIGAND FREE ENERGY PREDICTED BY IDOCK:   -2.53 KCAL/MOL
REMARK 927      BINDING AFFINITY PREDICTED BY RF-SCORE:    0.00 PKD
ROOT
HETATM    1  C   UNL     1     -11.026   7.460  71.201  1.00  0.00    -0.246 C  
HETATM    2  S   UNL     1     -11.322   7.274  69.436  1.00  0.00     0.196 SA 
HETATM    3  C   UNL     1     -10.484   5.696  69.311  1.00  0.00    -0.286 C  
HETATM    4  C   UNL     1      -9.129   5.563  69.964  1.00  0.00    -0.160 C  
HETATM    5  CA  UNL     1      -8.811   6.271  71.092  1.00  0.00    -0.142 C  
HETATM    6  O   UNL     1      -8.576   8.945  72.862  1.00  0.00    -0.335 OA 
HETATM    7  C   UNL     1      -7.529   5.923  71.993  1.00  0.00    -0.096 C  
HETATM    8  CA  UNL     1     -10.867   8.922  71.713  1.00  0.00    -0.365 C  
HETATM    9  N   UNL     1      -9.641   7.270  71.530  1.00  0.00    -0.157 N  
HETATM   10  C   UNL     1      -9.478   8.412  72.232  1.00  0.00    -0.297 C  
HETATM   11  O   UNL     1      -7.733   6.025  73.234  1.00  0.00    -0.100 OA 
HETATM   12  OXT UNL     1      -6.566   5.373  71.384  1.00  0.00    -0.037 OA 
ENDROOT
BRANCH   4  13
HETATM   13  C   UNL     1      -8.133   4.565  69.372  1.00  0.00    -0.064 C  
BRANCH  13  14
HETATM   14  N   UNL     1      -8.428   2.991  69.392  1.00  0.00    -0.059 N  
HETATM   15  C   UNL     1      -7.976   2.366  71.669  1.00  0.00    -0.048 C  
HETATM   16  C   UNL     1      -7.035   2.279  69.457  1.00  0.00    -0.033 C  
HETATM   17  C   UNL     1      -6.947   1.645  70.841  1.00  0.00    -0.032 C  
HETATM   18  C   UNL     1      -9.110   2.573  70.684  1.00  0.00    -0.116 C  
BRANCH  14  19
HETATM   19  C   UNL     1      -9.103   2.684  68.012  1.00  0.00    -0.183 C  
BRANCH  19  20
HETATM   20  C   UNL     1      -8.193   2.800  66.760  1.00  0.00    -0.087 C  
BRANCH  20  21
HETATM   21  N   UNL     1      -8.300   4.017  65.929  1.00  0.00    -0.108 N  
HETATM   22  C   UNL     1      -7.275   4.912  65.689  1.00  0.00    -0.072 C  
HETATM   23  O   UNL     1      -6.120   4.631  65.984  1.00  0.00    -0.025 OA 
HETATM   24  H   UNL     1      -9.204   4.213  65.498  1.00  0.00     0.000 HD 
BRANCH  22  25
HETATM   25  C   UNL     1      -7.572   6.285  65.131  1.00  0.00    -0.092 A  
HETATM   26  C   UNL     1      -7.524   7.494  65.850  1.00  0.00    -0.082 A  
HETATM   27  C   UNL     1      -7.692   6.356  63.720  1.00  0.00    -0.111 A  
HETATM   28  H   UNL     1      -7.580   9.965  62.154  1.00  0.00     0.000 HD 
HETATM   29  C   UNL     1      -7.730   7.582  63.044  1.00  0.00    -0.123 A  
HETATM   30  O   UNL     1      -7.515   9.941  63.101  1.00  0.00    -0.123 OA 
HETATM   31  H   UNL     1      -7.346  10.756  65.316  1.00  0.00     0.000 HD 
HETATM   32  C   UNL     1      -7.530   8.719  65.157  1.00  0.00    -0.090 A  
HETATM   33 CL   UNL     1      -7.309   7.582  67.569  1.00  0.00    -0.100 Cl 
HETATM   34  C   UNL     1      -7.625   8.755  63.768  1.00  0.00    -0.124 A  
HETATM   35  O   UNL     1      -7.343   9.930  65.783  1.00  0.00    -0.100 OA 
ENDBRANCH  22  25
ENDBRANCH  20  21
ENDBRANCH  19  20
ENDBRANCH  14  19
ENDBRANCH  13  14
ENDBRANCH   4  13
BRANCH   8  36
HETATM   36  N   UNL     1     -10.868  10.020  70.675  1.00  0.00    -0.319 N  
HETATM   37  H   UNL     1      -9.985  10.271  70.229  1.00  0.00     0.000 HD 
HETATM   38  C   UNL     1     -12.016  10.702  70.304  1.00  0.00    -0.339 C  
HETATM   39  O   UNL     1     -13.163  10.421  70.607  1.00  0.00    -0.350 OA 
BRANCH  38  40
HETATM   40  C   UNL     1     -11.801  11.923  69.447  1.00  0.00    -0.327 C  
BRANCH  40  41
HETATM   41  C   UNL     1     -12.127  13.260  69.897  1.00  0.00    -0.308 A  
HETATM   42  H2  UNL     1     -13.104  16.266  72.704  1.00  0.00     0.000 HD 
HETATM   43  C   UNL     1     -12.610  14.741  71.439  1.00  0.00    -0.326 A  
HETATM   44  C   UNL     1     -11.632  14.397  69.277  1.00  0.00    -0.304 A  
HETATM   45  H1  UNL     1     -13.833  14.720  73.111  1.00  0.00     0.000 HD 
HETATM   46  S   UNL     1     -11.605  15.672  70.415  1.00  0.00    -0.384 SA 
HETATM   47  N   UNL     1     -13.234  15.275  72.501  1.00  0.00    -0.387 NA 
HETATM   48  N   UNL     1     -12.768  13.491  71.100  1.00  0.00    -0.354 NA 
ENDBRANCH  40  41
BRANCH  40  49
HETATM   49  N   UNL     1     -11.230  11.940  68.283  1.00  0.00    -0.239 NA 
HETATM   50  H   UNL     1     -10.246  11.697  68.166  1.00  0.00     0.000 HD 
BRANCH  49  51
HETATM   51  O   UNL     1     -12.021  12.303  67.207  1.00  0.00    -0.546 OA 
HETATM   52  O   UNL     1     -11.853  12.211  63.685  1.00  0.00    -0.442 OA 
HETATM   53  C   UNL     1     -10.518  10.874  65.865  1.00  0.00    -0.285 C  
HETATM   54  O   UNL     1     -13.281  13.117  65.181  1.00  0.00    -0.683 OA 
HETATM   55  C   UNL     1     -10.148  13.372  66.098  1.00  0.00    -0.304 C  
HETATM   56  C   UNL     1     -12.115  12.507  64.843  1.00  0.00    -0.440 C  
HETATM   57  C   UNL     1     -11.185  12.251  66.026  1.00  0.00    -0.332 C  
ENDBRANCH  49  51
ENDBRANCH  40  49
ENDBRANCH  38  40
ENDBRANCH   8  36
TORSDOF 11
ENDMDL
MODEL       22
REMARK 921   NORMALIZED FREE ENERGY PREDICTED BY IDOCK:   -5.79 KCAL/MOL
REMARK 922        TOTAL FREE ENERGY PREDICTED BY IDOCK:  -12.94 KCAL/MOL
REMARK 923 INTER-LIGAND FREE ENERGY PREDICTED BY IDOCK:   -9.22 KCAL/MOL
REMARK 924 INTRA-LIGAND FREE ENERGY PREDICTED BY IDOCK:   -3.72 KCAL/MOL
REMARK 927      BINDING AFFINITY PREDICTED BY RF-SCORE:    0.00 PKD
ROOT
HETATM    1  C   UNL     1      -7.073   9.718  65.564  1.00  0.00    -0.108 C  
HETATM    2  S   UNL     1      -8.739   9.352  64.992  1.00  0.00    -0.196 SA 
HETATM    3  C   UNL     1      -9.273  11.062  64.990  1.00  0.00    -0.197 C  
HETATM    4  C   UNL     1      -8.959  11.901  66.205  1.00  0.00    -0.157 C  
HETATM    5  CA  UNL     1      -7.835  11.672  66.954  1.00  0.00    -0.156 C  
HETATM    6  O   UNL     1      -5.785   9.832  68.612  1.00  0.00    -0.039 OA 
HETATM    7  C   UNL     1      -7.296  12.726  68.038  1.00  0.00    -0.117 C  
HETATM    8  CA  UNL     1      -6.399   8.621  66.438  1.00  0.00    -0.061 C  
HETATM    9  N   UNL     1      -7.085  10.545  66.737  1.00  0.00    -0.103 N  
HETATM   10  C   UNL     1      -6.275   9.774  67.494  1.00  0.00    -0.059 C  
HETATM   11  O   UNL     1      -6.038  12.834  68.066  1.00  0.00    -0.076 OA 
HETATM   12  OXT UNL     1      -8.173  13.476  68.555  1.00  0.00    -0.152 OA 
ENDROOT
BRANCH   4  13
HETATM   13  C   UNL     1      -9.893  13.061  66.549  1.00  0.00    -0.263 C  
BRANCH  13  14
HETATM   14  N   UNL     1     -11.471  12.835  66.704  1.00  0.00    -0.330 N  
HETATM   15  C   UNL     1     -12.296  13.103  64.462  1.00  0.00    -0.447 C  
HETATM   16  C   UNL     1     -12.137  14.246  66.572  1.00  0.00    -0.429 C  
HETATM   17  C   UNL     1     -12.898  14.234  65.251  1.00  0.00    -0.300 C  
HETATM   18  C   UNL     1     -12.035  12.056  65.526  1.00  0.00    -0.095 C  
BRANCH  14  19
HETATM   19  C   UNL     1     -11.666  12.303  68.164  1.00  0.00    -0.349 C  
BRANCH  19  20
HETATM   20  C   UNL     1     -11.290  10.818  68.411  1.00  0.00    -0.302 C  
BRANCH  20  21
HETATM   21  N   UNL     1     -10.481  10.492  69.604  1.00  0.00    -0.318 N  
HETATM   22  C   UNL     1      -9.700   9.362  69.754  1.00  0.00    -0.199 C  
HETATM   23  O   UNL     1      -9.452   8.643  68.794  1.00  0.00    -0.142 OA 
HETATM   24  H   UNL     1     -10.501  11.154  70.380  1.00  0.00     0.000 HD 
BRANCH  22  25
HETATM   25  C   UNL     1      -9.203   8.951  71.122  1.00  0.00    -0.324 A  
HETATM   26  C   UNL     1     -10.003   8.487  72.183  1.00  0.00    -0.317 A  
HETATM   27  C   UNL     1      -7.797   8.825  71.245  1.00  0.00    -0.167 A  
HETATM   28  H   UNL     1      -6.505   6.935  74.448  1.00  0.00     0.000 HD 
HETATM   29  C   UNL     1      -7.205   8.230  72.368  1.00  0.00    -0.127 A  
HETATM   30  O   UNL     1      -7.450   7.024  74.392  1.00  0.00    -0.108 OA 
HETATM   31  H   UNL     1      -9.718   6.838  75.039  1.00  0.00     0.000 HD 
HETATM   32  C   UNL     1      -9.399   7.862  73.290  1.00  0.00    -0.286 A  
HETATM   33 CL   UNL     1     -11.737   8.505  72.159  1.00  0.00    -0.425 Cl 
HETATM   34  C   UNL     1      -8.015   7.731  73.372  1.00  0.00    -0.147 A  
HETATM   35  O   UNL     1     -10.125   7.261  74.293  1.00  0.00    -0.191 OA 
ENDBRANCH  22  25
ENDBRANCH  20  21
ENDBRANCH  19  20
ENDBRANCH  14  19
ENDBRANCH  13  14
ENDBRANCH   4  13
BRANCH   8  36
HETATM   36  N   UNL     1      -7.239   7.420  66.807  1.00  0.00    -0.085 N  
HETATM   37  H   UNL     1      -7.906   7.507  67.574  1.00  0.00     0.000 HD 
HETATM   38  C   UNL     1      -7.142   6.204  66.149  1.00  0.00    -0.067 C  
HETATM   39  O   UNL     1      -6.530   5.978  65.118  1.00  0.00    -0.037 OA 
BRANCH  38  40
HETATM   40  C   UNL     1      -7.864   5.051  66.797  1.00  0.00    -0.100 C  
BRANCH  40  41
HETATM   41  C   UNL     1      -8.471   3.982  66.034  1.00  0.00    -0.109 A  
HETATM   42  H2  UNL     1     -10.842   2.270  62.981  1.00  0.00     0.000 HD 
HETATM   43  C   UNL     1      -9.710   3.202  64.403  1.00  0.00    -0.154 A  
HETATM   44  C   UNL     1      -7.855   2.752  65.854  1.00  0.00    -0.081 A  
HETATM   45  H1  UNL     1     -11.537   3.761  63.600  1.00  0.00     0.000 HD 
HETATM   46  S   UNL     1      -8.444   2.053  64.409  1.00  0.00    -0.090 SA 
HETATM   47  N   UNL     1     -10.781   3.076  63.604  1.00  0.00    -0.236 NA 
HETATM   48  N   UNL     1      -9.593   4.186  65.252  1.00  0.00    -0.174 NA 
ENDBRANCH  40  41
BRANCH  40  49
HETATM   49  N   UNL     1      -7.945   4.830  68.072  1.00  0.00    -0.085 NA 
HETATM   50  H   UNL     1      -7.201   4.353  68.581  1.00  0.00     0.000 HD 
BRANCH  49  51
HETATM   51  O   UNL     1      -9.091   5.273  68.709  1.00  0.00    -0.108 OA 
HETATM   52  O   UNL     1     -10.571   5.038  71.903  1.00  0.00    -0.209 OA 
HETATM   53  C   UNL     1      -7.926   4.680  70.805  1.00  0.00    -0.076 C  
HETATM   54  O   UNL     1     -11.237   5.845  69.902  1.00  0.00    -0.378 OA 
HETATM   55  C   UNL     1      -9.510   3.075  69.643  1.00  0.00    -0.177 C  
HETATM   56  C   UNL     1     -10.381   5.154  70.699  1.00  0.00    -0.235 C  
HETATM   57  C   UNL     1      -9.199   4.541  69.952  1.00  0.00    -0.127 C  
ENDBRANCH  49  51
ENDBRANCH  40  49
ENDBRANCH  38  40
ENDBRANCH   8  36
TORSDOF 11
ENDMDL
MODEL       23
REMARK 921   NORMALIZED FREE ENERGY PREDICTED BY IDOCK:   -5.77 KCAL/MOL
REMARK 922        TOTAL FREE ENERGY PREDICTED BY IDOCK:  -12.91 KCAL/MOL
REMARK 923 INTER-LIGAND FREE ENERGY PREDICTED BY IDOCK:   -9.70 KCAL/MOL
REMARK 924 INTRA-LIGAND FREE ENERGY PREDICTED BY IDOCK:   -3.21 KCAL/MOL
REMARK 927      BINDING AFFINITY PREDICTED BY RF-SCORE:    0.00 PKD
ROOT
HETATM    1  C   UNL     1      -8.498  10.797  65.828  1.00  0.00    -0.174 C  
HETATM    2  S   UNL     1     -10.142  10.492  66.492  1.00  0.00    -0.232 SA 
HETATM    3  C   UNL     1     -10.453  12.206  66.911  1.00  0.00    -0.225 C  
HETATM    4  C   UNL     1      -9.369  12.961  67.641  1.00  0.00    -0.195 C  
HETATM    5  CA  UNL     1      -8.045  12.670  67.447  1.00  0.00    -0.182 C  
HETATM    6  O   UNL     1      -5.512  10.699  67.255  1.00  0.00    -0.040 OA 
HETATM    7  C   UNL     1      -6.869  13.645  67.939  1.00  0.00    -0.153 C  
HETATM    8  CA  UNL     1      -7.473   9.637  65.992  1.00  0.00    -0.099 C  
HETATM    9  N   UNL     1      -7.687  11.548  66.744  1.00  0.00    -0.152 N  
HETATM   10  C   UNL     1      -6.621  10.719  66.742  1.00  0.00    -0.105 C  
HETATM   11  O   UNL     1      -5.904  13.733  67.129  1.00  0.00    -0.235 OA 
HETATM   12  OXT UNL     1      -7.144  14.373  68.936  1.00  0.00    -0.104 OA 
ENDROOT
BRANCH   4  13
HETATM   13  C   UNL     1      -9.779  14.111  68.562  1.00  0.00    -0.219 C  
BRANCH  13  14
HETATM   14  N   UNL     1     -10.908  15.159  68.124  1.00  0.00    -0.258 N  
HETATM   15  C   UNL     1      -9.911  16.308  66.262  1.00  0.00    -0.335 C  
HETATM   16  C   UNL     1     -10.415  16.567  68.600  1.00  0.00    -0.304 C  
HETATM   17  C   UNL     1     -10.082  17.350  67.334  1.00  0.00    -0.321 C  
HETATM   18  C   UNL     1     -10.981  15.292  66.611  1.00  0.00    -0.297 C  
BRANCH  14  19
HETATM   19  C   UNL     1     -12.182  14.753  68.940  1.00  0.00    -0.121 C  
BRANCH  19  20
HETATM   20  C   UNL     1     -11.940  13.904  70.216  1.00  0.00    -0.331 C  
BRANCH  20  21
HETATM   21  N   UNL     1     -12.285  12.468  70.175  1.00  0.00    -0.276 N  
HETATM   22  C   UNL     1     -12.707  11.716  71.254  1.00  0.00    -0.340 C  
HETATM   23  O   UNL     1     -13.038  12.259  72.300  1.00  0.00    -0.396 OA 
HETATM   24  H   UNL     1     -12.204  11.992  69.275  1.00  0.00     0.000 HD 
BRANCH  22  25
HETATM   25  C   UNL     1     -12.693  10.206  71.189  1.00  0.00    -0.494 A  
HETATM   26  C   UNL     1     -11.625   9.412  70.730  1.00  0.00    -0.298 A  
HETATM   27  C   UNL     1     -13.765   9.557  71.851  1.00  0.00    -0.410 A  
HETATM   28  H   UNL     1     -13.329   5.696  72.478  1.00  0.00     0.000 HD 
HETATM   29  C   UNL     1     -13.763   8.175  72.080  1.00  0.00    -0.347 A  
HETATM   30  O   UNL     1     -12.607   6.108  72.018  1.00  0.00    -0.199 OA 
HETATM   31  H   UNL     1     -10.541   6.288  70.879  1.00  0.00     0.000 HD 
HETATM   32  C   UNL     1     -11.618   8.030  70.994  1.00  0.00    -0.283 A  
HETATM   33 CL   UNL     1     -10.208  10.056  69.964  1.00  0.00    -0.305 Cl 
HETATM   34  C   UNL     1     -12.676   7.425  71.669  1.00  0.00    -0.365 A  
HETATM   35  O   UNL     1     -10.545   7.220  70.701  1.00  0.00    -0.220 OA 
ENDBRANCH  22  25
ENDBRANCH  20  21
ENDBRANCH  19  20
ENDBRANCH  14  19
ENDBRANCH  13  14
ENDBRANCH   4  13
BRANCH   8  36
HETATM   36  N   UNL     1      -7.920   8.427  66.779  1.00  0.00    -0.097 N  
HETATM   37  H   UNL     1      -8.897   8.365  67.067  1.00  0.00     0.000 HD 
HETATM   38  C   UNL     1      -7.060   7.398  67.128  1.00  0.00    -0.084 C  
HETATM   39  O   UNL     1      -5.920   7.231  66.728  1.00  0.00    -0.032 OA 
BRANCH  38  40
HETATM   40  C   UNL     1      -7.604   6.399  68.116  1.00  0.00    -0.103 C  
BRANCH  40  41
HETATM   41  C   UNL     1      -8.040   5.075  67.727  1.00  0.00    -0.098 A  
HETATM   42  H2  UNL     1      -7.607   0.965  66.836  1.00  0.00     0.000 HD 
HETATM   43  C   UNL     1      -7.704   2.950  67.306  1.00  0.00    -0.070 A  
HETATM   44  C   UNL     1      -9.301   4.585  68.034  1.00  0.00    -0.140 A  
HETATM   45  H1  UNL     1      -6.219   1.906  66.309  1.00  0.00     0.000 HD 
HETATM   46  S   UNL     1      -9.225   2.877  68.085  1.00  0.00    -0.196 SA 
HETATM   47  N   UNL     1      -7.125   1.862  66.774  1.00  0.00    -0.046 NA 
HETATM   48  N   UNL     1      -7.162   4.134  67.223  1.00  0.00    -0.067 NA 
ENDBRANCH  40  41
BRANCH  40  49
HETATM   49  N   UNL     1      -7.658   6.558  69.402  1.00  0.00    -0.094 NA 
HETATM   50  H   UNL     1      -7.844   5.777  70.030  1.00  0.00     0.000 HD 
BRANCH  49  51
HETATM   51  O   UNL     1      -7.450   7.841  69.879  1.00  0.00    -0.078 OA 
HETATM   52  O   UNL     1      -5.462   9.438  72.316  1.00  0.00    -0.076 OA 
HETATM   53  C   UNL     1      -5.402   6.920  70.908  1.00  0.00    -0.023 C  
HETATM   54  O   UNL     1      -7.149  10.095  70.966  1.00  0.00    -0.286 OA 
HETATM   55  C   UNL     1      -7.591   7.085  72.179  1.00  0.00    -0.091 C  
HETATM   56  C   UNL     1      -6.356   9.148  71.532  1.00  0.00    -0.060 C  
HETATM   57  C   UNL     1      -6.700   7.721  71.111  1.00  0.00    -0.041 C  
ENDBRANCH  49  51
ENDBRANCH  40  49
ENDBRANCH  38  40
ENDBRANCH   8  36
TORSDOF 11
ENDMDL
MODEL       24
REMARK 921   NORMALIZED FREE ENERGY PREDICTED BY IDOCK:   -5.75 KCAL/MOL
REMARK 922        TOTAL FREE ENERGY PREDICTED BY IDOCK:  -12.87 KCAL/MOL
REMARK 923 INTER-LIGAND FREE ENERGY PREDICTED BY IDOCK:  -11.33 KCAL/MOL
REMARK 924 INTRA-LIGAND FREE ENERGY PREDICTED BY IDOCK:   -1.55 KCAL/MOL
REMARK 927      BINDING AFFINITY PREDICTED BY RF-SCORE:    0.00 PKD
ROOT
HETATM    1  C   UNL     1      -9.561   8.831  72.319  1.00  0.00    -0.200 C  
HETATM    2  S   UNL     1      -8.185   8.260  71.310  1.00  0.00    -0.138 SA 
HETATM    3  C   UNL     1      -8.197   9.685  70.225  1.00  0.00    -0.191 C  
HETATM    4  C   UNL     1      -9.525  10.140  69.670  1.00  0.00    -0.226 C  
HETATM    5  CA  UNL     1     -10.686   9.974  70.379  1.00  0.00    -0.307 C  
HETATM    6  O   UNL     1     -12.818   8.280  72.087  1.00  0.00    -0.331 OA 
HETATM    7  C   UNL     1     -12.049  10.723  69.984  1.00  0.00    -0.345 C  
HETATM    8  CA  UNL     1     -10.463   7.719  72.929  1.00  0.00    -0.350 C  
HETATM    9  N   UNL     1     -10.690   9.205  71.514  1.00  0.00    -0.345 N  
HETATM   10  C   UNL     1     -11.612   8.463  72.164  1.00  0.00    -0.374 C  
HETATM   11  O   UNL     1     -12.715  11.131  70.975  1.00  0.00    -0.368 OA 
HETATM   12  OXT UNL     1     -12.175  11.019  68.760  1.00  0.00    -0.546 OA 
ENDROOT
BRANCH   4  13
HETATM   13  C   UNL     1      -9.543  10.852  68.317  1.00  0.00    -0.167 C  
BRANCH  13  14
HETATM   14  N   UNL     1      -9.429  10.029  66.947  1.00  0.00    -0.161 N  
HETATM   15  C   UNL     1      -9.549   7.736  67.661  1.00  0.00    -0.177 C  
HETATM   16  C   UNL     1      -7.991   9.411  66.918  1.00  0.00    -0.109 C  
HETATM   17  C   UNL     1      -8.172   7.906  67.078  1.00  0.00    -0.117 C  
HETATM   18  C   UNL     1     -10.346   8.815  66.955  1.00  0.00    -0.274 C  
BRANCH  14  19
HETATM   19  C   UNL     1      -9.557  11.102  65.813  1.00  0.00    -0.221 C  
BRANCH  19  20
HETATM   20  C   UNL     1     -10.945  11.778  65.659  1.00  0.00    -0.295 C  
BRANCH  20  21
HETATM   21  N   UNL     1     -11.180  13.059  66.357  1.00  0.00    -0.291 N  
HETATM   22  C   UNL     1     -11.024  14.313  65.799  1.00  0.00    -0.305 C  
HETATM   23  O   UNL     1     -10.885  14.444  64.589  1.00  0.00    -0.392 OA 
HETATM   24  H   UNL     1     -11.481  13.013  67.331  1.00  0.00     0.000 HD 
BRANCH  22  25
HETATM   25  C   UNL     1     -10.945  15.539  66.680  1.00  0.00    -0.248 A  
HETATM   26  C   UNL     1     -11.233  15.583  68.057  1.00  0.00    -0.332 A  
HETATM   27  C   UNL     1     -10.319  16.669  66.096  1.00  0.00    -0.340 A  
HETATM   28  H   UNL     1      -9.294  19.551  68.573  1.00  0.00     0.000 HD 
HETATM   29  C   UNL     1      -9.962  17.790  66.857  1.00  0.00    -0.332 A  
HETATM   30  O   UNL     1      -9.727  18.810  68.982  1.00  0.00    -0.350 OA 
HETATM   31  H   UNL     1     -10.696  17.503  70.699  1.00  0.00     0.000 HD 
HETATM   32  C   UNL     1     -10.840  16.700  68.817  1.00  0.00    -0.331 A  
HETATM   33 CL   UNL     1     -11.931  14.261  68.936  1.00  0.00    -0.367 Cl 
HETATM   34  C   UNL     1     -10.205  17.785  68.218  1.00  0.00    -0.382 A  
HETATM   35  O   UNL     1     -10.961  16.749  70.187  1.00  0.00    -0.264 OA 
ENDBRANCH  22  25
ENDBRANCH  20  21
ENDBRANCH  19  20
ENDBRANCH  14  19
ENDBRANCH  13  14
ENDBRANCH   4  13
BRANCH   8  36
HETATM   36  N   UNL     1     -10.164   6.292  72.531  1.00  0.00    -0.182 N  
HETATM   37  H   UNL     1      -9.670   5.693  73.193  1.00  0.00     0.000 HD 
HETATM   38  C   UNL     1     -10.532   5.762  71.304  1.00  0.00    -0.235 C  
HETATM   39  O   UNL     1     -11.265   6.277  70.476  1.00  0.00    -0.312 OA 
BRANCH  38  40
HETATM   40  C   UNL     1      -9.945   4.414  70.973  1.00  0.00    -0.172 C  
BRANCH  40  41
HETATM   41  C   UNL     1      -9.588   3.447  71.989  1.00  0.00    -0.144 A  
HETATM   42  H2  UNL     1      -7.299   1.824  75.150  1.00  0.00     0.000 HD 
HETATM   43  C   UNL     1      -8.342   2.708  73.633  1.00  0.00    -0.068 A  
HETATM   44  C   UNL     1     -10.534   2.689  72.662  1.00  0.00    -0.112 A  
HETATM   45  H1  UNL     1      -6.298   2.654  73.968  1.00  0.00     0.000 HD 
HETATM   46  S   UNL     1      -9.892   2.239  74.181  1.00  0.00    -0.103 SA 
HETATM   47  N   UNL     1      -7.222   2.374  74.295  1.00  0.00    -0.035 NA 
HETATM   48  N   UNL     1      -8.310   3.373  72.511  1.00  0.00    -0.082 NA 
ENDBRANCH  40  41
BRANCH  40  49
HETATM   49  N   UNL     1      -9.783   3.933  69.780  1.00  0.00    -0.198 NA 
HETATM   50  H   UNL     1     -10.452   3.279  69.371  1.00  0.00     0.000 HD 
BRANCH  49  51
HETATM   51  O   UNL     1      -8.659   4.348  69.088  1.00  0.00    -0.081 OA 
HETATM   52  O   UNL     1      -7.534   4.464  65.747  1.00  0.00    -0.079 OA 
HETATM   53  C   UNL     1     -10.084   4.216  67.075  1.00  0.00     0.004 C  
HETATM   54  O   UNL     1      -6.585   4.873  67.754  1.00  0.00    -0.047 OA 
HETATM   55  C   UNL     1      -8.600   2.292  67.803  1.00  0.00    -0.117 C  
HETATM   56  C   UNL     1      -7.591   4.409  66.968  1.00  0.00    -0.085 C  
HETATM   57  C   UNL     1      -8.760   3.812  67.747  1.00  0.00    -0.105 C  
ENDBRANCH  49  51
ENDBRANCH  40  49
ENDBRANCH  38  40
ENDBRANCH   8  36
TORSDOF 11
ENDMDL
MODEL       25
REMARK 921   NORMALIZED FREE ENERGY PREDICTED BY IDOCK:   -5.68 KCAL/MOL
REMARK 922        TOTAL FREE ENERGY PREDICTED BY IDOCK:  -12.76 KCAL/MOL
REMARK 923 INTER-LIGAND FREE ENERGY PREDICTED BY IDOCK:   -9.46 KCAL/MOL
REMARK 924 INTRA-LIGAND FREE ENERGY PREDICTED BY IDOCK:   -3.30 KCAL/MOL
REMARK 927      BINDING AFFINITY PREDICTED BY RF-SCORE:    0.00 PKD
ROOT
HETATM    1  C   UNL     1     -11.561   6.813  70.098  1.00  0.00    -0.341 C  
HETATM    2  S   UNL     1     -10.631   5.994  68.794  1.00  0.00    -0.302 SA 
HETATM    3  C   UNL     1     -10.027   4.678  69.848  1.00  0.00    -0.226 C  
HETATM    4  C   UNL     1      -9.450   5.057  71.191  1.00  0.00    -0.212 C  
HETATM    5  CA  UNL     1      -9.909   6.151  71.878  1.00  0.00    -0.156 C  
HETATM    6  O   UNL     1     -10.722   9.246  72.182  1.00  0.00    -0.201 OA 
HETATM    7  C   UNL     1      -9.566   6.399  73.425  1.00  0.00    -0.151 C  
HETATM    8  CA  UNL     1     -11.682   8.360  69.977  1.00  0.00     0.315 C  
HETATM    9  N   UNL     1     -10.753   7.039  71.264  1.00  0.00    -0.220 N  
HETATM   10  C   UNL     1     -11.018   8.357  71.398  1.00  0.00    -0.253 C  
HETATM   11  O   UNL     1     -10.530   6.863  74.095  1.00  0.00    -0.357 OA 
HETATM   12  OXT UNL     1      -8.480   5.894  73.833  1.00  0.00    -0.117 OA 
ENDROOT
BRANCH   4  13
HETATM   13  C   UNL     1      -8.381   4.154  71.805  1.00  0.00    -0.095 C  
BRANCH  13  14
HETATM   14  N   UNL     1      -8.679   2.610  72.113  1.00  0.00    -0.069 N  
HETATM   15  C   UNL     1     -10.093   2.691  74.055  1.00  0.00    -0.166 C  
HETATM   16  C   UNL     1      -7.831   2.238  73.375  1.00  0.00    -0.043 C  
HETATM   17  C   UNL     1      -8.830   2.008  74.504  1.00  0.00    -0.068 C  
HETATM   18  C   UNL     1     -10.116   2.405  72.566  1.00  0.00    -0.158 C  
BRANCH  14  19
HETATM   19  C   UNL     1      -8.129   1.831  70.870  1.00  0.00    -0.045 C  
BRANCH  19  20
HETATM   20  C   UNL     1      -6.781   2.332  70.286  1.00  0.00    -0.033 C  
BRANCH  20  21
HETATM   21  N   UNL     1      -6.731   2.692  68.854  1.00  0.00    -0.033 N  
HETATM   22  C   UNL     1      -6.787   3.978  68.352  1.00  0.00    -0.047 C  
HETATM   23  O   UNL     1      -6.661   4.944  69.094  1.00  0.00    -0.046 OA 
HETATM   24  H   UNL     1      -6.649   1.929  68.181  1.00  0.00     0.000 HD 
BRANCH  22  25
HETATM   25  C   UNL     1      -7.082   4.217  66.888  1.00  0.00    -0.067 A  
HETATM   26  C   UNL     1      -8.266   3.856  66.218  1.00  0.00    -0.104 A  
HETATM   27  C   UNL     1      -6.170   5.066  66.213  1.00  0.00    -0.035 A  
HETATM   28  H   UNL     1      -7.340   6.426  62.710  1.00  0.00     0.000 HD 
HETATM   29  C   UNL     1      -6.437   5.567  64.932  1.00  0.00    -0.038 A  
HETATM   30  O   UNL     1      -7.958   5.845  63.137  1.00  0.00    -0.101 OA 
HETATM   31  H   UNL     1      -9.920   4.558  63.437  1.00  0.00     0.000 HD 
HETATM   32  C   UNL     1      -8.539   4.392  64.945  1.00  0.00    -0.130 A  
HETATM   33 CL   UNL     1      -9.515   2.884  66.928  1.00  0.00    -0.109 Cl 
HETATM   34  C   UNL     1      -7.633   5.243  64.318  1.00  0.00    -0.074 A  
HETATM   35  O   UNL     1      -9.736   4.196  64.296  1.00  0.00    -0.159 OA 
ENDBRANCH  22  25
ENDBRANCH  20  21
ENDBRANCH  19  20
ENDBRANCH  14  19
ENDBRANCH  13  14
ENDBRANCH   4  13
BRANCH   8  36
HETATM   36  N   UNL     1     -10.925   9.025  68.851  1.00  0.00    -0.433 N  
HETATM   37  H   UNL     1     -10.116   8.547  68.456  1.00  0.00     0.000 HD 
HETATM   38  C   UNL     1     -11.284  10.259  68.331  1.00  0.00    -0.224 C  
HETATM   39  O   UNL     1     -12.306  10.882  68.564  1.00  0.00    -0.490 OA 
BRANCH  38  40
HETATM   40  C   UNL     1     -10.286  10.886  67.391  1.00  0.00    -0.211 C  
BRANCH  40  41
HETATM   41  C   UNL     1      -8.899  11.091  67.748  1.00  0.00    -0.133 A  
HETATM   42  H2  UNL     1      -5.458  10.857  70.193  1.00  0.00     0.000 HD 
HETATM   43  C   UNL     1      -7.175  10.897  69.088  1.00  0.00    -0.118 A  
HETATM   44  C   UNL     1      -7.881  11.107  66.806  1.00  0.00    -0.153 A  
HETATM   45  H1  UNL     1      -6.922  11.101  71.134  1.00  0.00     0.000 HD 
HETATM   46  S   UNL     1      -6.420  10.656  67.572  1.00  0.00    -0.059 SA 
HETATM   47  N   UNL     1      -6.473  10.958  70.230  1.00  0.00    -0.235 NA 
HETATM   48  N   UNL     1      -8.469  11.061  69.062  1.00  0.00    -0.120 NA 
ENDBRANCH  40  41
BRANCH  40  49
HETATM   49  N   UNL     1     -10.514  11.219  66.159  1.00  0.00    -0.248 NA 
HETATM   50  H   UNL     1      -9.933  10.873  65.395  1.00  0.00     0.000 HD 
BRANCH  49  51
HETATM   51  O   UNL     1     -11.584  12.068  65.930  1.00  0.00    -0.362 OA 
HETATM   52  O   UNL     1     -12.611  14.385  63.478  1.00  0.00    -0.784 OA 
HETATM   53  C   UNL     1     -10.747  12.186  63.609  1.00  0.00    -0.518 C  
HETATM   54  O   UNL     1     -13.372  13.797  65.521  1.00  0.00    -0.613 OA 
HETATM   55  C   UNL     1     -10.102  13.902  65.363  1.00  0.00    -0.328 C  
HETATM   56  C   UNL     1     -12.444  13.780  64.528  1.00  0.00    -0.285 C  
HETATM   57  C   UNL     1     -11.199  12.961  64.859  1.00  0.00    -0.300 C  
ENDBRANCH  49  51
ENDBRANCH  40  49
ENDBRANCH  38  40
ENDBRANCH   8  36
TORSDOF 11
ENDMDL
MODEL       26
REMARK 921   NORMALIZED FREE ENERGY PREDICTED BY IDOCK:   -5.57 KCAL/MOL
REMARK 922        TOTAL FREE ENERGY PREDICTED BY IDOCK:  -12.58 KCAL/MOL
REMARK 923 INTER-LIGAND FREE ENERGY PREDICTED BY IDOCK:  -10.31 KCAL/MOL
REMARK 924 INTRA-LIGAND FREE ENERGY PREDICTED BY IDOCK:   -2.27 KCAL/MOL
REMARK 927      BINDING AFFINITY PREDICTED BY RF-SCORE:    0.00 PKD
ROOT
HETATM    1  C   UNL     1      -6.677  10.879  67.308  1.00  0.00    -0.082 C  
HETATM    2  S   UNL     1      -8.097  10.310  66.363  1.00  0.00    -0.128 SA 
HETATM    3  C   UNL     1      -8.696  11.956  65.990  1.00  0.00     0.057 C  
HETATM    4  C   UNL     1      -8.774  12.952  67.121  1.00  0.00    -0.205 C  
HETATM    5  CA  UNL     1      -7.892  12.907  68.169  1.00  0.00    -0.147 C  
HETATM    6  O   UNL     1      -6.294  11.450  70.547  1.00  0.00    -0.301 OA 
HETATM    7  C   UNL     1      -7.730  14.120  69.208  1.00  0.00     0.100 C  
HETATM    8  CA  UNL     1      -6.218   9.950  68.470  1.00  0.00    -0.049 C  
HETATM    9  N   UNL     1      -7.056  11.831  68.314  1.00  0.00    -0.074 N  
HETATM   10  C   UNL     1      -6.450  11.223  69.357  1.00  0.00    -0.105 C  
HETATM   11  O   UNL     1      -6.537  14.337  69.558  1.00  0.00    -0.122 OA 
HETATM   12  OXT UNL     1      -8.754  14.846  69.364  1.00  0.00    -0.150 OA 
ENDROOT
BRANCH   4  13
HETATM   13  C   UNL     1      -9.824  14.060  67.043  1.00  0.00    -0.260 C  
BRANCH  13  14
HETATM   14  N   UNL     1     -11.381  13.740  67.241  1.00  0.00    -0.307 N  
HETATM   15  C   UNL     1     -11.792  11.969  65.668  1.00  0.00    -0.242 C  
HETATM   16  C   UNL     1     -12.118  14.330  65.992  1.00  0.00    -0.408 C  
HETATM   17  C   UNL     1     -12.616  13.133  65.189  1.00  0.00    -0.525 C  
HETATM   18  C   UNL     1     -11.653  12.247  67.152  1.00  0.00    -0.353 C  
BRANCH  14  19
HETATM   19  C   UNL     1     -11.804  14.541  68.520  1.00  0.00    -0.320 C  
BRANCH  19  20
HETATM   20  C   UNL     1     -11.813  13.750  69.855  1.00  0.00    -0.327 C  
BRANCH  20  21
HETATM   21  N   UNL     1     -11.741  12.276  69.793  1.00  0.00    -0.416 N  
HETATM   22  C   UNL     1     -12.298  11.410  70.714  1.00  0.00    -0.386 C  
HETATM   23  O   UNL     1     -13.094  11.817  71.551  1.00  0.00    -0.407 OA 
HETATM   24  H   UNL     1     -11.239  11.863  69.006  1.00  0.00     0.000 HD 
BRANCH  22  25
HETATM   25  C   UNL     1     -11.874   9.959  70.755  1.00  0.00    -0.415 A  
HETATM   26  C   UNL     1     -12.510   8.936  71.482  1.00  0.00    -0.324 A  
HETATM   27  C   UNL     1     -10.889   9.585  69.807  1.00  0.00    -0.264 A  
HETATM   28  H   UNL     1     -10.390   5.719  69.262  1.00  0.00     0.000 HD 
HETATM   29  C   UNL     1     -10.569   8.243  69.565  1.00  0.00    -0.216 A  
HETATM   30  O   UNL     1     -11.043   5.948  69.913  1.00  0.00    -0.366 OA 
HETATM   31  H   UNL     1     -12.681   5.631  71.590  1.00  0.00     0.000 HD 
HETATM   32  C   UNL     1     -12.205   7.590  71.207  1.00  0.00    -0.329 A  
HETATM   33 CL   UNL     1     -13.783   9.218  72.627  1.00  0.00    -0.464 Cl 
HETATM   34  C   UNL     1     -11.249   7.254  70.252  1.00  0.00    -0.262 A  
HETATM   35  O   UNL     1     -12.888   6.540  71.776  1.00  0.00    -0.293 OA 
ENDBRANCH  22  25
ENDBRANCH  20  21
ENDBRANCH  19  20
ENDBRANCH  14  19
ENDBRANCH  13  14
ENDBRANCH   4  13
BRANCH   8  36
HETATM   36  N   UNL     1      -7.065   8.733  68.756  1.00  0.00    -0.063 N  
HETATM   37  H   UNL     1      -7.985   8.865  69.177  1.00  0.00     0.000 HD 
HETATM   38  C   UNL     1      -6.646   7.442  68.471  1.00  0.00    -0.049 C  
HETATM   39  O   UNL     1      -5.665   7.119  67.823  1.00  0.00    -0.026 OA 
BRANCH  38  40
HETATM   40  C   UNL     1      -7.499   6.338  69.042  1.00  0.00    -0.091 C  
BRANCH  40  41
HETATM   41  C   UNL     1      -8.174   5.365  68.211  1.00  0.00    -0.095 A  
HETATM   42  H2  UNL     1     -10.263   1.789  67.359  1.00  0.00     0.000 HD 
HETATM   43  C   UNL     1      -9.268   3.494  67.886  1.00  0.00    -0.183 A  
HETATM   44  C   UNL     1      -8.894   5.721  67.081  1.00  0.00    -0.107 A  
HETATM   45  H1  UNL     1      -9.061   1.568  68.622  1.00  0.00     0.000 HD 
HETATM   46  S   UNL     1     -10.081   4.524  66.790  1.00  0.00    -0.123 SA 
HETATM   47  N   UNL     1      -9.545   2.183  67.969  1.00  0.00    -0.144 NA 
HETATM   48  N   UNL     1      -8.333   4.049  68.606  1.00  0.00    -0.081 NA 
ENDBRANCH  40  41
BRANCH  40  49
HETATM   49  N   UNL     1      -7.650   6.074  70.302  1.00  0.00    -0.093 NA 
HETATM   50  H   UNL     1      -7.456   5.147  70.681  1.00  0.00     0.000 HD 
BRANCH  49  51
HETATM   51  O   UNL     1      -8.086   7.111  71.109  1.00  0.00    -0.102 OA 
HETATM   52  O   UNL     1      -7.881   8.056  74.500  1.00  0.00    -0.203 OA 
HETATM   53  C   UNL     1      -6.436   6.277  72.747  1.00  0.00    -0.063 C  
HETATM   54  O   UNL     1      -9.006   8.832  72.703  1.00  0.00    -0.380 OA 
HETATM   55  C   UNL     1      -8.869   5.562  72.802  1.00  0.00    -0.122 C  
HETATM   56  C   UNL     1      -8.239   7.909  73.339  1.00  0.00    -0.193 C  
HETATM   57  C   UNL     1      -7.893   6.695  72.481  1.00  0.00    -0.102 C  
ENDBRANCH  49  51
ENDBRANCH  40  49
ENDBRANCH  38  40
ENDBRANCH   8  36
TORSDOF 11
ENDMDL
MODEL       27
REMARK 921   NORMALIZED FREE ENERGY PREDICTED BY IDOCK:   -5.52 KCAL/MOL
REMARK 922        TOTAL FREE ENERGY PREDICTED BY IDOCK:  -12.49 KCAL/MOL
REMARK 923 INTER-LIGAND FREE ENERGY PREDICTED BY IDOCK:  -11.09 KCAL/MOL
REMARK 924 INTRA-LIGAND FREE ENERGY PREDICTED BY IDOCK:   -1.40 KCAL/MOL
REMARK 927      BINDING AFFINITY PREDICTED BY RF-SCORE:    0.00 PKD
ROOT
HETATM    1  C   UNL     1      -8.911   9.191  70.783  1.00  0.00    -0.242 C  
HETATM    2  S   UNL     1      -7.735   9.044  69.430  1.00  0.00    -0.085 SA 
HETATM    3  C   UNL     1      -8.019  10.698  68.806  1.00  0.00    -0.135 C  
HETATM    4  C   UNL     1      -9.448  11.155  68.641  1.00  0.00    -0.196 C  
HETATM    5  CA  UNL     1     -10.440  10.697  69.468  1.00  0.00    -0.204 C  
HETATM    6  O   UNL     1     -12.124   8.414  70.980  1.00  0.00    -0.279 OA 
HETATM    7  C   UNL     1     -11.886  11.390  69.542  1.00  0.00    -0.357 C  
HETATM    8  CA  UNL     1      -9.628   7.876  71.207  1.00  0.00    -0.157 C  
HETATM    9  N   UNL     1     -10.190   9.657  70.325  1.00  0.00    -0.261 N  
HETATM   10  C   UNL     1     -10.935   8.684  70.893  1.00  0.00    -0.253 C  
HETATM   11  O   UNL     1     -12.363  11.454  70.709  1.00  0.00    -0.365 OA 
HETATM   12  OXT UNL     1     -12.260  11.988  68.492  1.00  0.00    -0.340 OA 
ENDROOT
BRANCH   4  13
HETATM   13  C   UNL     1      -9.759  12.196  67.566  1.00  0.00    -0.185 C  
BRANCH  13  14
HETATM   14  N   UNL     1      -9.832  11.790  66.018  1.00  0.00    -0.226 N  
HETATM   15  C   UNL     1      -9.949   9.390  66.074  1.00  0.00    -0.352 C  
HETATM   16  C   UNL     1      -8.429  11.204  65.646  1.00  0.00    -0.043 C  
HETATM   17  C   UNL     1      -8.644   9.714  65.401  1.00  0.00    -0.167 C  
HETATM   18  C   UNL     1     -10.784  10.625  65.797  1.00  0.00    -0.027 C  
BRANCH  14  19
HETATM   19  C   UNL     1     -10.051  13.139  65.251  1.00  0.00    -0.235 C  
BRANCH  19  20
HETATM   20  C   UNL     1     -11.168  14.068  65.798  1.00  0.00    -0.303 C  
BRANCH  20  21
HETATM   21  N   UNL     1     -10.771  15.356  66.402  1.00  0.00    -0.310 N  
HETATM   22  C   UNL     1     -10.555  16.531  65.707  1.00  0.00    -0.296 C  
HETATM   23  O   UNL     1     -10.898  16.634  64.536  1.00  0.00    -0.847 OA 
HETATM   24  H   UNL     1     -10.646  15.381  67.414  1.00  0.00     0.000 HD 
BRANCH  22  25
HETATM   25  C   UNL     1      -9.822  17.682  66.357  1.00  0.00    -0.315 A  
HETATM   26  C   UNL     1      -8.503  17.645  66.847  1.00  0.00    -0.241 A  
HETATM   27  C   UNL     1     -10.456  18.945  66.254  1.00  0.00    -0.510 A  
HETATM   28  H   UNL     1      -8.233  22.075  67.120  1.00  0.00     0.000 HD 
HETATM   29  C   UNL     1      -9.796  20.133  66.594  1.00  0.00    -0.588 A  
HETATM   30  O   UNL     1      -7.793  21.237  67.211  1.00  0.00    -0.313 OA 
HETATM   31  H   UNL     1      -6.060  19.706  67.709  1.00  0.00     0.000 HD 
HETATM   32  C   UNL     1      -7.838  18.847  67.155  1.00  0.00    -0.240 A  
HETATM   33 CL   UNL     1      -7.563  16.193  66.970  1.00  0.00    -0.236 Cl 
HETATM   34  C   UNL     1      -8.482  20.075  67.020  1.00  0.00    -0.333 A  
HETATM   35  O   UNL     1      -6.508  18.895  67.502  1.00  0.00    -0.193 OA 
ENDBRANCH  22  25
ENDBRANCH  20  21
ENDBRANCH  19  20
ENDBRANCH  14  19
ENDBRANCH  13  14
ENDBRANCH   4  13
BRANCH   8  36
HETATM   36  N   UNL     1      -9.351   6.642  70.380  1.00  0.00    -0.159 N  
HETATM   37  H   UNL     1      -8.577   6.035  70.652  1.00  0.00     0.000 HD 
HETATM   38  C   UNL     1     -10.103   6.299  69.267  1.00  0.00    -0.175 C  
HETATM   39  O   UNL     1     -11.150   6.811  68.906  1.00  0.00    -0.233 OA 
BRANCH  38  40
HETATM   40  C   UNL     1      -9.544   5.185  68.420  1.00  0.00    -0.139 C  
BRANCH  40  41
HETATM   41  C   UNL     1      -9.453   5.271  66.978  1.00  0.00    -0.134 A  
HETATM   42  H2  UNL     1      -7.638   6.141  63.261  1.00  0.00     0.000 HD 
HETATM   43  C   UNL     1      -8.410   5.741  65.109  1.00  0.00    -0.146 A  
HETATM   44  C   UNL     1     -10.087   4.369  66.137  1.00  0.00    -0.234 A  
HETATM   45  H1  UNL     1      -7.202   7.309  64.499  1.00  0.00     0.000 HD 
HETATM   46  S   UNL     1      -9.234   4.312  64.656  1.00  0.00    -0.159 SA 
HETATM   47  N   UNL     1      -7.693   6.458  64.229  1.00  0.00    -0.103 NA 
HETATM   48  N   UNL     1      -8.556   6.115  66.350  1.00  0.00    -0.126 NA 
ENDBRANCH  40  41
BRANCH  40  49
HETATM   49  N   UNL     1      -9.006   4.093  68.866  1.00  0.00    -0.103 NA 
HETATM   50  H   UNL     1      -8.224   3.647  68.387  1.00  0.00     0.000 HD 
BRANCH  49  51
HETATM   51  O   UNL     1      -9.546   3.561  70.025  1.00  0.00    -0.188 OA 
HETATM   52  O   UNL     1      -8.393   2.127  73.034  1.00  0.00    -0.060 OA 
HETATM   53  C   UNL     1      -7.275   3.801  70.966  1.00  0.00    -0.033 C  
HETATM   54  O   UNL     1     -10.421   2.381  72.074  1.00  0.00    -0.066 OA 
HETATM   55  C   UNL     1      -8.075   1.636  69.913  1.00  0.00    -0.055 C  
HETATM   56  C   UNL     1      -9.063   2.430  72.056  1.00  0.00    -0.083 C  
HETATM   57  C   UNL     1      -8.478   2.873  70.717  1.00  0.00    -0.057 C  
ENDBRANCH  49  51
ENDBRANCH  40  49
ENDBRANCH  38  40
ENDBRANCH   8  36
TORSDOF 11
ENDMDL
MODEL       28
REMARK 921   NORMALIZED FREE ENERGY PREDICTED BY IDOCK:   -5.45 KCAL/MOL
REMARK 922        TOTAL FREE ENERGY PREDICTED BY IDOCK:  -12.38 KCAL/MOL
REMARK 923 INTER-LIGAND FREE ENERGY PREDICTED BY IDOCK:   -9.24 KCAL/MOL
REMARK 924 INTRA-LIGAND FREE ENERGY PREDICTED BY IDOCK:   -3.14 KCAL/MOL
REMARK 927      BINDING AFFINITY PREDICTED BY RF-SCORE:    0.00 PKD
ROOT
HETATM    1  C   UNL     1      -5.872   8.827  67.281  1.00  0.00    -0.043 C  
HETATM    2  S   UNL     1      -6.367   9.049  68.996  1.00  0.00    -0.044 SA 
HETATM    3  C   UNL     1      -6.443   7.297  69.356  1.00  0.00    -0.036 C  
HETATM    4  C   UNL     1      -7.162   6.404  68.373  1.00  0.00    -0.085 C  
HETATM    5  CA  UNL     1      -7.188   6.696  67.035  1.00  0.00    -0.081 C  
HETATM    6  O   UNL     1      -7.657   8.616  64.500  1.00  0.00    -0.102 OA 
HETATM    7  C   UNL     1      -7.649   5.627  65.931  1.00  0.00    -0.086 C  
HETATM    8  CA  UNL     1      -6.361   9.920  66.285  1.00  0.00    -0.072 C  
HETATM    9  N   UNL     1      -6.739   7.913  66.592  1.00  0.00    -0.061 N  
HETATM   10  C   UNL     1      -7.014   8.708  65.535  1.00  0.00    -0.078 C  
HETATM   11  O   UNL     1      -6.963   5.658  64.871  1.00  0.00    -0.053 OA 
HETATM   12  OXT UNL     1      -8.463   4.745  66.330  1.00  0.00    -0.110 OA 
ENDROOT
BRANCH   4  13
HETATM   13  C   UNL     1      -7.813   5.123  68.897  1.00  0.00    -0.082 C  
BRANCH  13  14
HETATM   14  N   UNL     1      -8.970   5.175  70.002  1.00  0.00    -0.119 N  
HETATM   15  C   UNL     1      -8.262   3.554  71.630  1.00  0.00    -0.068 C  
HETATM   16  C   UNL     1      -9.816   3.870  69.822  1.00  0.00    -0.048 C  
HETATM   17  C   UNL     1      -9.542   3.014  71.053  1.00  0.00    -0.224 C  
HETATM   18  C   UNL     1      -8.399   5.047  71.406  1.00  0.00    -0.118 C  
BRANCH  14  19
HETATM   19  C   UNL     1      -9.845   6.418  69.621  1.00  0.00    -0.159 C  
BRANCH  19  20
HETATM   20  C   UNL     1     -11.018   6.754  70.579  1.00  0.00    -0.280 C  
BRANCH  20  21
HETATM   21  N   UNL     1     -11.153   8.145  71.057  1.00  0.00    -0.249 N  
HETATM   22  C   UNL     1     -12.323   8.879  71.057  1.00  0.00    -0.171 C  
HETATM   23  O   UNL     1     -13.401   8.335  70.854  1.00  0.00     0.058 OA 
HETATM   24  H   UNL     1     -10.313   8.601  71.416  1.00  0.00     0.000 HD 
BRANCH  22  25
HETATM   25  C   UNL     1     -12.285  10.381  71.230  1.00  0.00    -0.491 A  
HETATM   26  C   UNL     1     -11.544  11.282  70.441  1.00  0.00    -0.223 A  
HETATM   27  C   UNL     1     -13.249  10.916  72.121  1.00  0.00    -0.333 A  
HETATM   28  H   UNL     1     -13.791  14.811  71.948  1.00  0.00     0.000 HD 
HETATM   29  C   UNL     1     -13.492  12.294  72.204  1.00  0.00    -0.431 A  
HETATM   30  O   UNL     1     -13.129  14.475  71.354  1.00  0.00    -0.321 OA 
HETATM   31  H   UNL     1     -11.424  14.509  69.715  1.00  0.00     0.000 HD 
HETATM   32  C   UNL     1     -11.821  12.660  70.510  1.00  0.00    -0.052 A  
HETATM   33 CL   UNL     1     -10.380  10.788  69.255  1.00  0.00    -0.237 Cl 
HETATM   34  C   UNL     1     -12.791  13.153  71.379  1.00  0.00    -0.311 A  
HETATM   35  O   UNL     1     -11.237  13.579  69.669  1.00  0.00    -0.180 OA 
ENDBRANCH  22  25
ENDBRANCH  20  21
ENDBRANCH  19  20
ENDBRANCH  14  19
ENDBRANCH  13  14
ENDBRANCH   4  13
BRANCH   8  36
HETATM   36  N   UNL     1      -7.282  10.987  66.830  1.00  0.00    -0.131 N  
HETATM   37  H   UNL     1      -8.244  10.733  67.057  1.00  0.00     0.000 HD 
HETATM   38  C   UNL     1      -6.877  12.297  67.034  1.00  0.00    -0.031 C  
HETATM   39  O   UNL     1      -5.737  12.726  66.978  1.00  0.00    -0.334 OA 
BRANCH  38  40
HETATM   40  C   UNL     1      -7.977  13.279  67.343  1.00  0.00    -0.170 C  
BRANCH  40  41
HETATM   41  C   UNL     1      -7.719  14.588  67.905  1.00  0.00    -0.140 A  
HETATM   42  H2  UNL     1      -5.606  17.495  70.131  1.00  0.00     0.000 HD 
HETATM   43  C   UNL     1      -6.534  16.018  69.068  1.00  0.00    -0.146 A  
HETATM   44  C   UNL     1      -8.094  15.760  67.266  1.00  0.00    -0.188 A  
HETATM   45  H1  UNL     1      -5.516  15.903  70.869  1.00  0.00     0.000 HD 
HETATM   46  S   UNL     1      -7.063  17.021  67.788  1.00  0.00    -0.152 SA 
HETATM   47  N   UNL     1      -5.831  16.501  70.106  1.00  0.00    -0.201 NA 
HETATM   48  N   UNL     1      -6.891  14.765  68.998  1.00  0.00    -0.105 NA 
ENDBRANCH  40  41
BRANCH  40  49
HETATM   49  N   UNL     1      -9.233  13.120  67.066  1.00  0.00    -0.226 NA 
HETATM   50  H   UNL     1      -9.952  13.176  67.788  1.00  0.00     0.000 HD 
BRANCH  49  51
HETATM   51  O   UNL     1      -9.553  12.870  65.743  1.00  0.00    -0.196 OA 
HETATM   52  O   UNL     1     -12.085  13.744  63.449  1.00  0.00    -0.468 OA 
HETATM   53  C   UNL     1     -11.098  14.785  65.953  1.00  0.00    -0.340 C  
HETATM   54  O   UNL     1     -10.340  12.311  63.414  1.00  0.00    -0.432 OA 
HETATM   55  C   UNL     1     -11.861  12.393  66.314  1.00  0.00    -0.431 C  
HETATM   56  C   UNL     1     -11.187  13.167  64.046  1.00  0.00    -0.379 C  
HETATM   57  C   UNL     1     -10.915  13.314  65.541  1.00  0.00    -0.282 C  
ENDBRANCH  49  51
ENDBRANCH  40  49
ENDBRANCH  38  40
ENDBRANCH   8  36
TORSDOF 11
ENDMDL
MODEL       29
REMARK 921   NORMALIZED FREE ENERGY PREDICTED BY IDOCK:   -5.41 KCAL/MOL
REMARK 922        TOTAL FREE ENERGY PREDICTED BY IDOCK:  -12.32 KCAL/MOL
REMARK 923 INTER-LIGAND FREE ENERGY PREDICTED BY IDOCK:   -9.16 KCAL/MOL
REMARK 924 INTRA-LIGAND FREE ENERGY PREDICTED BY IDOCK:   -3.16 KCAL/MOL
REMARK 927      BINDING AFFINITY PREDICTED BY RF-SCORE:    0.00 PKD
ROOT
HETATM    1  C   UNL     1      -5.641  12.006  68.540  1.00  0.00    -0.052 C  
HETATM    2  S   UNL     1      -6.277  12.290  70.199  1.00  0.00     0.048 SA 
HETATM    3  C   UNL     1      -5.983  10.615  70.759  1.00  0.00    -0.058 C  
HETATM    4  C   UNL     1      -6.425   9.483  69.863  1.00  0.00    -0.053 C  
HETATM    5  CA  UNL     1      -6.433   9.618  68.500  1.00  0.00    -0.051 C  
HETATM    6  O   UNL     1      -7.161  11.100  65.741  1.00  0.00     0.021 OA 
HETATM    7  C   UNL     1      -6.576   8.360  67.513  1.00  0.00    -0.058 C  
HETATM    8  CA  UNL     1      -6.298  12.847  67.407  1.00  0.00    -0.113 C  
HETATM    9  N   UNL     1      -6.240  10.851  67.933  1.00  0.00    -0.053 N  
HETATM   10  C   UNL     1      -6.618  11.445  66.781  1.00  0.00    -0.136 C  
HETATM   11  O   UNL     1      -5.851   8.434  66.482  1.00  0.00    -0.042 OA 
HETATM   12  OXT UNL     1      -7.198   7.364  67.983  1.00  0.00    -0.085 OA 
ENDROOT
BRANCH   4  13
HETATM   13  C   UNL     1      -6.806   8.151  70.509  1.00  0.00    -0.037 C  
BRANCH  13  14
HETATM   14  N   UNL     1      -8.269   7.914  71.118  1.00  0.00    -0.103 N  
HETATM   15  C   UNL     1      -7.845   7.521  73.452  1.00  0.00    -0.139 C  
HETATM   16  C   UNL     1      -8.388   6.380  71.405  1.00  0.00    -0.122 C  
HETATM   17  C   UNL     1      -8.416   6.233  72.922  1.00  0.00    -0.118 C  
HETATM   18  C   UNL     1      -8.404   8.553  72.492  1.00  0.00    -0.093 C  
BRANCH  14  19
HETATM   19  C   UNL     1      -9.258   8.306  69.969  1.00  0.00    -0.151 C  
BRANCH  19  20
HETATM   20  C   UNL     1      -9.668   9.801  69.893  1.00  0.00    -0.238 C  
BRANCH  20  21
HETATM   21  N   UNL     1      -9.754  10.435  68.562  1.00  0.00    -0.162 N  
HETATM   22  C   UNL     1     -10.913  10.592  67.826  1.00  0.00    -0.313 C  
HETATM   23  O   UNL     1     -12.008  10.401  68.339  1.00  0.00    -0.270 OA 
HETATM   24  H   UNL     1      -8.888  10.786  68.152  1.00  0.00     0.000 HD 
BRANCH  22  25
HETATM   25  C   UNL     1     -10.845  10.924  66.353  1.00  0.00    -0.210 A  
HETATM   26  C   UNL     1     -11.263  12.131  65.761  1.00  0.00    -0.339 A  
HETATM   27  C   UNL     1     -10.097  10.019  65.558  1.00  0.00    -0.325 A  
HETATM   28  H   UNL     1      -9.144  11.267  61.949  1.00  0.00     0.000 HD 
HETATM   29  C   UNL     1      -9.748  10.315  64.234  1.00  0.00    -0.373 A  
HETATM   30  O   UNL     1      -9.659  11.881  62.459  1.00  0.00    -0.029 OA 
HETATM   31  H   UNL     1     -10.868  13.852  62.961  1.00  0.00     0.000 HD 
HETATM   32  C   UNL     1     -10.877  12.432  64.441  1.00  0.00    -0.337 A  
HETATM   33 CL   UNL     1     -12.123  13.373  66.614  1.00  0.00    -0.441 Cl 
HETATM   34  C   UNL     1     -10.122  11.532  63.694  1.00  0.00    -0.388 A  
HETATM   35  O   UNL     1     -11.129  13.649  63.851  1.00  0.00    -0.208 OA 
ENDBRANCH  22  25
ENDBRANCH  20  21
ENDBRANCH  19  20
ENDBRANCH  14  19
ENDBRANCH  13  14
ENDBRANCH   4  13
BRANCH   8  36
HETATM   36  N   UNL     1      -7.465  13.727  67.789  1.00  0.00    -0.146 N  
HETATM   37  H   UNL     1      -8.409  13.352  67.702  1.00  0.00     0.000 HD 
HETATM   38  C   UNL     1      -7.307  15.024  68.253  1.00  0.00    -0.111 C  
HETATM   39  O   UNL     1      -6.261  15.563  68.574  1.00  0.00    -0.093 OA 
BRANCH  38  40
HETATM   40  C   UNL     1      -8.570  15.840  68.351  1.00  0.00    -0.171 C  
BRANCH  40  41
HETATM   41  C   UNL     1      -9.072  16.637  67.252  1.00  0.00    -0.215 A  
HETATM   42  H2  UNL     1     -11.602  17.585  64.001  1.00  0.00     0.000 HD 
HETATM   43  C   UNL     1     -10.452  17.036  65.597  1.00  0.00    -0.216 A  
HETATM   44  C   UNL     1      -9.028  18.023  67.255  1.00  0.00    -0.251 A  
HETATM   45  H1  UNL     1     -11.265  15.863  64.096  1.00  0.00     0.000 HD 
HETATM   46  S   UNL     1     -10.273  18.611  66.241  1.00  0.00    -0.421 SA 
HETATM   47  N   UNL     1     -11.158  16.801  64.480  1.00  0.00    -1.039 NA 
HETATM   48  N   UNL     1      -9.825  16.085  66.233  1.00  0.00    -0.286 NA 
ENDBRANCH  40  41
BRANCH  40  49
HETATM   49  N   UNL     1      -9.385  15.855  69.360  1.00  0.00    -0.263 NA 
HETATM   50  H   UNL     1      -9.475  16.672  69.963  1.00  0.00     0.000 HD 
BRANCH  49  51
HETATM   51  O   UNL     1     -10.126  14.706  69.578  1.00  0.00    -0.116 OA 
HETATM   52  O   UNL     1     -13.467  13.846  70.315  1.00  0.00     0.297 OA 
HETATM   53  C   UNL     1     -12.103  16.147  69.232  1.00  0.00     0.030 C  
HETATM   54  O   UNL     1     -11.524  12.702  70.198  1.00  0.00    -0.125 OA 
HETATM   55  C   UNL     1     -11.173  15.668  71.543  1.00  0.00    -0.373 C  
HETATM   56  C   UNL     1     -12.247  13.852  70.220  1.00  0.00    -0.358 C  
HETATM   57  C   UNL     1     -11.398  15.118  70.133  1.00  0.00    -0.271 C  
ENDBRANCH  49  51
ENDBRANCH  40  49
ENDBRANCH  38  40
ENDBRANCH   8  36
TORSDOF 11
ENDMDL
MODEL       30
REMARK 921   NORMALIZED FREE ENERGY PREDICTED BY IDOCK:   -5.28 KCAL/MOL
REMARK 922        TOTAL FREE ENERGY PREDICTED BY IDOCK:  -12.10 KCAL/MOL
REMARK 923 INTER-LIGAND FREE ENERGY PREDICTED BY IDOCK:   -8.32 KCAL/MOL
REMARK 924 INTRA-LIGAND FREE ENERGY PREDICTED BY IDOCK:   -3.78 KCAL/MOL
REMARK 927      BINDING AFFINITY PREDICTED BY RF-SCORE:    0.00 PKD
ROOT
HETATM    1  C   UNL     1     -11.548   6.732  70.155  1.00  0.00    -0.341 C  
HETATM    2  S   UNL     1     -10.684   6.036  68.739  1.00  0.00    -0.313 SA 
HETATM    3  C   UNL     1     -10.058   4.615  69.631  1.00  0.00    -0.162 C  
HETATM    4  C   UNL     1      -9.423   4.852  70.980  1.00  0.00    -0.225 C  
HETATM    5  CA  UNL     1      -9.837   5.877  71.790  1.00  0.00    -0.163 C  
HETATM    6  O   UNL     1     -10.589   8.935  72.434  1.00  0.00    -0.261 OA 
HETATM    7  C   UNL     1      -9.428   5.966  73.339  1.00  0.00    -0.138 C  
HETATM    8  CA  UNL     1     -11.650   8.285  70.193  1.00  0.00     0.102 C  
HETATM    9  N   UNL     1     -10.691   6.832  71.303  1.00  0.00    -0.223 N  
HETATM   10  C   UNL     1     -10.930   8.132  71.578  1.00  0.00    -0.243 C  
HETATM   11  O   UNL     1     -10.357   6.371  74.091  1.00  0.00    -0.319 OA 
HETATM   12  OXT UNL     1      -8.335   5.410  73.649  1.00  0.00    -0.112 OA 
ENDROOT
BRANCH   4  13
HETATM   13  C   UNL     1      -8.343   3.880  71.456  1.00  0.00    -0.074 C  
BRANCH  13  14
HETATM   14  N   UNL     1      -8.678   2.335  71.716  1.00  0.00    -0.066 N  
HETATM   15  C   UNL     1      -9.949   2.375  73.756  1.00  0.00    -0.153 C  
HETATM   16  C   UNL     1      -7.759   1.875  72.897  1.00  0.00    -0.044 C  
HETATM   17  C   UNL     1      -8.685   1.628  74.084  1.00  0.00    -0.054 C  
HETATM   18  C   UNL     1     -10.086   2.160  72.262  1.00  0.00    -0.161 C  
BRANCH  14  19
HETATM   19  C   UNL     1      -8.246   1.596  70.404  1.00  0.00    -0.041 C  
BRANCH  19  20
HETATM   20  C   UNL     1      -6.850   1.964  69.835  1.00  0.00    -0.033 C  
BRANCH  20  21
HETATM   21  N   UNL     1      -6.750   2.323  68.406  1.00  0.00    -0.029 N  
HETATM   22  C   UNL     1      -6.671   3.610  67.909  1.00  0.00    -0.046 C  
HETATM   23  O   UNL     1      -6.455   4.555  68.657  1.00  0.00    -0.035 OA 
HETATM   24  H   UNL     1      -6.740   1.558  67.730  1.00  0.00     0.000 HD 
BRANCH  22  25
HETATM   25  C   UNL     1      -6.927   3.882  66.444  1.00  0.00    -0.059 A  
HETATM   26  C   UNL     1      -8.162   3.742  65.785  1.00  0.00    -0.105 A  
HETATM   27  C   UNL     1      -5.877   4.539  65.754  1.00  0.00    -0.022 A  
HETATM   28  H   UNL     1      -6.797   6.053  62.240  1.00  0.00     0.000 HD 
HETATM   29  C   UNL     1      -6.055   5.066  64.468  1.00  0.00    -0.022 A  
HETATM   30  O   UNL     1      -7.510   5.603  62.678  1.00  0.00    -0.046 OA 
HETATM   31  H   UNL     1      -9.676   4.709  63.004  1.00  0.00     0.000 HD 
HETATM   32  C   UNL     1      -8.339   4.305  64.507  1.00  0.00    -0.107 A  
HETATM   33 CL   UNL     1      -9.565   3.028  66.513  1.00  0.00    -0.020 Cl 
HETATM   34  C   UNL     1      -7.295   4.964  63.864  1.00  0.00    -0.051 A  
HETATM   35  O   UNL     1      -9.557   4.329  63.866  1.00  0.00    -0.156 OA 
ENDBRANCH  22  25
ENDBRANCH  20  21
ENDBRANCH  19  20
ENDBRANCH  14  19
ENDBRANCH  13  14
ENDBRANCH   4  13
BRANCH   8  36
HETATM   36  N   UNL     1     -10.929   9.051  69.108  1.00  0.00    -0.426 N  
HETATM   37  H   UNL     1     -10.146   8.603  68.632  1.00  0.00     0.000 HD 
HETATM   38  C   UNL     1     -11.285  10.336  68.732  1.00  0.00    -0.206 C  
HETATM   39  O   UNL     1     -12.286  10.946  69.072  1.00  0.00    -0.462 OA 
BRANCH  38  40
HETATM   40  C   UNL     1     -10.317  11.041  67.818  1.00  0.00    -0.188 C  
BRANCH  40  41
HETATM   41  C   UNL     1     -10.714  12.128  66.948  1.00  0.00    -0.236 A  
HETATM   42  H2  UNL     1     -13.405  14.560  64.777  1.00  0.00     0.000 HD 
HETATM   43  C   UNL     1     -12.198  13.333  65.878  1.00  0.00    -0.441 A  
HETATM   44  C   UNL     1     -10.030  13.333  66.901  1.00  0.00    -0.250 A  
HETATM   45  H1  UNL     1     -13.900  12.874  64.789  1.00  0.00     0.000 HD 
HETATM   46  S   UNL     1     -11.109  14.553  66.378  1.00  0.00    -0.336 SA 
HETATM   47  N   UNL     1     -13.251  13.600  65.088  1.00  0.00    -0.667 NA 
HETATM   48  N   UNL     1     -11.921  12.122  66.274  1.00  0.00    -0.613 NA 
ENDBRANCH  40  41
BRANCH  40  49
HETATM   49  N   UNL     1      -9.037  10.837  67.769  1.00  0.00    -0.150 NA 
HETATM   50  H   UNL     1      -8.368  11.592  67.918  1.00  0.00     0.000 HD 
BRANCH  49  51
HETATM   51  O   UNL     1      -8.623   9.543  67.505  1.00  0.00    -0.125 OA 
HETATM   52  O   UNL     1      -5.608   7.845  66.821  1.00  0.00    -0.031 OA 
HETATM   53  C   UNL     1      -6.350  10.372  68.001  1.00  0.00    -0.059 C  
HETATM   54  O   UNL     1      -7.790   7.268  66.806  1.00  0.00    -0.108 OA 
HETATM   55  C   UNL     1      -7.265  10.282  65.637  1.00  0.00    -0.148 C  
HETATM   56  C   UNL     1      -6.784   8.178  66.878  1.00  0.00    -0.065 C  
HETATM   57  C   UNL     1      -7.263   9.621  67.017  1.00  0.00    -0.087 C  
ENDBRANCH  49  51
ENDBRANCH  40  49
ENDBRANCH  38  40
ENDBRANCH   8  36
TORSDOF 11
ENDMDL
MODEL       31
REMARK 921   NORMALIZED FREE ENERGY PREDICTED BY IDOCK:   -5.22 KCAL/MOL
REMARK 922        TOTAL FREE ENERGY PREDICTED BY IDOCK:  -12.01 KCAL/MOL
REMARK 923 INTER-LIGAND FREE ENERGY PREDICTED BY IDOCK:   -9.10 KCAL/MOL
REMARK 924 INTRA-LIGAND FREE ENERGY PREDICTED BY IDOCK:   -2.91 KCAL/MOL
REMARK 927      BINDING AFFINITY PREDICTED BY RF-SCORE:    0.00 PKD
ROOT
HETATM    1  C   UNL     1      -6.039  11.107  67.958  1.00  0.00    -0.049 C  
HETATM    2  S   UNL     1      -7.514  11.089  66.927  1.00  0.00    -0.139 SA 
HETATM    3  C   UNL     1      -7.660  12.872  66.848  1.00  0.00     0.214 C  
HETATM    4  C   UNL     1      -7.534  13.649  68.136  1.00  0.00    -0.125 C  
HETATM    5  CA  UNL     1      -6.740  13.204  69.160  1.00  0.00    -0.089 C  
HETATM    6  O   UNL     1      -5.669  11.005  71.246  1.00  0.00    -0.334 OA 
HETATM    7  C   UNL     1      -6.323  14.141  70.394  1.00  0.00    -0.103 C  
HETATM    8  CA  UNL     1      -5.882   9.909  68.939  1.00  0.00    -0.034 C  
HETATM    9  N   UNL     1      -6.210  11.940  69.114  1.00  0.00    -0.077 N  
HETATM   10  C   UNL     1      -5.824  11.030  70.034  1.00  0.00    -0.102 C  
HETATM   11  O   UNL     1      -5.131  13.982  70.777  1.00  0.00    -0.100 OA 
HETATM   12  OXT UNL     1      -7.136  15.068  70.675  1.00  0.00     0.243 OA 
ENDROOT
BRANCH   4  13
HETATM   13  C   UNL     1      -8.266  14.987  68.253  1.00  0.00    -0.146 C  
BRANCH  13  14
HETATM   14  N   UNL     1      -7.941  16.197  67.255  1.00  0.00    -0.159 N  
HETATM   15  C   UNL     1      -5.925  17.142  68.162  1.00  0.00    -0.127 C  
HETATM   16  C   UNL     1      -8.297  17.514  68.024  1.00  0.00    -0.241 C  
HETATM   17  C   UNL     1      -6.972  18.214  68.303  1.00  0.00    -0.233 C  
HETATM   18  C   UNL     1      -6.447  16.318  67.002  1.00  0.00    -0.126 C  
BRANCH  14  19
HETATM   19  C   UNL     1      -8.930  16.014  66.054  1.00  0.00    -0.310 C  
BRANCH  19  20
HETATM   20  C   UNL     1     -10.434  16.240  66.361  1.00  0.00    -0.294 C  
BRANCH  20  21
HETATM   21  N   UNL     1     -11.180  15.158  67.036  1.00  0.00    -0.331 N  
HETATM   22  C   UNL     1     -11.466  15.107  68.386  1.00  0.00    -0.332 C  
HETATM   23  O   UNL     1     -11.301  16.090  69.096  1.00  0.00    -0.319 OA 
HETATM   24  H   UNL     1     -11.510  14.384  66.457  1.00  0.00     0.000 HD 
BRANCH  22  25
HETATM   25  C   UNL     1     -11.913  13.812  69.026  1.00  0.00    -0.399 A  
HETATM   26  C   UNL     1     -11.704  12.521  68.504  1.00  0.00    -0.324 A  
HETATM   27  C   UNL     1     -12.383  13.921  70.359  1.00  0.00    -0.433 A  
HETATM   28  H   UNL     1     -12.719  10.547  72.358  1.00  0.00     0.000 HD 
HETATM   29  C   UNL     1     -12.607  12.792  71.157  1.00  0.00    -0.365 A  
HETATM   30  O   UNL     1     -12.418  10.450  71.462  1.00  0.00    -0.376 OA 
HETATM   31  H   UNL     1     -11.714   9.359  69.484  1.00  0.00     0.000 HD 
HETATM   32  C   UNL     1     -11.901  11.396  69.327  1.00  0.00    -0.349 A  
HETATM   33 CL   UNL     1     -11.068  12.215  66.920  1.00  0.00    -0.328 Cl 
HETATM   34  C   UNL     1     -12.341  11.538  70.641  1.00  0.00    -0.364 A  
HETATM   35  O   UNL     1     -11.581  10.118  68.929  1.00  0.00    -0.133 OA 
ENDBRANCH  22  25
ENDBRANCH  20  21
ENDBRANCH  19  20
ENDBRANCH  14  19
ENDBRANCH  13  14
ENDBRANCH   4  13
BRANCH   8  36
HETATM   36  N   UNL     1      -7.021   8.919  69.008  1.00  0.00    -0.063 N  
HETATM   37  H   UNL     1      -7.881   9.128  68.501  1.00  0.00     0.000 HD 
HETATM   38  C   UNL     1      -6.948   7.739  69.732  1.00  0.00    -0.047 C  
HETATM   39  O   UNL     1      -5.953   7.259  70.249  1.00  0.00    -0.024 OA 
BRANCH  38  40
HETATM   40  C   UNL     1      -8.247   6.993  69.897  1.00  0.00    -0.130 C  
BRANCH  40  41
HETATM   41  C   UNL     1      -9.251   7.377  70.866  1.00  0.00    -0.154 A  
HETATM   42  H2  UNL     1     -12.872   7.050  73.023  1.00  0.00     0.000 HD 
HETATM   43  C   UNL     1     -11.143   7.099  71.938  1.00  0.00    -0.236 A  
HETATM   44  C   UNL     1      -8.934   8.026  72.050  1.00  0.00    -0.156 A  
HETATM   45  H1  UNL     1     -13.045   6.519  71.357  1.00  0.00     0.000 HD 
HETATM   46  S   UNL     1     -10.152   7.687  73.202  1.00  0.00    -0.335 SA 
HETATM   47  N   UNL     1     -12.454   6.869  72.110  1.00  0.00    -0.220 NA 
HETATM   48  N   UNL     1     -10.557   6.930  70.784  1.00  0.00    -0.217 NA 
ENDBRANCH  40  41
BRANCH  40  49
HETATM   49  N   UNL     1      -8.655   6.011  69.154  1.00  0.00    -0.117 NA 
HETATM   50  H   UNL     1      -9.415   5.398  69.448  1.00  0.00     0.000 HD 
BRANCH  49  51
HETATM   51  O   UNL     1      -8.008   5.837  67.942  1.00  0.00    -0.097 OA 
HETATM   52  O   UNL     1      -8.849   4.996  64.622  1.00  0.00    -0.153 OA 
HETATM   53  C   UNL     1     -10.260   5.985  66.937  1.00  0.00    -0.261 C  
HETATM   54  O   UNL     1      -6.910   5.287  65.741  1.00  0.00    -0.061 OA 
HETATM   55  C   UNL     1      -9.192   3.761  67.527  1.00  0.00    -0.216 C  
HETATM   56  C   UNL     1      -8.261   5.151  65.683  1.00  0.00    -0.119 C  
HETATM   57  C   UNL     1      -8.945   5.193  67.047  1.00  0.00    -0.112 C  
ENDBRANCH  49  51
ENDBRANCH  40  49
ENDBRANCH  38  40
ENDBRANCH   8  36
TORSDOF 11
ENDMDL
MODEL       32
REMARK 921   NORMALIZED FREE ENERGY PREDICTED BY IDOCK:   -5.12 KCAL/MOL
REMARK 922        TOTAL FREE ENERGY PREDICTED BY IDOCK:  -11.84 KCAL/MOL
REMARK 923 INTER-LIGAND FREE ENERGY PREDICTED BY IDOCK:  -10.10 KCAL/MOL
REMARK 924 INTRA-LIGAND FREE ENERGY PREDICTED BY IDOCK:   -1.74 KCAL/MOL
REMARK 927      BINDING AFFINITY PREDICTED BY RF-SCORE:    0.00 PKD
ROOT
HETATM    1  C   UNL     1      -6.545  11.473  67.483  1.00  0.00    -0.087 C  
HETATM    2  S   UNL     1      -7.950  10.748  66.623  1.00  0.00    -0.145 SA 
HETATM    3  C   UNL     1      -8.701  12.321  66.214  1.00  0.00     0.062 C  
HETATM    4  C   UNL     1      -8.818  13.354  67.309  1.00  0.00    -0.220 C  
HETATM    5  CA  UNL     1      -7.893  13.427  68.318  1.00  0.00    -0.143 C  
HETATM    6  O   UNL     1      -6.080  12.210  70.677  1.00  0.00    -0.269 OA 
HETATM    7  C   UNL     1      -7.793  14.692  69.301  1.00  0.00    -0.071 C  
HETATM    8  CA  UNL     1      -5.961  10.636  68.658  1.00  0.00    -0.040 C  
HETATM    9  N   UNL     1      -6.963  12.432  68.467  1.00  0.00    -0.086 N  
HETATM   10  C   UNL     1      -6.265  11.921  69.504  1.00  0.00    -0.117 C  
HETATM   11  O   UNL     1      -6.609  15.023  69.589  1.00  0.00    -0.140 OA 
HETATM   12  OXT UNL     1      -8.867  15.336  69.475  1.00  0.00    -0.243 OA 
ENDROOT
BRANCH   4  13
HETATM   13  C   UNL     1      -9.961  14.366  67.235  1.00  0.00    -0.247 C  
BRANCH  13  14
HETATM   14  N   UNL     1     -11.489  13.898  67.343  1.00  0.00    -0.329 N  
HETATM   15  C   UNL     1     -11.698  12.266  65.589  1.00  0.00    -0.440 C  
HETATM   16  C   UNL     1     -12.239  14.546  66.131  1.00  0.00    -0.251 C  
HETATM   17  C   UNL     1     -12.607  13.399  65.197  1.00  0.00    -0.495 C  
HETATM   18  C   UNL     1     -11.627  12.403  67.098  1.00  0.00    -0.365 C  
BRANCH  14  19
HETATM   19  C   UNL     1     -12.017  14.527  68.677  1.00  0.00    -0.285 C  
BRANCH  19  20
HETATM   20  C   UNL     1     -11.698  13.745  69.979  1.00  0.00    -0.257 C  
BRANCH  20  21
HETATM   21  N   UNL     1     -11.936  12.288  69.995  1.00  0.00    -0.374 N  
HETATM   22  C   UNL     1     -12.557  11.591  71.014  1.00  0.00    -0.357 C  
HETATM   23  O   UNL     1     -13.159  12.185  71.899  1.00  0.00    -0.446 OA 
HETATM   24  H   UNL     1     -11.617  11.751  69.187  1.00  0.00     0.000 HD 
BRANCH  22  25
HETATM   25  C   UNL     1     -12.437  10.086  71.096  1.00  0.00    -0.480 A  
HETATM   26  C   UNL     1     -11.264   9.340  70.874  1.00  0.00    -0.306 A  
HETATM   27  C   UNL     1     -13.554   9.416  71.655  1.00  0.00    -0.437 A  
HETATM   28  H   UNL     1     -12.975   5.667  72.706  1.00  0.00     0.000 HD 
HETATM   29  C   UNL     1     -13.500   8.062  72.013  1.00  0.00    -0.275 A  
HETATM   30  O   UNL     1     -12.219   6.093  72.318  1.00  0.00    -0.293 OA 
HETATM   31  H   UNL     1     -10.021   6.332  71.477  1.00  0.00     0.000 HD 
HETATM   32  C   UNL     1     -11.211   7.990  71.268  1.00  0.00    -0.256 A  
HETATM   33 CL   UNL     1      -9.792  10.024  70.263  1.00  0.00    -0.229 Cl 
HETATM   34  C   UNL     1     -12.318   7.366  71.837  1.00  0.00    -0.310 A  
HETATM   35  O   UNL     1     -10.057   7.243  71.212  1.00  0.00    -0.190 OA 
ENDBRANCH  22  25
ENDBRANCH  20  21
ENDBRANCH  19  20
ENDBRANCH  14  19
ENDBRANCH  13  14
ENDBRANCH   4  13
BRANCH   8  36
HETATM   36  N   UNL     1      -6.689   9.365  69.028  1.00  0.00    -0.050 N  
HETATM   37  H   UNL     1      -7.315   9.376  69.833  1.00  0.00     0.000 HD 
HETATM   38  C   UNL     1      -6.543   8.182  68.319  1.00  0.00    -0.060 C  
HETATM   39  O   UNL     1      -5.978   8.037  67.248  1.00  0.00    -0.047 OA 
BRANCH  38  40
HETATM   40  C   UNL     1      -7.141   6.958  68.963  1.00  0.00    -0.088 C  
BRANCH  40  41
HETATM   41  C   UNL     1      -6.371   6.059  69.795  1.00  0.00    -0.037 A  
HETATM   42  H2  UNL     1      -5.501   3.765  73.238  1.00  0.00     0.000 HD 
HETATM   43  C   UNL     1      -6.029   4.892  71.619  1.00  0.00    -0.020 A  
HETATM   44  C   UNL     1      -5.580   5.048  69.269  1.00  0.00    -0.008 A  
HETATM   45  H1  UNL     1      -6.304   5.277  73.637  1.00  0.00     0.000 HD 
HETATM   46  S   UNL     1      -5.422   3.812  70.440  1.00  0.00    -0.013 SA 
HETATM   47  N   UNL     1      -5.942   4.633  72.933  1.00  0.00    -0.016 NA 
HETATM   48  N   UNL     1      -6.543   6.003  71.166  1.00  0.00    -0.048 NA 
ENDBRANCH  40  41
BRANCH  40  49
HETATM   49  N   UNL     1      -8.393   6.622  68.932  1.00  0.00    -0.119 NA 
HETATM   50  H   UNL     1      -9.101   7.151  69.440  1.00  0.00     0.000 HD 
BRANCH  49  51
HETATM   51  O   UNL     1      -8.721   5.510  68.175  1.00  0.00    -0.104 OA 
HETATM   52  O   UNL     1     -10.863   4.707  65.490  1.00  0.00    -0.278 OA 
HETATM   53  C   UNL     1      -9.725   7.119  66.593  1.00  0.00    -0.233 C  
HETATM   54  O   UNL     1      -9.547   3.510  66.881  1.00  0.00    -0.197 OA 
HETATM   55  C   UNL     1     -11.092   5.970  68.395  1.00  0.00    -0.271 C  
HETATM   56  C   UNL     1     -10.165   4.657  66.494  1.00  0.00    -0.238 C  
HETATM   57  C   UNL     1      -9.915   5.840  67.427  1.00  0.00    -0.150 C  
ENDBRANCH  49  51
ENDBRANCH  40  49
ENDBRANCH  38  40
ENDBRANCH   8  36
TORSDOF 11
ENDMDL
MODEL       33
REMARK 921   NORMALIZED FREE ENERGY PREDICTED BY IDOCK:   -5.04 KCAL/MOL
REMARK 922        TOTAL FREE ENERGY PREDICTED BY IDOCK:  -11.71 KCAL/MOL
REMARK 923 INTER-LIGAND FREE ENERGY PREDICTED BY IDOCK:   -9.76 KCAL/MOL
REMARK 924 INTRA-LIGAND FREE ENERGY PREDICTED BY IDOCK:   -1.95 KCAL/MOL
REMARK 927      BINDING AFFINITY PREDICTED BY RF-SCORE:    0.00 PKD
ROOT
HETATM    1  C   UNL     1      -9.293   6.107  66.235  1.00  0.00    -0.134 C  
HETATM    2  S   UNL     1     -10.324   7.222  67.200  1.00  0.00    -0.324 SA 
HETATM    3  C   UNL     1      -9.835   8.691  66.300  1.00  0.00    -0.249 C  
HETATM    4  C   UNL     1      -8.363   8.905  66.043  1.00  0.00    -0.128 C  
HETATM    5  CA  UNL     1      -7.509   7.846  65.880  1.00  0.00    -0.078 C  
HETATM    6  O   UNL     1      -6.198   5.031  66.710  1.00  0.00    -0.030 OA 
HETATM    7  C   UNL     1      -6.027   8.020  65.290  1.00  0.00    -0.045 C  
HETATM    8  CA  UNL     1      -8.740   4.866  66.994  1.00  0.00    -0.103 C  
HETATM    9  N   UNL     1      -7.938   6.573  66.155  1.00  0.00    -0.105 N  
HETATM   10  C   UNL     1      -7.344   5.429  66.557  1.00  0.00    -0.086 C  
HETATM   11  O   UNL     1      -5.676   7.093  64.508  1.00  0.00    -0.032 OA 
HETATM   12  OXT UNL     1      -5.492   9.150  65.480  1.00  0.00    -0.037 OA 
ENDROOT
BRANCH   4  13
HETATM   13  C   UNL     1      -7.850  10.339  65.903  1.00  0.00    -0.139 C  
BRANCH  13  14
HETATM   14  N   UNL     1      -7.912  11.363  67.133  1.00  0.00    -0.148 N  
HETATM   15  C   UNL     1      -5.920  10.857  68.381  1.00  0.00    -0.042 C  
HETATM   16  C   UNL     1      -8.302  10.521  68.394  1.00  0.00    -0.126 C  
HETATM   17  C   UNL     1      -7.067  10.497  69.287  1.00  0.00    -0.097 C  
HETATM   18  C   UNL     1      -6.531  11.904  67.470  1.00  0.00    -0.111 C  
BRANCH  14  19
HETATM   19  C   UNL     1      -9.079  12.349  66.786  1.00  0.00    -0.212 C  
BRANCH  19  20
HETATM   20  C   UNL     1     -10.512  11.871  67.141  1.00  0.00    -0.221 C  
BRANCH  20  21
HETATM   21  N   UNL     1     -11.086  12.287  68.436  1.00  0.00    -0.225 N  
HETATM   22  C   UNL     1     -11.737  13.482  68.674  1.00  0.00    -0.354 C  
HETATM   23  O   UNL     1     -12.078  14.202  67.744  1.00  0.00    -0.367 OA 
HETATM   24  H   UNL     1     -10.995  11.639  69.220  1.00  0.00     0.000 HD 
BRANCH  22  25
HETATM   25  C   UNL     1     -11.970  13.959  70.090  1.00  0.00    -0.402 A  
HETATM   26  C   UNL     1     -11.527  15.180  70.630  1.00  0.00    -0.305 A  
HETATM   27  C   UNL     1     -12.896  13.196  70.844  1.00  0.00    -0.237 A  
HETATM   28  H   UNL     1     -14.204  14.856  74.165  1.00  0.00     0.000 HD 
HETATM   29  C   UNL     1     -13.391  13.644  72.077  1.00  0.00    -0.548 A  
HETATM   30  O   UNL     1     -13.572  15.376  73.683  1.00  0.00    -0.248 OA 
HETATM   31  H   UNL     1     -12.132  17.187  73.193  1.00  0.00     0.000 HD 
HETATM   32  C   UNL     1     -12.055  15.636  71.853  1.00  0.00    -0.432 A  
HETATM   33 CL   UNL     1     -10.451  16.263  69.806  1.00  0.00    -0.279 Cl 
HETATM   34  C   UNL     1     -12.982  14.874  72.560  1.00  0.00    -0.383 A  
HETATM   35  O   UNL     1     -11.775  16.880  72.368  1.00  0.00    -0.278 OA 
ENDBRANCH  22  25
ENDBRANCH  20  21
ENDBRANCH  19  20
ENDBRANCH  14  19
ENDBRANCH  13  14
ENDBRANCH   4  13
BRANCH   8  36
HETATM   36  N   UNL     1      -9.029   4.777  68.475  1.00  0.00    -0.107 N  
HETATM   37  H   UNL     1      -9.679   4.064  68.804  1.00  0.00     0.000 HD 
HETATM   38  C   UNL     1      -8.447   5.624  69.405  1.00  0.00    -0.106 C  
HETATM   39  O   UNL     1      -7.534   6.409  69.209  1.00  0.00    -0.089 OA 
BRANCH  38  40
HETATM   40  C   UNL     1      -9.027   5.564  70.795  1.00  0.00    -0.142 C  
BRANCH  40  41
HETATM   41  C   UNL     1      -8.283   5.062  71.930  1.00  0.00    -0.116 A  
HETATM   42  H2  UNL     1      -6.441   2.134  74.360  1.00  0.00     0.000 HD 
HETATM   43  C   UNL     1      -7.346   3.465  73.103  1.00  0.00    -0.055 A  
HETATM   44  C   UNL     1      -7.286   5.798  72.552  1.00  0.00    -0.086 A  
HETATM   45  H1  UNL     1      -7.920   1.542  73.618  1.00  0.00     0.000 HD 
HETATM   46  S   UNL     1      -6.197   4.715  73.305  1.00  0.00    -0.034 SA 
HETATM   47  N   UNL     1      -7.235   2.288  73.738  1.00  0.00    -0.031 NA 
HETATM   48  N   UNL     1      -8.359   3.740  72.329  1.00  0.00    -0.087 NA 
ENDBRANCH  40  41
BRANCH  40  49
HETATM   49  N   UNL     1     -10.185   6.026  71.152  1.00  0.00    -0.200 NA 
HETATM   50  H   UNL     1     -10.807   5.496  71.762  1.00  0.00     0.000 HD 
BRANCH  49  51
HETATM   51  O   UNL     1     -10.535   7.273  70.665  1.00  0.00    -0.211 OA 
HETATM   52  O   UNL     1     -12.169  10.175  71.828  1.00  0.00    -0.374 OA 
HETATM   53  C   UNL     1     -10.887   7.886  73.032  1.00  0.00    -0.408 C  
HETATM   54  O   UNL     1     -11.405   9.483  69.820  1.00  0.00    -0.195 OA 
HETATM   55  C   UNL     1     -12.781   7.071  71.555  1.00  0.00    -0.425 C  
HETATM   56  C   UNL     1     -11.718   9.280  71.126  1.00  0.00    -0.325 C  
HETATM   57  C   UNL     1     -11.468   7.853  71.607  1.00  0.00    -0.263 C  
ENDBRANCH  49  51
ENDBRANCH  40  49
ENDBRANCH  38  40
ENDBRANCH   8  36
TORSDOF 11
ENDMDL
MODEL       34
REMARK 921   NORMALIZED FREE ENERGY PREDICTED BY IDOCK:   -5.03 KCAL/MOL
REMARK 922        TOTAL FREE ENERGY PREDICTED BY IDOCK:  -11.69 KCAL/MOL
REMARK 923 INTER-LIGAND FREE ENERGY PREDICTED BY IDOCK:  -10.54 KCAL/MOL
REMARK 924 INTRA-LIGAND FREE ENERGY PREDICTED BY IDOCK:   -1.16 KCAL/MOL
REMARK 927      BINDING AFFINITY PREDICTED BY RF-SCORE:    0.00 PKD
ROOT
HETATM    1  C   UNL     1      -8.817  10.607  69.264  1.00  0.00    -0.077 C  
HETATM    2  S   UNL     1      -7.995  10.114  67.742  1.00  0.00    -0.102 SA 
HETATM    3  C   UNL     1      -8.248  11.686  66.922  1.00  0.00    -0.169 C  
HETATM    4  C   UNL     1      -9.626  12.301  66.982  1.00  0.00    -0.208 C  
HETATM    5  CA  UNL     1     -10.446  12.100  68.060  1.00  0.00    -0.212 C  
HETATM    6  O   UNL     1     -11.964  10.298  70.248  1.00  0.00    -0.264 OA 
HETATM    7  C   UNL     1     -11.763  12.982  68.314  1.00  0.00    -0.353 C  
HETATM    8  CA  UNL     1      -9.546   9.472  70.041  1.00  0.00    -0.238 C  
HETATM    9  N   UNL     1     -10.114  11.168  69.009  1.00  0.00    -0.189 N  
HETATM   10  C   UNL     1     -10.804  10.393  69.873  1.00  0.00    -0.298 C  
HETATM   11  O   UNL     1     -11.957  13.274  69.527  1.00  0.00    -0.307 OA 
HETATM   12  OXT UNL     1     -12.302  13.469  67.279  1.00  0.00    -0.297 OA 
ENDROOT
BRANCH   4  13
HETATM   13  C   UNL     1     -10.066  13.211  65.835  1.00  0.00    -0.290 C  
BRANCH  13  14
HETATM   14  N   UNL     1     -10.644  12.602  64.471  1.00  0.00    -0.325 N  
HETATM   15  C   UNL     1     -10.315  10.235  64.732  1.00  0.00    -0.101 C  
HETATM   16  C   UNL     1      -9.405  12.164  63.620  1.00  0.00     0.334 C  
HETATM   17  C   UNL     1      -9.435  10.640  63.580  1.00  0.00    -0.337 C  
HETATM   18  C   UNL     1     -11.392  11.302  64.720  1.00  0.00     0.027 C  
BRANCH  14  19
HETATM   19  C   UNL     1     -11.364  13.799  63.762  1.00  0.00     0.125 C  
BRANCH  19  20
HETATM   20  C   UNL     1     -11.938  14.903  64.689  1.00  0.00    -0.401 C  
BRANCH  20  21
HETATM   21  N   UNL     1     -11.008  15.606  65.596  1.00  0.00    -0.304 N  
HETATM   22  C   UNL     1     -10.558  16.901  65.431  1.00  0.00    -0.162 C  
HETATM   23  O   UNL     1     -11.084  17.645  64.614  1.00  0.00    -0.906 OA 
HETATM   24  H   UNL     1     -10.672  15.093  66.412  1.00  0.00     0.000 HD 
BRANCH  22  25
HETATM   25  C   UNL     1      -9.356  17.398  66.203  1.00  0.00    -0.176 A  
HETATM   26  C   UNL     1      -9.311  18.558  66.999  1.00  0.00    -0.288 A  
HETATM   27  C   UNL     1      -8.271  16.490  66.291  1.00  0.00    -0.360 A  
HETATM   28  H   UNL     1      -5.521  17.337  68.976  1.00  0.00     0.000 HD 
HETATM   29  C   UNL     1      -7.195  16.709  67.161  1.00  0.00    -0.219 A  
HETATM   30  O   UNL     1      -6.230  17.966  68.922  1.00  0.00    -0.196 OA 
HETATM   31  H   UNL     1      -7.483  19.915  69.402  1.00  0.00     0.000 HD 
HETATM   32  C   UNL     1      -8.241  18.750  67.893  1.00  0.00    -0.269 A  
HETATM   33 CL   UNL     1     -10.587  19.731  67.061  1.00  0.00    -0.591 Cl 
HETATM   34  C   UNL     1      -7.201  17.828  67.973  1.00  0.00    -0.218 A  
HETATM   35  O   UNL     1      -8.205  19.786  68.799  1.00  0.00    -0.291 OA 
ENDBRANCH  22  25
ENDBRANCH  20  21
ENDBRANCH  19  20
ENDBRANCH  14  19
ENDBRANCH  13  14
ENDBRANCH   4  13
BRANCH   8  36
HETATM   36  N   UNL     1      -9.585   8.107  69.393  1.00  0.00    -0.166 N  
HETATM   37  H   UNL     1     -10.391   7.862  68.819  1.00  0.00     0.000 HD 
HETATM   38  C   UNL     1      -8.571   7.174  69.546  1.00  0.00    -0.134 C  
HETATM   39  O   UNL     1      -7.476   7.361  70.049  1.00  0.00    -0.081 OA 
BRANCH  38  40
HETATM   40  C   UNL     1      -8.879   5.788  69.043  1.00  0.00    -0.111 C  
BRANCH  40  41
HETATM   41  C   UNL     1      -8.646   5.385  67.672  1.00  0.00    -0.104 A  
HETATM   42  H2  UNL     1      -9.651   3.821  63.875  1.00  0.00     0.000 HD 
HETATM   43  C   UNL     1      -9.281   4.576  65.737  1.00  0.00    -0.146 A  
HETATM   44  C   UNL     1      -7.732   6.027  66.851  1.00  0.00    -0.100 A  
HETATM   45  H1  UNL     1     -10.497   2.995  65.175  1.00  0.00     0.000 HD 
HETATM   46  S   UNL     1      -8.209   5.805  65.224  1.00  0.00    -0.143 SA 
HETATM   47  N   UNL     1      -9.858   3.729  64.870  1.00  0.00    -0.184 NA 
HETATM   48  N   UNL     1      -9.471   4.483  67.024  1.00  0.00    -0.156 NA 
ENDBRANCH  40  41
BRANCH  40  49
HETATM   49  N   UNL     1      -9.284   4.792  69.769  1.00  0.00    -0.112 NA 
HETATM   50  H   UNL     1      -8.940   3.844  69.617  1.00  0.00     0.000 HD 
BRANCH  49  51
HETATM   51  O   UNL     1     -10.207   5.079  70.760  1.00  0.00    -0.232 OA 
HETATM   52  O   UNL     1     -10.475   4.755  74.262  1.00  0.00    -0.247 OA 
HETATM   53  C   UNL     1      -8.329   4.765  72.333  1.00  0.00    -0.116 C  
HETATM   54  O   UNL     1     -11.893   5.362  72.612  1.00  0.00    -0.247 OA 
HETATM   55  C   UNL     1      -9.930   2.885  71.754  1.00  0.00    -0.187 C  
HETATM   56  C   UNL     1     -10.720   4.847  73.066  1.00  0.00    -0.244 C  
HETATM   57  C   UNL     1      -9.774   4.393  71.958  1.00  0.00    -0.166 C  
ENDBRANCH  49  51
ENDBRANCH  40  49
ENDBRANCH  38  40
ENDBRANCH   8  36
TORSDOF 11
ENDMDL
MODEL       35
REMARK 921   NORMALIZED FREE ENERGY PREDICTED BY IDOCK:   -4.95 KCAL/MOL
REMARK 922        TOTAL FREE ENERGY PREDICTED BY IDOCK:  -11.56 KCAL/MOL
REMARK 923 INTER-LIGAND FREE ENERGY PREDICTED BY IDOCK:   -9.92 KCAL/MOL
REMARK 924 INTRA-LIGAND FREE ENERGY PREDICTED BY IDOCK:   -1.64 KCAL/MOL
REMARK 927      BINDING AFFINITY PREDICTED BY RF-SCORE:    0.00 PKD
ROOT
HETATM    1  C   UNL     1     -10.202   8.323  69.028  1.00  0.00    -0.217 C  
HETATM    2  S   UNL     1     -10.658   8.703  67.330  1.00  0.00    -0.158 SA 
HETATM    3  C   UNL     1      -9.626   7.429  66.611  1.00  0.00    -0.190 C  
HETATM    4  C   UNL     1      -8.203   7.312  67.102  1.00  0.00    -0.118 C  
HETATM    5  CA  UNL     1      -7.867   7.635  68.390  1.00  0.00    -0.121 C  
HETATM    6  O   UNL     1      -7.820   9.543  70.977  1.00  0.00    -0.316 OA 
HETATM    7  C   UNL     1      -6.460   7.223  69.040  1.00  0.00    -0.036 C  
HETATM    8  CA  UNL     1     -10.195   9.527  70.015  1.00  0.00    -0.244 C  
HETATM    9  N   UNL     1      -8.777   8.269  69.195  1.00  0.00    -0.142 N  
HETATM   10  C   UNL     1      -8.701   9.113  70.247  1.00  0.00    -0.200 C  
HETATM   11  O   UNL     1      -6.540   6.859  70.247  1.00  0.00    -0.045 OA 
HETATM   12  OXT UNL     1      -5.501   7.084  68.227  1.00  0.00    -0.018 OA 
ENDROOT
BRANCH   4  13
HETATM   13  C   UNL     1      -7.147   6.760  66.144  1.00  0.00    -0.066 C  
BRANCH  13  14
HETATM   14  N   UNL     1      -7.210   5.245  65.627  1.00  0.00    -0.067 N  
HETATM   15  C   UNL     1      -5.505   5.161  63.934  1.00  0.00    -0.013 C  
HETATM   16  C   UNL     1      -7.890   5.285  64.217  1.00  0.00    -0.101 C  
HETATM   17  C   UNL     1      -6.803   4.923  63.211  1.00  0.00    -0.038 C  
HETATM   18  C   UNL     1      -5.819   4.700  65.344  1.00  0.00    -0.022 C  
BRANCH  14  19
HETATM   19  C   UNL     1      -8.153   4.507  66.637  1.00  0.00    -0.103 C  
BRANCH  19  20
HETATM   20  C   UNL     1      -7.458   3.763  67.808  1.00  0.00    -0.067 C  
BRANCH  20  21
HETATM   21  N   UNL     1      -7.852   4.111  69.189  1.00  0.00    -0.057 N  
HETATM   22  C   UNL     1      -8.957   3.614  69.854  1.00  0.00    -0.104 C  
HETATM   23  O   UNL     1      -9.578   2.660  69.403  1.00  0.00    -0.113 OA 
HETATM   24  H   UNL     1      -7.261   4.773  69.693  1.00  0.00     0.000 HD 
BRANCH  22  25
HETATM   25  C   UNL     1      -9.463   4.289  71.108  1.00  0.00    -0.233 A  
HETATM   26  C   UNL     1      -8.829   4.274  72.364  1.00  0.00    -0.108 A  
HETATM   27  C   UNL     1     -10.549   5.181  70.924  1.00  0.00    -0.202 A  
HETATM   28  H   UNL     1     -11.329   7.601  73.927  1.00  0.00     0.000 HD 
HETATM   29  C   UNL     1     -10.971   6.050  71.938  1.00  0.00    -0.316 A  
HETATM   30  O   UNL     1     -10.609   7.001  74.078  1.00  0.00    -0.341 OA 
HETATM   31  H   UNL     1      -8.851   5.921  75.236  1.00  0.00     0.000 HD 
HETATM   32  C   UNL     1      -9.239   5.175  73.365  1.00  0.00    -0.130 A  
HETATM   33 CL   UNL     1      -7.445   3.294  72.731  1.00  0.00    -0.049 Cl 
HETATM   34  C   UNL     1     -10.295   6.056  73.145  1.00  0.00    -0.213 A  
HETATM   35  O   UNL     1      -8.574   5.313  74.561  1.00  0.00    -0.109 OA 
ENDBRANCH  22  25
ENDBRANCH  20  21
ENDBRANCH  19  20
ENDBRANCH  14  19
ENDBRANCH  13  14
ENDBRANCH   4  13
BRANCH   8  36
HETATM   36  N   UNL     1     -10.462  10.897  69.435  1.00  0.00    -0.346 N  
HETATM   37  H   UNL     1     -11.337  11.365  69.670  1.00  0.00     0.000 HD 
HETATM   38  C   UNL     1      -9.567  11.544  68.597  1.00  0.00    -0.152 C  
HETATM   39  O   UNL     1      -8.420  11.209  68.353  1.00  0.00    -0.137 OA 
BRANCH  38  40
HETATM   40  C   UNL     1     -10.091  12.782  67.915  1.00  0.00    -0.231 C  
BRANCH  40  41
HETATM   41  C   UNL     1     -10.128  14.075  68.565  1.00  0.00    -0.236 A  
HETATM   42  H2  UNL     1      -9.099  18.129  69.175  1.00  0.00     0.000 HD 
HETATM   43  C   UNL     1      -9.538  16.175  68.777  1.00  0.00    -0.235 A  
HETATM   44  C   UNL     1     -11.268  14.565  69.185  1.00  0.00    -0.269 A  
HETATM   45  H1  UNL     1      -7.732  17.177  68.614  1.00  0.00     0.000 HD 
HETATM   46  S   UNL     1     -11.195  16.274  69.188  1.00  0.00    -0.281 SA 
HETATM   47  N   UNL     1      -8.720  17.236  68.859  1.00  0.00    -0.223 NA 
HETATM   48  N   UNL     1      -9.107  14.996  68.421  1.00  0.00    -0.178 NA 
ENDBRANCH  40  41
BRANCH  40  49
HETATM   49  N   UNL     1     -10.469  12.861  66.677  1.00  0.00    -0.260 NA 
HETATM   50  H   UNL     1     -10.809  12.045  66.169  1.00  0.00     0.000 HD 
BRANCH  49  51
HETATM   51  O   UNL     1     -10.388  14.107  66.080  1.00  0.00    -0.284 OA 
HETATM   52  O   UNL     1     -12.263  16.051  63.812  1.00  0.00    -0.895 OA 
HETATM   53  C   UNL     1     -12.771  13.782  65.520  1.00  0.00    -0.530 C  
HETATM   54  O   UNL     1     -10.233  16.260  64.778  1.00  0.00    -0.425 OA 
HETATM   55  C   UNL     1     -10.913  13.178  63.903  1.00  0.00    -0.308 C  
HETATM   56  C   UNL     1     -11.357  15.561  64.472  1.00  0.00    -0.314 C  
HETATM   57  C   UNL     1     -11.363  14.132  65.011  1.00  0.00    -0.350 C  
ENDBRANCH  49  51
ENDBRANCH  40  49
ENDBRANCH  38  40
ENDBRANCH   8  36
TORSDOF 11
ENDMDL
MODEL       36
REMARK 921   NORMALIZED FREE ENERGY PREDICTED BY IDOCK:   -4.90 KCAL/MOL
REMARK 922        TOTAL FREE ENERGY PREDICTED BY IDOCK:  -11.48 KCAL/MOL
REMARK 923 INTER-LIGAND FREE ENERGY PREDICTED BY IDOCK:   -9.80 KCAL/MOL
REMARK 924 INTRA-LIGAND FREE ENERGY PREDICTED BY IDOCK:   -1.68 KCAL/MOL
REMARK 927      BINDING AFFINITY PREDICTED BY RF-SCORE:    0.00 PKD
ROOT
HETATM    1  C   UNL     1      -9.872   5.169  66.473  1.00  0.00    -0.192 C  
HETATM    2  S   UNL     1     -10.737   6.433  67.417  1.00  0.00    -0.378 SA 
HETATM    3  C   UNL     1     -10.178   7.791  66.392  1.00  0.00     0.018 C  
HETATM    4  C   UNL     1      -8.711   7.851  66.038  1.00  0.00    -0.182 C  
HETATM    5  CA  UNL     1      -7.967   6.709  65.900  1.00  0.00    -0.112 C  
HETATM    6  O   UNL     1      -6.861   3.842  66.844  1.00  0.00    -0.049 OA 
HETATM    7  C   UNL     1      -6.515   6.708  65.215  1.00  0.00    -0.046 C  
HETATM    8  CA  UNL     1      -9.384   3.931  67.282  1.00  0.00    -0.191 C  
HETATM    9  N   UNL     1      -8.488   5.501  66.285  1.00  0.00    -0.119 N  
HETATM   10  C   UNL     1      -7.973   4.335  66.729  1.00  0.00    -0.098 C  
HETATM   11  O   UNL     1      -6.297   5.705  64.480  1.00  0.00    -0.031 OA 
HETATM   12  OXT UNL     1      -5.871   7.794  65.297  1.00  0.00    -0.037 OA 
ENDROOT
BRANCH   4  13
HETATM   13  C   UNL     1      -8.083   9.219  65.772  1.00  0.00    -0.115 C  
BRANCH  13  14
HETATM   14  N   UNL     1      -8.000  10.329  66.923  1.00  0.00    -0.111 N  
HETATM   15  C   UNL     1      -5.641  10.518  67.347  1.00  0.00    -0.044 C  
HETATM   16  C   UNL     1      -7.658   9.570  68.249  1.00  0.00    -0.078 C  
HETATM   17  C   UNL     1      -6.237   9.979  68.619  1.00  0.00    -0.044 C  
HETATM   18  C   UNL     1      -6.809  11.251  66.716  1.00  0.00    -0.140 C  
BRANCH  14  19
HETATM   19  C   UNL     1      -9.446  10.924  67.024  1.00  0.00    -0.164 C  
BRANCH  19  20
HETATM   20  C   UNL     1      -9.695  11.935  68.175  1.00  0.00    -0.194 C  
BRANCH  20  21
HETATM   21  N   UNL     1      -9.474  13.370  67.903  1.00  0.00    -0.209 N  
HETATM   22  C   UNL     1     -10.194  14.409  68.462  1.00  0.00    -0.243 C  
HETATM   23  O   UNL     1     -10.943  14.209  69.410  1.00  0.00    -0.239 OA 
HETATM   24  H   UNL     1      -8.729  13.615  67.250  1.00  0.00     0.000 HD 
BRANCH  22  25
HETATM   25  C   UNL     1     -10.129  15.795  67.862  1.00  0.00    -0.230 A  
HETATM   26  C   UNL     1     -10.314  16.113  66.503  1.00  0.00    -0.308 A  
HETATM   27  C   UNL     1     -10.098  16.861  68.795  1.00  0.00    -0.295 A  
HETATM   28  H   UNL     1     -10.817  20.450  67.347  1.00  0.00     0.000 HD 
HETATM   29  C   UNL     1     -10.275  18.194  68.399  1.00  0.00    -0.401 A  
HETATM   30  O   UNL     1     -10.826  19.752  66.702  1.00  0.00    -0.467 OA 
HETATM   31  H   UNL     1     -10.991  18.721  64.579  1.00  0.00     0.000 HD 
HETATM   32  C   UNL     1     -10.523  17.452  66.122  1.00  0.00    -0.284 A  
HETATM   33 CL   UNL     1     -10.445  14.925  65.247  1.00  0.00    -0.395 Cl 
HETATM   34  C   UNL     1     -10.510  18.475  67.066  1.00  0.00    -0.402 A  
HETATM   35  O   UNL     1     -10.849  17.817  64.836  1.00  0.00    -0.815 OA 
ENDBRANCH  22  25
ENDBRANCH  20  21
ENDBRANCH  19  20
ENDBRANCH  14  19
ENDBRANCH  13  14
ENDBRANCH   4  13
BRANCH   8  36
HETATM   36  N   UNL     1      -9.586   3.963  68.780  1.00  0.00    -0.148 N  
HETATM   37  H   UNL     1     -10.337   3.404  69.183  1.00  0.00     0.000 HD 
HETATM   38  C   UNL     1      -8.793   4.720  69.628  1.00  0.00    -0.086 C  
HETATM   39  O   UNL     1      -7.762   5.303  69.339  1.00  0.00    -0.077 OA 
BRANCH  38  40
HETATM   40  C   UNL     1      -9.281   4.831  71.050  1.00  0.00    -0.141 C  
BRANCH  40  41
HETATM   41  C   UNL     1      -8.622   4.169  72.155  1.00  0.00    -0.106 A  
HETATM   42  H2  UNL     1      -5.834   1.594  74.016  1.00  0.00     0.000 HD 
HETATM   43  C   UNL     1      -7.123   2.822  73.015  1.00  0.00    -0.039 A  
HETATM   44  C   UNL     1      -8.478   4.761  73.401  1.00  0.00    -0.102 A  
HETATM   45  H1  UNL     1      -6.405   0.952  72.483  1.00  0.00     0.000 HD 
HETATM   46  S   UNL     1      -7.117   4.076  74.177  1.00  0.00    -0.063 SA 
HETATM   47  N   UNL     1      -6.402   1.701  73.176  1.00  0.00    -0.012 NA 
HETATM   48  N   UNL     1      -7.902   3.001  71.985  1.00  0.00    -0.053 NA 
ENDBRANCH  40  41
BRANCH  40  49
HETATM   49  N   UNL     1     -10.255   5.584  71.458  1.00  0.00    -0.205 NA 
HETATM   50  H   UNL     1     -10.882   5.288  72.206  1.00  0.00     0.000 HD 
BRANCH  49  51
HETATM   51  O   UNL     1     -10.402   6.808  70.830  1.00  0.00    -0.201 OA 
HETATM   52  O   UNL     1     -11.964   9.907  71.463  1.00  0.00    -0.379 OA 
HETATM   53  C   UNL     1     -11.124   7.641  73.040  1.00  0.00    -0.437 C  
HETATM   54  O   UNL     1     -10.910   8.996  69.685  1.00  0.00    -0.231 OA 
HETATM   55  C   UNL     1     -12.781   6.843  71.295  1.00  0.00    -0.368 C  
HETATM   56  C   UNL     1     -11.471   8.926  70.921  1.00  0.00    -0.288 C  
HETATM   57  C   UNL     1     -11.437   7.530  71.538  1.00  0.00    -0.265 C  
ENDBRANCH  49  51
ENDBRANCH  40  49
ENDBRANCH  38  40
ENDBRANCH   8  36
TORSDOF 11
ENDMDL
MODEL       37
REMARK 921   NORMALIZED FREE ENERGY PREDICTED BY IDOCK:   -4.89 KCAL/MOL
REMARK 922        TOTAL FREE ENERGY PREDICTED BY IDOCK:  -11.47 KCAL/MOL
REMARK 923 INTER-LIGAND FREE ENERGY PREDICTED BY IDOCK:  -10.22 KCAL/MOL
REMARK 924 INTRA-LIGAND FREE ENERGY PREDICTED BY IDOCK:   -1.25 KCAL/MOL
REMARK 927      BINDING AFFINITY PREDICTED BY RF-SCORE:    0.00 PKD
ROOT
HETATM    1  C   UNL     1      -8.263   9.342  69.970  1.00  0.00    -0.154 C  
HETATM    2  S   UNL     1      -7.669   9.275  68.274  1.00  0.00    -0.087 SA 
HETATM    3  C   UNL     1      -8.540  10.751  67.754  1.00  0.00    -0.127 C  
HETATM    4  C   UNL     1      -9.994  10.884  68.139  1.00  0.00    -0.188 C  
HETATM    5  CA  UNL     1     -10.475  10.337  69.298  1.00  0.00    -0.228 C  
HETATM    6  O   UNL     1     -10.900   7.957  71.418  1.00  0.00    -0.223 OA 
HETATM    7  C   UNL     1     -11.910  10.726  69.902  1.00  0.00    -0.335 C  
HETATM    8  CA  UNL     1      -8.445   7.968  70.681  1.00  0.00    -0.125 C  
HETATM    9  N   UNL     1      -9.692   9.479  70.027  1.00  0.00    -0.220 N  
HETATM   10  C   UNL     1      -9.926   8.451  70.869  1.00  0.00    -0.191 C  
HETATM   11  O   UNL     1     -11.925  10.830  71.160  1.00  0.00    -0.329 OA 
HETATM   12  OXT UNL     1     -12.773  11.105  69.058  1.00  0.00    -0.237 OA 
ENDROOT
BRANCH   4  13
HETATM   13  C   UNL     1     -10.913  11.705  67.233  1.00  0.00    -0.267 C  
BRANCH  13  14
HETATM   14  N   UNL     1     -10.886  13.306  67.259  1.00  0.00    -0.262 N  
HETATM   15  C   UNL     1     -12.127  13.918  65.293  1.00  0.00    -0.422 C  
HETATM   16  C   UNL     1      -9.883  13.752  66.143  1.00  0.00    -0.297 C  
HETATM   17  C   UNL     1     -10.725  14.408  65.054  1.00  0.00    -0.440 C  
HETATM   18  C   UNL     1     -12.216  13.888  66.807  1.00  0.00    -0.399 C  
BRANCH  14  19
HETATM   19  C   UNL     1     -10.301  13.682  68.663  1.00  0.00    -0.219 C  
BRANCH  19  20
HETATM   20  C   UNL     1     -10.987  14.863  69.400  1.00  0.00    -0.271 C  
BRANCH  20  21
HETATM   21  N   UNL     1     -10.318  16.180  69.384  1.00  0.00    -0.258 N  
HETATM   22  C   UNL     1     -10.389  17.099  68.356  1.00  0.00    -0.362 C  
HETATM   23  O   UNL     1     -11.210  16.968  67.457  1.00  0.00    -0.090 OA 
HETATM   24  H   UNL     1      -9.757  16.430  70.199  1.00  0.00     0.000 HD 
BRANCH  22  25
HETATM   25  C   UNL     1      -9.401  18.242  68.281  1.00  0.00    -0.320 A  
HETATM   26  C   UNL     1      -8.005  18.134  68.428  1.00  0.00    -0.302 A  
HETATM   27  C   UNL     1      -9.926  19.470  67.806  1.00  0.00    -0.494 A  
HETATM   28  H   UNL     1      -7.282  22.190  66.755  1.00  0.00     0.000 HD 
HETATM   29  C   UNL     1      -9.094  20.543  67.459  1.00  0.00    -0.413 A  
HETATM   30  O   UNL     1      -6.910  21.381  67.086  1.00  0.00    -0.552 OA 
HETATM   31  H   UNL     1      -5.247  19.843  67.770  1.00  0.00     0.000 HD 
HETATM   32  C   UNL     1      -7.178  19.207  68.045  1.00  0.00    -0.256 A  
HETATM   33 CL   UNL     1      -7.201  16.682  68.929  1.00  0.00    -0.207 Cl 
HETATM   34  C   UNL     1      -7.723  20.393  67.560  1.00  0.00    -0.299 A  
HETATM   35  O   UNL     1      -5.805  19.119  68.029  1.00  0.00    -0.199 OA 
ENDBRANCH  22  25
ENDBRANCH  20  21
ENDBRANCH  19  20
ENDBRANCH  14  19
ENDBRANCH  13  14
ENDBRANCH   4  13
BRANCH   8  36
HETATM   36  N   UNL     1      -8.212   6.727  69.852  1.00  0.00    -0.125 N  
HETATM   37  H   UNL     1      -7.253   6.418  69.692  1.00  0.00     0.000 HD 
HETATM   38  C   UNL     1      -9.247   5.988  69.298  1.00  0.00    -0.127 C  
HETATM   39  O   UNL     1     -10.438   6.114  69.526  1.00  0.00    -0.205 OA 
BRANCH  38  40
HETATM   40  C   UNL     1      -8.836   4.933  68.304  1.00  0.00    -0.103 C  
BRANCH  40  41
HETATM   41  C   UNL     1      -8.568   5.233  66.913  1.00  0.00    -0.105 A  
HETATM   42  H2  UNL     1      -6.254   6.467  63.598  1.00  0.00     0.000 HD 
HETATM   43  C   UNL     1      -7.273   5.871  65.265  1.00  0.00    -0.073 A  
HETATM   44  C   UNL     1      -9.180   4.550  65.872  1.00  0.00    -0.143 A  
HETATM   45  H1  UNL     1      -5.860   7.371  65.052  1.00  0.00     0.000 HD 
HETATM   46  S   UNL     1      -8.167   4.632  64.497  1.00  0.00    -0.117 SA 
HETATM   47  N   UNL     1      -6.393   6.632  64.595  1.00  0.00    -0.038 NA 
HETATM   48  N   UNL     1      -7.528   6.059  66.530  1.00  0.00    -0.088 NA 
ENDBRANCH  40  41
BRANCH  40  49
HETATM   49  N   UNL     1      -8.586   3.691  68.579  1.00  0.00    -0.087 NA 
HETATM   50  H   UNL     1      -8.486   2.990  67.845  1.00  0.00     0.000 HD 
BRANCH  49  51
HETATM   51  O   UNL     1      -8.462   3.362  69.918  1.00  0.00    -0.051 OA 
HETATM   52  O   UNL     1      -5.881   2.622  72.205  1.00  0.00    -0.008 OA 
HETATM   53  C   UNL     1      -6.074   3.927  69.638  1.00  0.00    -0.023 C  
HETATM   54  O   UNL     1      -8.137   2.553  72.283  1.00  0.00    -0.053 OA 
HETATM   55  C   UNL     1      -6.933   1.551  69.407  1.00  0.00    -0.033 C  
HETATM   56  C   UNL     1      -6.956   2.684  71.623  1.00  0.00    -0.031 C  
HETATM   57  C   UNL     1      -7.108   2.894  70.119  1.00  0.00    -0.034 C  
ENDBRANCH  49  51
ENDBRANCH  40  49
ENDBRANCH  38  40
ENDBRANCH   8  36
TORSDOF 11
ENDMDL
MODEL       38
REMARK 921   NORMALIZED FREE ENERGY PREDICTED BY IDOCK:   -4.86 KCAL/MOL
REMARK 922        TOTAL FREE ENERGY PREDICTED BY IDOCK:  -11.42 KCAL/MOL
REMARK 923 INTER-LIGAND FREE ENERGY PREDICTED BY IDOCK:   -9.36 KCAL/MOL
REMARK 924 INTRA-LIGAND FREE ENERGY PREDICTED BY IDOCK:   -2.05 KCAL/MOL
REMARK 927      BINDING AFFINITY PREDICTED BY RF-SCORE:    0.00 PKD
ROOT
HETATM    1  C   UNL     1      -8.815  10.946  68.713  1.00  0.00    -0.161 C  
HETATM    2  S   UNL     1      -9.894  10.657  67.302  1.00  0.00    -0.180 SA 
HETATM    3  C   UNL     1      -9.465   8.925  67.141  1.00  0.00    -0.157 C  
HETATM    4  C   UNL     1      -8.002   8.553  67.181  1.00  0.00    -0.101 C  
HETATM    5  CA  UNL     1      -7.105   9.280  67.918  1.00  0.00    -0.078 C  
HETATM    6  O   UNL     1      -5.679  11.993  68.888  1.00  0.00    -0.050 OA 
HETATM    7  C   UNL     1      -5.630   8.741  68.251  1.00  0.00    -0.038 C  
HETATM    8  CA  UNL     1      -8.212  12.377  68.825  1.00  0.00     0.099 C  
HETATM    9  N   UNL     1      -7.480  10.480  68.464  1.00  0.00    -0.087 N  
HETATM   10  C   UNL     1      -6.839  11.619  68.805  1.00  0.00    -0.090 C  
HETATM   11  O   UNL     1      -5.238   9.011  69.420  1.00  0.00    -0.035 OA 
HETATM   12  OXT UNL     1      -5.143   7.929  67.412  1.00  0.00    -0.029 OA 
ENDROOT
BRANCH   4  13
HETATM   13  C   UNL     1      -7.550   7.302  66.429  1.00  0.00    -0.092 C  
BRANCH  13  14
HETATM   14  N   UNL     1      -7.441   7.291  64.831  1.00  0.00    -0.084 N  
HETATM   15  C   UNL     1      -6.333   9.365  64.332  1.00  0.00    -0.084 C  
HETATM   16  C   UNL     1      -8.498   8.319  64.307  1.00  0.00     0.017 C  
HETATM   17  C   UNL     1      -7.706   9.486  63.728  1.00  0.00    -0.126 C  
HETATM   18  C   UNL     1      -6.113   7.865  64.364  1.00  0.00    -0.052 C  
BRANCH  14  19
HETATM   19  C   UNL     1      -7.866   5.845  64.402  1.00  0.00    -0.112 C  
BRANCH  19  20
HETATM   20  C   UNL     1      -9.214   5.328  64.969  1.00  0.00     0.040 C  
BRANCH  20  21
HETATM   21  N   UNL     1      -9.225   4.752  66.330  1.00  0.00    -0.134 N  
HETATM   22  C   UNL     1     -10.032   5.173  67.369  1.00  0.00    -0.180 C  
HETATM   23  O   UNL     1     -10.971   5.931  67.161  1.00  0.00    -0.295 OA 
HETATM   24  H   UNL     1      -8.583   3.981  66.517  1.00  0.00     0.000 HD 
BRANCH  22  25
HETATM   25  C   UNL     1      -9.723   4.767  68.792  1.00  0.00    -0.235 A  
HETATM   26  C   UNL     1      -9.915   5.564  69.936  1.00  0.00    -0.215 A  
HETATM   27  C   UNL     1      -9.424   3.395  68.982  1.00  0.00    -0.202 A  
HETATM   28  H   UNL     1      -9.483   2.110  72.702  1.00  0.00     0.000 HD 
HETATM   29  C   UNL     1      -9.350   2.826  70.260  1.00  0.00    -0.210 A  
HETATM   30  O   UNL     1      -9.670   3.036  72.598  1.00  0.00    -0.116 OA 
HETATM   31  H   UNL     1     -10.160   5.265  73.223  1.00  0.00     0.000 HD 
HETATM   32  C   UNL     1      -9.871   4.975  71.213  1.00  0.00    -0.182 A  
HETATM   33 CL   UNL     1     -10.356   7.241  69.876  1.00  0.00    -0.217 Cl 
HETATM   34  C   UNL     1      -9.598   3.618  71.366  1.00  0.00    -0.167 A  
HETATM   35  O   UNL     1     -10.189   5.663  72.362  1.00  0.00    -0.184 OA 
ENDBRANCH  22  25
ENDBRANCH  20  21
ENDBRANCH  19  20
ENDBRANCH  14  19
ENDBRANCH  13  14
ENDBRANCH   4  13
BRANCH   8  36
HETATM   36  N   UNL     1      -8.500  13.337  67.695  1.00  0.00    -0.177 N  
HETATM   37  H   UNL     1      -8.241  13.067  66.746  1.00  0.00     0.000 HD 
HETATM   38  C   UNL     1      -9.100  14.571  67.892  1.00  0.00    -0.191 C  
HETATM   39  O   UNL     1      -9.619  14.976  68.919  1.00  0.00    -0.208 OA 
BRANCH  38  40
HETATM   40  C   UNL     1      -9.088  15.500  66.705  1.00  0.00    -0.255 C  
BRANCH  40  41
HETATM   41  C   UNL     1      -8.021  16.449  66.467  1.00  0.00    -0.307 A  
HETATM   42  H2  UNL     1      -6.321  20.176  65.424  1.00  0.00     0.000 HD 
HETATM   43  C   UNL     1      -7.249  18.428  65.928  1.00  0.00    -0.232 A  
HETATM   44  C   UNL     1      -6.829  16.424  67.175  1.00  0.00    -0.203 A  
HETATM   45  H1  UNL     1      -7.754  19.814  64.473  1.00  0.00     0.000 HD 
HETATM   46  S   UNL     1      -6.159  17.997  67.173  1.00  0.00    -0.151 SA 
HETATM   47  N   UNL     1      -7.105  19.557  65.216  1.00  0.00    -0.414 NA 
HETATM   48  N   UNL     1      -8.204  17.573  65.683  1.00  0.00    -0.334 NA 
ENDBRANCH  40  41
BRANCH  40  49
HETATM   49  N   UNL     1      -9.948  15.498  65.734  1.00  0.00    -0.335 NA 
HETATM   50  H   UNL     1     -10.495  16.327  65.503  1.00  0.00     0.000 HD 
BRANCH  49  51
HETATM   51  O   UNL     1     -10.086  14.316  65.027  1.00  0.00    -0.389 OA 
HETATM   52  O   UNL     1     -12.618  12.592  63.279  1.00  0.00    -0.667 OA 
HETATM   53  C   UNL     1     -12.176  15.304  64.158  1.00  0.00    -0.133 C  
HETATM   54  O   UNL     1     -10.506  12.098  63.906  1.00  0.00    -0.338 OA 
HETATM   55  C   UNL     1     -12.149  13.781  66.185  1.00  0.00    -0.477 C  
HETATM   56  C   UNL     1     -11.620  12.875  63.928  1.00  0.00    -0.453 C  
HETATM   57  C   UNL     1     -11.504  14.098  64.835  1.00  0.00    -0.366 C  
ENDBRANCH  49  51
ENDBRANCH  40  49
ENDBRANCH  38  40
ENDBRANCH   8  36
TORSDOF 11
ENDMDL
MODEL       39
REMARK 921   NORMALIZED FREE ENERGY PREDICTED BY IDOCK:   -4.80 KCAL/MOL
REMARK 922        TOTAL FREE ENERGY PREDICTED BY IDOCK:  -11.31 KCAL/MOL
REMARK 923 INTER-LIGAND FREE ENERGY PREDICTED BY IDOCK:  -10.48 KCAL/MOL
REMARK 924 INTRA-LIGAND FREE ENERGY PREDICTED BY IDOCK:   -0.83 KCAL/MOL
REMARK 927      BINDING AFFINITY PREDICTED BY RF-SCORE:    0.00 PKD
ROOT
HETATM    1  C   UNL     1      -7.814   9.491  69.893  1.00  0.00    -0.138 C  
HETATM    2  S   UNL     1      -7.465  10.090  68.233  1.00  0.00    -0.079 SA 
HETATM    3  C   UNL     1      -8.711  11.376  68.274  1.00  0.00    -0.160 C  
HETATM    4  C   UNL     1     -10.089  11.009  68.772  1.00  0.00    -0.214 C  
HETATM    5  CA  UNL     1     -10.265  10.035  69.720  1.00  0.00    -0.250 C  
HETATM    6  O   UNL     1      -9.841   7.107  70.976  1.00  0.00    -0.180 OA 
HETATM    7  C   UNL     1     -11.652   9.842  70.505  1.00  0.00    -0.309 C  
HETATM    8  CA  UNL     1      -7.580   7.971  70.131  1.00  0.00    -0.081 C  
HETATM    9  N   UNL     1      -9.214   9.233  70.081  1.00  0.00    -0.206 N  
HETATM   10  C   UNL     1      -9.089   7.976  70.558  1.00  0.00    -0.153 C  
HETATM   11  O   UNL     1     -11.512   9.560  71.728  1.00  0.00    -0.384 OA 
HETATM   12  OXT UNL     1     -12.688  10.219  69.886  1.00  0.00    -0.086 OA 
ENDROOT
BRANCH   4  13
HETATM   13  C   UNL     1     -11.287  11.795  68.240  1.00  0.00    -0.282 C  
BRANCH  13  14
HETATM   14  N   UNL     1     -11.134  13.319  67.771  1.00  0.00    -0.256 N  
HETATM   15  C   UNL     1     -11.759  13.254  65.450  1.00  0.00    -0.370 C  
HETATM   16  C   UNL     1      -9.839  13.386  66.893  1.00  0.00    -0.256 C  
HETATM   17  C   UNL     1     -10.307  13.649  65.466  1.00  0.00    -0.319 C  
HETATM   18  C   UNL     1     -12.245  13.715  66.811  1.00  0.00    -0.369 C  
BRANCH  14  19
HETATM   19  C   UNL     1     -10.909  14.133  69.091  1.00  0.00    -0.229 C  
BRANCH  19  20
HETATM   20  C   UNL     1     -11.690  15.468  69.217  1.00  0.00    -0.365 C  
BRANCH  20  21
HETATM   21  N   UNL     1     -10.931  16.732  69.113  1.00  0.00    -0.274 N  
HETATM   22  C   UNL     1     -10.431  17.269  67.943  1.00  0.00    -0.382 C  
HETATM   23  O   UNL     1     -10.780  16.828  66.855  1.00  0.00    -0.257 OA 
HETATM   24  H   UNL     1     -10.764  17.250  69.976  1.00  0.00     0.000 HD 
BRANCH  22  25
HETATM   25  C   UNL     1      -9.385  18.360  67.987  1.00  0.00    -0.304 A  
HETATM   26  C   UNL     1      -8.048  18.202  68.398  1.00  0.00    -0.303 A  
HETATM   27  C   UNL     1      -9.745  19.575  67.352  1.00  0.00    -0.449 A  
HETATM   28  H   UNL     1      -6.807  22.100  66.657  1.00  0.00     0.000 HD 
HETATM   29  C   UNL     1      -8.806  20.585  67.104  1.00  0.00    -0.399 A  
HETATM   30  O   UNL     1      -6.547  21.300  67.098  1.00  0.00    -0.425 OA 
HETATM   31  H   UNL     1      -5.126  19.741  68.169  1.00  0.00     0.000 HD 
HETATM   32  C   UNL     1      -7.107  19.209  68.115  1.00  0.00    -0.258 A  
HETATM   33 CL   UNL     1      -7.431  16.753  69.125  1.00  0.00    -0.229 Cl 
HETATM   34  C   UNL     1      -7.487  20.383  67.468  1.00  0.00    -0.319 A  
HETATM   35  O   UNL     1      -5.761  19.061  68.360  1.00  0.00    -0.199 OA 
ENDBRANCH  22  25
ENDBRANCH  20  21
ENDBRANCH  19  20
ENDBRANCH  14  19
ENDBRANCH  13  14
ENDBRANCH   4  13
BRANCH   8  36
HETATM   36  N   UNL     1      -7.193   7.137  68.932  1.00  0.00    -0.088 N  
HETATM   37  H   UNL     1      -6.207   6.921  68.784  1.00  0.00     0.000 HD 
HETATM   38  C   UNL     1      -8.121   6.653  68.022  1.00  0.00    -0.110 C  
HETATM   39  O   UNL     1      -9.335   6.673  68.136  1.00  0.00    -0.118 OA 
BRANCH  38  40
HETATM   40  C   UNL     1      -7.549   6.056  66.762  1.00  0.00    -0.095 C  
BRANCH  40  41
HETATM   41  C   UNL     1      -7.412   4.629  66.567  1.00  0.00    -0.082 A  
HETATM   42  H2  UNL     1      -8.737   0.637  66.140  1.00  0.00     0.000 HD 
HETATM   43  C   UNL     1      -8.210   2.600  66.339  1.00  0.00    -0.087 A  
HETATM   44  C   UNL     1      -6.399   4.076  65.798  1.00  0.00    -0.032 A  
HETATM   45  H1  UNL     1      -9.714   1.539  67.289  1.00  0.00     0.000 HD 
HETATM   46  S   UNL     1      -6.925   2.558  65.211  1.00  0.00    -0.053 SA 
HETATM   47  N   UNL     1      -8.948   1.514  66.617  1.00  0.00    -0.112 NA 
HETATM   48  N   UNL     1      -8.401   3.740  66.945  1.00  0.00    -0.099 NA 
ENDBRANCH  40  41
BRANCH  40  49
HETATM   49  N   UNL     1      -7.213   6.716  65.698  1.00  0.00    -0.068 NA 
HETATM   50  H   UNL     1      -6.383   6.472  65.157  1.00  0.00     0.000 HD 
BRANCH  49  51
HETATM   51  O   UNL     1      -8.033   7.769  65.332  1.00  0.00    -0.109 OA 
HETATM   52  O   UNL     1      -9.091   9.357  62.365  1.00  0.00    -0.265 OA 
HETATM   53  C   UNL     1      -7.933   6.807  63.059  1.00  0.00    -0.077 C  
HETATM   54  O   UNL     1      -9.330   9.791  64.568  1.00  0.00    -0.261 OA 
HETATM   55  C   UNL     1      -6.357   8.644  63.814  1.00  0.00    -0.076 C  
HETATM   56  C   UNL     1      -8.784   9.114  63.525  1.00  0.00    -0.128 C  
HETATM   57  C   UNL     1      -7.764   8.057  63.940  1.00  0.00    -0.138 C  
ENDBRANCH  49  51
ENDBRANCH  40  49
ENDBRANCH  38  40
ENDBRANCH   8  36
TORSDOF 11
ENDMDL
MODEL       40
REMARK 921   NORMALIZED FREE ENERGY PREDICTED BY IDOCK:   -4.76 KCAL/MOL
REMARK 922        TOTAL FREE ENERGY PREDICTED BY IDOCK:  -11.25 KCAL/MOL
REMARK 923 INTER-LIGAND FREE ENERGY PREDICTED BY IDOCK:   -8.58 KCAL/MOL
REMARK 924 INTRA-LIGAND FREE ENERGY PREDICTED BY IDOCK:   -2.66 KCAL/MOL
REMARK 927      BINDING AFFINITY PREDICTED BY RF-SCORE:    0.00 PKD
ROOT
HETATM    1  C   UNL     1      -8.990   7.610  66.536  1.00  0.00    -0.158 C  
HETATM    2  S   UNL     1     -10.016   7.980  67.967  1.00  0.00    -0.187 SA 
HETATM    3  C   UNL     1     -10.183   9.721  67.582  1.00  0.00    -0.213 C  
HETATM    4  C   UNL     1      -8.934  10.485  67.213  1.00  0.00    -0.145 C  
HETATM    5  CA  UNL     1      -7.891   9.873  66.570  1.00  0.00    -0.110 C  
HETATM    6  O   UNL     1      -5.700   7.556  66.162  1.00  0.00    -0.034 OA 
HETATM    7  C   UNL     1      -6.704  10.702  65.877  1.00  0.00    -0.116 C  
HETATM    8  CA  UNL     1      -7.951   6.466  66.724  1.00  0.00    -0.109 C  
HETATM    9  N   UNL     1      -7.875   8.509  66.436  1.00  0.00    -0.097 N  
HETATM   10  C   UNL     1      -6.912   7.570  66.322  1.00  0.00    -0.066 C  
HETATM   11  O   UNL     1      -6.316  10.217  64.778  1.00  0.00    -0.120 OA 
HETATM   12  OXT UNL     1      -6.468  11.840  66.376  1.00  0.00    -0.003 OA 
ENDROOT
BRANCH   4  13
HETATM   13  C   UNL     1      -8.882  11.983  67.517  1.00  0.00    -0.172 C  
BRANCH  13  14
HETATM   14  N   UNL     1     -10.171  12.913  67.315  1.00  0.00    -0.233 N  
HETATM   15  C   UNL     1     -10.776  12.539  65.019  1.00  0.00    -0.326 C  
HETATM   16  C   UNL     1      -9.704  14.139  66.460  1.00  0.00    -0.295 C  
HETATM   17  C   UNL     1     -10.377  13.987  65.100  1.00  0.00    -0.422 C  
HETATM   18  C   UNL     1     -11.211  12.233  66.439  1.00  0.00    -0.324 C  
BRANCH  14  19
HETATM   19  C   UNL     1     -10.553  13.400  68.755  1.00  0.00    -0.210 C  
BRANCH  19  20
HETATM   20  C   UNL     1     -11.944  12.959  69.283  1.00  0.00    -0.260 C  
BRANCH  20  21
HETATM   21  N   UNL     1     -12.161  11.526  69.568  1.00  0.00    -0.304 N  
HETATM   22  C   UNL     1     -12.477  10.997  70.804  1.00  0.00    -0.396 C  
HETATM   23  O   UNL     1     -12.819  11.727  71.726  1.00  0.00    -0.369 OA 
HETATM   24  H   UNL     1     -12.069  10.874  68.788  1.00  0.00     0.000 HD 
BRANCH  22  25
HETATM   25  C   UNL     1     -12.331   9.514  71.062  1.00  0.00    -0.363 A  
HETATM   26  C   UNL     1     -11.118   8.830  71.263  1.00  0.00    -0.278 A  
HETATM   27  C   UNL     1     -13.537   8.822  71.337  1.00  0.00    -0.292 A  
HETATM   28  H   UNL     1     -13.153   5.216  72.867  1.00  0.00     0.000 HD 
HETATM   29  C   UNL     1     -13.540   7.508  71.824  1.00  0.00    -0.397 A  
HETATM   30  O   UNL     1     -12.333   5.656  72.676  1.00  0.00    -0.106 OA 
HETATM   31  H   UNL     1      -9.995   5.967  72.489  1.00  0.00     0.000 HD 
HETATM   32  C   UNL     1     -11.132   7.522  71.784  1.00  0.00    -0.241 A  
HETATM   33 CL   UNL     1      -9.557   9.553  71.042  1.00  0.00    -0.256 Cl 
HETATM   34  C   UNL     1     -12.334   6.877  72.066  1.00  0.00    -0.269 A  
HETATM   35  O   UNL     1      -9.985   6.849  72.137  1.00  0.00    -0.164 OA 
ENDBRANCH  22  25
ENDBRANCH  20  21
ENDBRANCH  19  20
ENDBRANCH  14  19
ENDBRANCH  13  14
ENDBRANCH   4  13
BRANCH   8  36
HETATM   36  N   UNL     1      -7.832   5.860  68.103  1.00  0.00    -0.103 N  
HETATM   37  H   UNL     1      -8.528   6.107  68.806  1.00  0.00     0.000 HD 
HETATM   38  C   UNL     1      -6.818   4.983  68.454  1.00  0.00    -0.056 C  
HETATM   39  O   UNL     1      -6.014   4.457  67.702  1.00  0.00    -0.022 OA 
BRANCH  38  40
HETATM   40  C   UNL     1      -6.704   4.671  69.923  1.00  0.00    -0.037 C  
BRANCH  40  41
HETATM   41  C   UNL     1      -6.217   5.631  70.891  1.00  0.00    -0.031 A  
HETATM   42  H2  UNL     1      -6.476   8.873  73.591  1.00  0.00     0.000 HD 
HETATM   43  C   UNL     1      -6.470   7.308  72.279  1.00  0.00    -0.051 A  
HETATM   44  C   UNL     1      -5.194   5.340  71.780  1.00  0.00    -0.005 A  
HETATM   45  H1  UNL     1      -7.512   9.097  72.189  1.00  0.00     0.000 HD 
HETATM   46  S   UNL     1      -5.366   6.341  73.156  1.00  0.00    -0.037 SA 
HETATM   47  N   UNL     1      -6.854   8.519  72.712  1.00  0.00    -0.220 NA 
HETATM   48  N   UNL     1      -6.882   6.817  71.143  1.00  0.00    -0.057 NA 
ENDBRANCH  40  41
BRANCH  40  49
HETATM   49  N   UNL     1      -7.104   3.579  70.497  1.00  0.00    -0.034 NA 
HETATM   50  H   UNL     1      -6.895   2.661  70.105  1.00  0.00     0.000 HD 
BRANCH  49  51
HETATM   51  O   UNL     1      -7.828   3.720  71.669  1.00  0.00    -0.059 OA 
HETATM   52  O   UNL     1     -10.816   2.473  73.067  1.00  0.00    -0.158 OA 
HETATM   53  C   UNL     1      -9.021   1.679  70.952  1.00  0.00    -0.123 C  
HETATM   54  O   UNL     1      -9.330   4.063  73.664  1.00  0.00    -0.103 OA 
HETATM   55  C   UNL     1      -9.899   4.003  70.440  1.00  0.00    -0.209 C  
HETATM   56  C   UNL     1      -9.850   3.168  72.784  1.00  0.00    -0.137 C  
HETATM   57  C   UNL     1      -9.131   3.135  71.438  1.00  0.00    -0.106 C  
ENDBRANCH  49  51
ENDBRANCH  40  49
ENDBRANCH  38  40
ENDBRANCH   8  36
TORSDOF 11
ENDMDL
MODEL       41
REMARK 921   NORMALIZED FREE ENERGY PREDICTED BY IDOCK:   -4.73 KCAL/MOL
REMARK 922        TOTAL FREE ENERGY PREDICTED BY IDOCK:  -11.20 KCAL/MOL
REMARK 923 INTER-LIGAND FREE ENERGY PREDICTED BY IDOCK:   -9.29 KCAL/MOL
REMARK 924 INTRA-LIGAND FREE ENERGY PREDICTED BY IDOCK:   -1.91 KCAL/MOL
REMARK 927      BINDING AFFINITY PREDICTED BY RF-SCORE:    0.00 PKD
ROOT
HETATM    1  C   UNL     1     -10.730  11.245  67.645  1.00  0.00    -0.226 C  
HETATM    2  S   UNL     1     -11.823  11.106  69.067  1.00  0.00    -0.322 SA 
HETATM    3  C   UNL     1     -11.775  12.852  69.462  1.00  0.00    -0.323 C  
HETATM    4  C   UNL     1     -10.428  13.533  69.490  1.00  0.00     0.352 C  
HETATM    5  CA  UNL     1      -9.407  13.121  68.675  1.00  0.00     0.012 C  
HETATM    6  O   UNL     1      -7.445  10.932  67.373  1.00  0.00    -0.094 OA 
HETATM    7  C   UNL     1      -8.088  14.004  68.436  1.00  0.00    -0.148 C  
HETATM    8  CA  UNL     1      -9.835  10.005  67.352  1.00  0.00    -0.185 C  
HETATM    9  N   UNL     1      -9.523  11.951  67.970  1.00  0.00    -0.191 N  
HETATM   10  C   UNL     1      -8.658  11.032  67.490  1.00  0.00    -0.128 C  
HETATM   11  O   UNL     1      -7.667  13.983  67.246  1.00  0.00    -0.175 OA 
HETATM   12  OXT UNL     1      -7.775  14.785  69.380  1.00  0.00    -0.158 OA 
ENDROOT
BRANCH   4  13
HETATM   13  C   UNL     1     -10.244  14.742  70.407  1.00  0.00     0.441 C  
BRANCH  13  14
HETATM   14  N   UNL     1     -11.296  15.950  70.404  1.00  0.00    -0.356 N  
HETATM   15  C   UNL     1     -12.670  15.498  72.325  1.00  0.00    -0.487 C  
HETATM   16  C   UNL     1     -12.660  15.351  69.924  1.00  0.00    -0.168 C  
HETATM   17  C   UNL     1     -13.585  15.375  71.136  1.00  0.00    -0.536 C  
HETATM   18  C   UNL     1     -11.588  16.431  71.817  1.00  0.00    -0.269 C  
BRANCH  14  19
HETATM   19  C   UNL     1     -10.762  16.955  69.327  1.00  0.00    -0.288 C  
BRANCH  19  20
HETATM   20  C   UNL     1     -11.318  16.780  67.889  1.00  0.00     0.058 C  
BRANCH  20  21
HETATM   21  N   UNL     1     -11.087  15.493  67.203  1.00  0.00    -0.296 N  
HETATM   22  C   UNL     1     -10.753  15.347  65.870  1.00  0.00    -0.336 C  
HETATM   23  O   UNL     1     -10.406  16.315  65.205  1.00  0.00    -0.587 OA 
HETATM   24  H   UNL     1     -11.182  14.642  67.758  1.00  0.00     0.000 HD 
BRANCH  22  25
HETATM   25  C   UNL     1     -10.884  14.003  65.190  1.00  0.00    -0.376 A  
HETATM   26  C   UNL     1     -12.092  13.385  64.814  1.00  0.00    -0.406 A  
HETATM   27  C   UNL     1      -9.674  13.444  64.708  1.00  0.00     0.151 A  
HETATM   28  H   UNL     1     -10.040  10.438  62.193  1.00  0.00     0.000 HD 
HETATM   29  C   UNL     1      -9.664  12.330  63.857  1.00  0.00    -0.090 A  
HETATM   30  O   UNL     1     -10.862  10.788  62.517  1.00  0.00     0.687 OA 
HETATM   31  H   UNL     1     -13.200  10.988  62.819  1.00  0.00     0.000 HD 
HETATM   32  C   UNL     1     -12.070  12.288  63.933  1.00  0.00    -0.506 A  
HETATM   33 CL   UNL     1     -13.657  13.984  65.260  1.00  0.00     0.523 Cl 
HETATM   34  C   UNL     1     -10.866  11.776  63.457  1.00  0.00    -0.426 A  
HETATM   35  O   UNL     1     -13.215  11.728  63.414  1.00  0.00    -0.569 OA 
ENDBRANCH  22  25
ENDBRANCH  20  21
ENDBRANCH  19  20
ENDBRANCH  14  19
ENDBRANCH  13  14
ENDBRANCH   4  13
BRANCH   8  36
HETATM   36  N   UNL     1      -9.891   8.865  68.342  1.00  0.00    -0.168 N  
HETATM   37  H   UNL     1      -9.598   9.038  69.303  1.00  0.00     0.000 HD 
HETATM   38  C   UNL     1     -10.322   7.593  67.998  1.00  0.00    -0.205 C  
HETATM   39  O   UNL     1     -10.859   7.260  66.955  1.00  0.00    -0.355 OA 
BRANCH  38  40
HETATM   40  C   UNL     1     -10.082   6.522  69.031  1.00  0.00    -0.165 C  
BRANCH  40  41
HETATM   41  C   UNL     1      -9.256   5.361  68.774  1.00  0.00    -0.124 A  
HETATM   42  H2  UNL     1      -5.818   3.270  67.479  1.00  0.00     0.000 HD 
HETATM   43  C   UNL     1      -7.418   4.381  68.092  1.00  0.00    -0.065 A  
HETATM   44  C   UNL     1      -9.304   4.222  69.564  1.00  0.00    -0.162 A  
HETATM   45  H1  UNL     1      -6.160   4.667  66.470  1.00  0.00     0.000 HD 
HETATM   46  S   UNL     1      -7.801   3.415  69.449  1.00  0.00    -0.050 SA 
HETATM   47  N   UNL     1      -6.389   4.091  67.280  1.00  0.00    -0.036 NA 
HETATM   48  N   UNL     1      -8.212   5.392  67.868  1.00  0.00    -0.100 NA 
ENDBRANCH  40  41
BRANCH  40  49
HETATM   49  N   UNL     1     -10.490   6.552  70.261  1.00  0.00    -0.207 NA 
HETATM   50  H   UNL     1      -9.875   6.300  71.035  1.00  0.00     0.000 HD 
BRANCH  49  51
HETATM   51  O   UNL     1     -11.801   6.943  70.474  1.00  0.00    -0.352 OA 
HETATM   52  O   UNL     1     -13.583   9.051  72.669  1.00  0.00    -0.465 OA 
HETATM   53  C   UNL     1     -10.836   8.767  71.830  1.00  0.00    -0.431 C  
HETATM   54  O   UNL     1     -14.169   7.555  71.083  1.00  0.00    -0.348 OA 
HETATM   55  C   UNL     1     -11.598   6.580  72.863  1.00  0.00    -0.022 C  
HETATM   56  C   UNL     1     -13.263   8.159  71.896  1.00  0.00    -0.325 C  
HETATM   57  C   UNL     1     -11.845   7.608  71.758  1.00  0.00    -0.290 C  
ENDBRANCH  49  51
ENDBRANCH  40  49
ENDBRANCH  38  40
ENDBRANCH   8  36
TORSDOF 11
ENDMDL
MODEL       42
REMARK 921   NORMALIZED FREE ENERGY PREDICTED BY IDOCK:   -4.69 KCAL/MOL
REMARK 922        TOTAL FREE ENERGY PREDICTED BY IDOCK:  -11.13 KCAL/MOL
REMARK 923 INTER-LIGAND FREE ENERGY PREDICTED BY IDOCK:   -7.73 KCAL/MOL
REMARK 924 INTRA-LIGAND FREE ENERGY PREDICTED BY IDOCK:   -3.40 KCAL/MOL
REMARK 927      BINDING AFFINITY PREDICTED BY RF-SCORE:    0.00 PKD
ROOT
HETATM    1  C   UNL     1     -10.046   8.567  70.873  1.00  0.00    -0.201 C  
HETATM    2  S   UNL     1     -10.909   7.385  69.828  1.00  0.00    -0.202 SA 
HETATM    3  C   UNL     1     -10.309   5.945  70.707  1.00  0.00    -0.232 C  
HETATM    4  C   UNL     1      -8.835   5.877  71.029  1.00  0.00    -0.141 C  
HETATM    5  CA  UNL     1      -8.106   7.012  71.263  1.00  0.00    -0.108 C  
HETATM    6  O   UNL     1      -7.064   9.976  70.581  1.00  0.00    -0.281 OA 
HETATM    7  C   UNL     1      -6.643   6.974  71.920  1.00  0.00    -0.052 C  
HETATM    8  CA  UNL     1      -9.593   9.885  70.178  1.00  0.00    -0.185 C  
HETATM    9  N   UNL     1      -8.654   8.242  71.005  1.00  0.00    -0.134 N  
HETATM   10  C   UNL     1      -8.166   9.455  70.666  1.00  0.00    -0.168 C  
HETATM   11  O   UNL     1      -6.426   7.905  72.744  1.00  0.00    -0.062 OA 
HETATM   12  OXT UNL     1      -5.983   5.912  71.723  1.00  0.00    -0.032 OA 
ENDROOT
BRANCH   4  13
HETATM   13  C   UNL     1      -8.181   4.500  71.152  1.00  0.00    -0.087 C  
BRANCH  13  14
HETATM   14  N   UNL     1      -8.667   3.449  72.258  1.00  0.00    -0.086 N  
HETATM   15  C   UNL     1      -7.584   4.209  74.265  1.00  0.00    -0.076 C  
HETATM   16  C   UNL     1      -7.442   2.521  72.558  1.00  0.00    -0.047 C  
HETATM   17  C   UNL     1      -6.994   2.856  73.976  1.00  0.00    -0.036 C  
HETATM   18  C   UNL     1      -8.939   4.133  73.589  1.00  0.00    -0.092 C  
BRANCH  14  19
HETATM   19  C   UNL     1      -9.794   2.612  71.561  1.00  0.00    -0.123 C  
BRANCH  19  20
HETATM   20  C   UNL     1      -9.325   1.566  70.515  1.00  0.00    -0.099 C  
BRANCH  20  21
HETATM   21  N   UNL     1      -9.412   1.921  69.084  1.00  0.00    -0.111 N  
HETATM   22  C   UNL     1      -8.351   2.319  68.294  1.00  0.00    -0.059 C  
HETATM   23  O   UNL     1      -7.199   2.192  68.687  1.00  0.00    -0.043 OA 
HETATM   24  H   UNL     1     -10.331   1.869  68.643  1.00  0.00     0.000 HD 
BRANCH  22  25
HETATM   25  C   UNL     1      -8.598   2.990  66.962  1.00  0.00    -0.120 A  
HETATM   26  C   UNL     1      -7.900   2.730  65.767  1.00  0.00    -0.081 A  
HETATM   27  C   UNL     1      -9.772   3.780  66.886  1.00  0.00    -0.147 A  
HETATM   28  H   UNL     1     -10.932   4.813  63.269  1.00  0.00     0.000 HD 
HETATM   29  C   UNL     1     -10.257   4.267  65.664  1.00  0.00    -0.217 A  
HETATM   30  O   UNL     1     -10.134   4.299  63.299  1.00  0.00    -0.102 OA 
HETATM   31  H   UNL     1      -8.211   3.174  62.501  1.00  0.00     0.000 HD 
HETATM   32  C   UNL     1      -8.414   3.196  64.542  1.00  0.00    -0.094 A  
HETATM   33 CL   UNL     1      -6.488   1.726  65.677  1.00  0.00    -0.023 Cl 
HETATM   34  C   UNL     1      -9.585   3.950  64.498  1.00  0.00    -0.173 A  
HETATM   35  O   UNL     1      -7.864   2.860  63.327  1.00  0.00    -0.066 OA 
ENDBRANCH  22  25
ENDBRANCH  20  21
ENDBRANCH  19  20
ENDBRANCH  14  19
ENDBRANCH  13  14
ENDBRANCH   4  13
BRANCH   8  36
HETATM   36  N   UNL     1      -9.822   9.993  68.689  1.00  0.00    -0.155 N  
HETATM   37  H   UNL     1     -10.196   9.185  68.192  1.00  0.00     0.000 HD 
HETATM   38  C   UNL     1      -9.546  11.145  67.968  1.00  0.00    -0.176 C  
HETATM   39  O   UNL     1      -9.260  12.240  68.422  1.00  0.00    -0.192 OA 
BRANCH  38  40
HETATM   40  C   UNL     1      -9.596  11.004  66.469  1.00  0.00    -0.195 C  
BRANCH  40  41
HETATM   41  C   UNL     1     -10.707  11.486  65.676  1.00  0.00    -0.267 A  
HETATM   42  H2  UNL     1     -13.859  14.097  64.616  1.00  0.00     0.000 HD 
HETATM   43  C   UNL     1     -12.302  12.915  65.209  1.00  0.00    -0.490 A  
HETATM   44  C   UNL     1     -10.783  11.295  64.305  1.00  0.00    -0.349 A  
HETATM   45  H1  UNL     1     -13.688  13.940  66.358  1.00  0.00     0.000 HD 
HETATM   46  S   UNL     1     -11.756  12.531  63.634  1.00  0.00    -0.542 SA 
HETATM   47  N   UNL     1     -13.363  13.710  65.420  1.00  0.00    -0.524 NA 
HETATM   48  N   UNL     1     -11.651  12.355  66.191  1.00  0.00    -0.380 NA 
ENDBRANCH  40  41
BRANCH  40  49
HETATM   49  N   UNL     1      -8.644  10.540  65.720  1.00  0.00    -0.167 NA 
HETATM   50  H   UNL     1      -8.615  10.723  64.717  1.00  0.00     0.000 HD 
BRANCH  49  51
HETATM   51  O   UNL     1      -7.670   9.784  66.349  1.00  0.00    -0.100 OA 
HETATM   52  O   UNL     1      -5.878   6.805  65.756  1.00  0.00    -0.032 OA 
HETATM   53  C   UNL     1      -7.389   8.675  64.160  1.00  0.00    -0.102 C  
HETATM   54  O   UNL     1      -6.058   8.226  67.502  1.00  0.00    -0.049 OA 
HETATM   55  C   UNL     1      -8.907   7.735  65.962  1.00  0.00    -0.189 C  
HETATM   56  C   UNL     1      -6.439   7.755  66.285  1.00  0.00    -0.046 C  
HETATM   57  C   UNL     1      -7.618   8.506  65.672  1.00  0.00    -0.090 C  
ENDBRANCH  49  51
ENDBRANCH  40  49
ENDBRANCH  38  40
ENDBRANCH   8  36
TORSDOF 11
ENDMDL
MODEL       43
REMARK 921   NORMALIZED FREE ENERGY PREDICTED BY IDOCK:   -4.57 KCAL/MOL
REMARK 922        TOTAL FREE ENERGY PREDICTED BY IDOCK:  -10.94 KCAL/MOL
REMARK 923 INTER-LIGAND FREE ENERGY PREDICTED BY IDOCK:   -9.35 KCAL/MOL
REMARK 924 INTRA-LIGAND FREE ENERGY PREDICTED BY IDOCK:   -1.59 KCAL/MOL
REMARK 927      BINDING AFFINITY PREDICTED BY RF-SCORE:    0.00 PKD
ROOT
HETATM    1  C   UNL     1      -6.252  10.470  68.228  1.00  0.00    -0.054 C  
HETATM    2  S   UNL     1      -7.377  10.353  69.627  1.00  0.00    -0.151 SA 
HETATM    3  C   UNL     1      -7.155   8.589  69.847  1.00  0.00    -0.051 C  
HETATM    4  C   UNL     1      -7.230   7.710  68.622  1.00  0.00    -0.082 C  
HETATM    5  CA  UNL     1      -6.835   8.169  67.393  1.00  0.00    -0.074 C  
HETATM    6  O   UNL     1      -6.792  10.277  64.967  1.00  0.00    -0.132 OA 
HETATM    7  C   UNL     1      -6.590   7.187  66.148  1.00  0.00    -0.052 C  
HETATM    8  CA  UNL     1      -6.590  11.564  67.174  1.00  0.00    -0.124 C  
HETATM    9  N   UNL     1      -6.562   9.500  67.215  1.00  0.00    -0.070 N  
HETATM   10  C   UNL     1      -6.613  10.357  66.173  1.00  0.00    -0.112 C  
HETATM   11  O   UNL     1      -5.594   7.499  65.438  1.00  0.00    -0.032 OA 
HETATM   12  OXT UNL     1      -7.257   6.112  66.159  1.00  0.00    -0.072 OA 
ENDROOT
BRANCH   4  13
HETATM   13  C   UNL     1      -7.699   6.265  68.792  1.00  0.00    -0.100 C  
BRANCH  13  14
HETATM   14  N   UNL     1      -9.075   5.924  69.540  1.00  0.00    -0.131 N  
HETATM   15  C   UNL     1      -8.363   4.740  71.507  1.00  0.00    -0.109 C  
HETATM   16  C   UNL     1      -9.326   4.393  69.331  1.00  0.00    -0.156 C  
HETATM   17  C   UNL     1      -9.148   3.743  70.699  1.00  0.00    -0.181 C  
HETATM   18  C   UNL     1      -8.934   6.067  71.047  1.00  0.00    -0.143 C  
BRANCH  14  19
HETATM   19  C   UNL     1     -10.170   6.740  68.772  1.00  0.00    -0.175 C  
BRANCH  19  20
HETATM   20  C   UNL     1     -10.448   8.176  69.291  1.00  0.00    -0.214 C  
BRANCH  20  21
HETATM   21  N   UNL     1     -10.873   9.200  68.316  1.00  0.00    -0.454 N  
HETATM   22  C   UNL     1     -10.592   9.180  66.963  1.00  0.00    -0.195 C  
HETATM   23  O   UNL     1     -10.142   8.172  66.435  1.00  0.00    -0.241 OA 
HETATM   24  H   UNL     1     -11.419   9.987  68.670  1.00  0.00     0.000 HD 
BRANCH  22  25
HETATM   25  C   UNL     1     -10.762  10.429  66.127  1.00  0.00    -0.076 A  
HETATM   26  C   UNL     1     -10.291  10.610  64.813  1.00  0.00    -0.283 A  
HETATM   27  C   UNL     1     -11.659  11.394  66.650  1.00  0.00     0.010 A  
HETATM   28  H   UNL     1     -12.816  14.211  64.156  1.00  0.00     0.000 HD 
HETATM   29  C   UNL     1     -12.098  12.484  65.887  1.00  0.00    -0.420 A  
HETATM   30  O   UNL     1     -12.203  13.584  63.791  1.00  0.00    -0.596 OA 
HETATM   31  H   UNL     1     -10.777  12.575  62.194  1.00  0.00     0.000 HD 
HETATM   32  C   UNL     1     -10.765  11.690  64.045  1.00  0.00    -0.384 A  
HETATM   33 CL   UNL     1      -9.247   9.487  64.003  1.00  0.00    -0.207 Cl 
HETATM   34  C   UNL     1     -11.664  12.609  64.580  1.00  0.00    -0.359 A  
HETATM   35  O   UNL     1     -10.457  11.847  62.713  1.00  0.00    -0.059 OA 
ENDBRANCH  22  25
ENDBRANCH  20  21
ENDBRANCH  19  20
ENDBRANCH  14  19
ENDBRANCH  13  14
ENDBRANCH   4  13
BRANCH   8  36
HETATM   36  N   UNL     1      -7.873  12.338  67.370  1.00  0.00    -0.162 N  
HETATM   37  H   UNL     1      -8.711  12.026  66.878  1.00  0.00     0.000 HD 
HETATM   38  C   UNL     1      -7.961  13.452  68.189  1.00  0.00    -0.150 C  
HETATM   39  O   UNL     1      -7.115  13.854  68.970  1.00  0.00    -0.110 OA 
BRANCH  38  40
HETATM   40  C   UNL     1      -9.239  14.244  68.079  1.00  0.00    -0.192 C  
BRANCH  40  41
HETATM   41  C   UNL     1     -10.486  13.800  68.664  1.00  0.00    -0.239 A  
HETATM   42  H2  UNL     1     -12.972  11.474  71.169  1.00  0.00     0.000 HD 
HETATM   43  C   UNL     1     -11.677  12.552  70.015  1.00  0.00    -0.221 A  
HETATM   44  C   UNL     1     -11.560  14.653  68.866  1.00  0.00    -0.310 A  
HETATM   45  H1  UNL     1     -11.619  10.548  70.537  1.00  0.00     0.000 HD 
HETATM   46  S   UNL     1     -12.511  14.039  70.148  1.00  0.00    -0.263 SA 
HETATM   47  N   UNL     1     -12.116  11.435  70.616  1.00  0.00    -0.377 NA 
HETATM   48  N   UNL     1     -10.613  12.559  69.259  1.00  0.00     0.046 NA 
ENDBRANCH  40  41
BRANCH  40  49
HETATM   49  N   UNL     1      -9.355  15.423  67.551  1.00  0.00    -0.202 NA 
HETATM   50  H   UNL     1      -9.884  15.575  66.693  1.00  0.00     0.000 HD 
BRANCH  49  51
HETATM   51  O   UNL     1      -8.724  16.465  68.209  1.00  0.00    -0.190 OA 
HETATM   52  O   UNL     1      -9.166  19.937  68.645  1.00  0.00    -0.264 OA 
HETATM   53  C   UNL     1     -10.822  17.715  67.839  1.00  0.00    -0.245 C  
HETATM   54  O   UNL     1      -7.542  18.465  69.187  1.00  0.00    -0.210 OA 
HETATM   55  C   UNL     1      -8.856  17.881  66.245  1.00  0.00    -0.189 C  
HETATM   56  C   UNL     1      -8.688  18.815  68.546  1.00  0.00    -0.346 C  
HETATM   57  C   UNL     1      -9.289  17.696  67.700  1.00  0.00    -0.246 C  
ENDBRANCH  49  51
ENDBRANCH  40  49
ENDBRANCH  38  40
ENDBRANCH   8  36
TORSDOF 11
ENDMDL
MODEL       44
REMARK 921   NORMALIZED FREE ENERGY PREDICTED BY IDOCK:   -4.51 KCAL/MOL
REMARK 922        TOTAL FREE ENERGY PREDICTED BY IDOCK:  -10.84 KCAL/MOL
REMARK 923 INTER-LIGAND FREE ENERGY PREDICTED BY IDOCK:   -8.03 KCAL/MOL
REMARK 924 INTRA-LIGAND FREE ENERGY PREDICTED BY IDOCK:   -2.81 KCAL/MOL
REMARK 927      BINDING AFFINITY PREDICTED BY RF-SCORE:    0.00 PKD
ROOT
HETATM    1  C   UNL     1     -11.550   6.759  70.161  1.00  0.00    -0.341 C  
HETATM    2  S   UNL     1     -10.710   6.117  68.705  1.00  0.00    -0.330 SA 
HETATM    3  C   UNL     1     -10.019   4.696  69.548  1.00  0.00    -0.196 C  
HETATM    4  C   UNL     1      -9.351   4.923  70.883  1.00  0.00    -0.210 C  
HETATM    5  CA  UNL     1      -9.769   5.918  71.727  1.00  0.00    -0.155 C  
HETATM    6  O   UNL     1     -10.586   8.939  72.458  1.00  0.00    -0.171 OA 
HETATM    7  C   UNL     1      -9.317   5.986  73.265  1.00  0.00    -0.135 C  
HETATM    8  CA  UNL     1     -11.694   8.307  70.235  1.00  0.00     0.105 C  
HETATM    9  N   UNL     1     -10.663   6.858  71.285  1.00  0.00    -0.221 N  
HETATM   10  C   UNL     1     -10.930   8.145  71.595  1.00  0.00    -0.250 C  
HETATM   11  O   UNL     1     -10.235   6.349  74.052  1.00  0.00    -0.272 OA 
HETATM   12  OXT UNL     1      -8.200   5.455  73.531  1.00  0.00    -0.113 OA 
ENDROOT
BRANCH   4  13
HETATM   13  C   UNL     1      -8.231   3.971  71.306  1.00  0.00    -0.072 C  
BRANCH  13  14
HETATM   14  N   UNL     1      -8.524   2.421  71.585  1.00  0.00    -0.062 N  
HETATM   15  C   UNL     1     -10.219   2.470  73.289  1.00  0.00    -0.203 C  
HETATM   16  C   UNL     1      -7.867   2.086  72.966  1.00  0.00    -0.045 C  
HETATM   17  C   UNL     1      -9.018   1.833  73.933  1.00  0.00    -0.058 C  
HETATM   18  C   UNL     1     -10.006   2.172  71.818  1.00  0.00    -0.139 C  
BRANCH  14  19
HETATM   19  C   UNL     1      -7.767   1.651  70.450  1.00  0.00    -0.035 C  
BRANCH  19  20
HETATM   20  C   UNL     1      -7.073   2.525  69.371  1.00  0.00    -0.044 C  
BRANCH  20  21
HETATM   21  N   UNL     1      -7.592   2.471  67.989  1.00  0.00    -0.055 N  
HETATM   22  C   UNL     1      -7.413   3.449  67.030  1.00  0.00    -0.075 C  
HETATM   23  O   UNL     1      -6.606   4.353  67.204  1.00  0.00    -0.044 OA 
HETATM   24  H   UNL     1      -8.127   1.644  67.721  1.00  0.00     0.000 HD 
BRANCH  22  25
HETATM   25  C   UNL     1      -8.266   3.463  65.782  1.00  0.00    -0.094 A  
HETATM   26  C   UNL     1      -7.980   2.787  64.581  1.00  0.00    -0.078 A  
HETATM   27  C   UNL     1      -9.557   4.030  65.933  1.00  0.00    -0.195 A  
HETATM   28  H   UNL     1     -12.114   3.312  63.028  1.00  0.00     0.000 HD 
HETATM   29  C   UNL     1     -10.540   3.903  64.943  1.00  0.00    -0.088 A  
HETATM   30  O   UNL     1     -11.250   2.938  62.900  1.00  0.00    -0.140 OA 
HETATM   31  H   UNL     1      -9.499   1.768  61.821  1.00  0.00     0.000 HD 
HETATM   32  C   UNL     1      -8.986   2.637  63.607  1.00  0.00    -0.093 A  
HETATM   33 CL   UNL     1      -6.478   1.979  64.267  1.00  0.00    -0.018 Cl 
HETATM   34  C   UNL     1     -10.252   3.186  63.796  1.00  0.00    -0.200 A  
HETATM   35  O   UNL     1      -8.820   1.870  62.478  1.00  0.00    -0.072 OA 
ENDBRANCH  22  25
ENDBRANCH  20  21
ENDBRANCH  19  20
ENDBRANCH  14  19
ENDBRANCH  13  14
ENDBRANCH   4  13
BRANCH   8  36
HETATM   36  N   UNL     1     -11.027   9.115  69.147  1.00  0.00    -0.424 N  
HETATM   37  H   UNL     1     -10.623   8.622  68.350  1.00  0.00     0.000 HD 
HETATM   38  C   UNL     1     -10.938  10.498  69.185  1.00  0.00    -0.240 C  
HETATM   39  O   UNL     1     -11.505  11.245  69.965  1.00  0.00    -0.293 OA 
BRANCH  38  40
HETATM   40  C   UNL     1     -10.032  11.122  68.156  1.00  0.00    -0.178 C  
BRANCH  40  41
HETATM   41  C   UNL     1     -10.534  11.889  67.036  1.00  0.00    -0.224 A  
HETATM   42  H2  UNL     1     -10.991  12.954  62.971  1.00  0.00     0.000 HD 
HETATM   43  C   UNL     1     -10.714  12.341  64.899  1.00  0.00    -0.297 A  
HETATM   44  C   UNL     1     -11.792  12.474  67.037  1.00  0.00    -0.323 A  
HETATM   45  H1  UNL     1      -9.363  12.398  63.329  1.00  0.00     0.000 HD 
HETATM   46  S   UNL     1     -12.314  12.646  65.418  1.00  0.00    -0.325 SA 
HETATM   47  N   UNL     1     -10.317  12.580  63.639  1.00  0.00    -0.407 NA 
HETATM   48  N   UNL     1      -9.891  11.904  65.812  1.00  0.00    -0.234 NA 
ENDBRANCH  40  41
BRANCH  40  49
HETATM   49  N   UNL     1      -8.736  11.133  68.196  1.00  0.00    -0.138 NA 
HETATM   50  H   UNL     1      -8.179  11.489  67.419  1.00  0.00     0.000 HD 
BRANCH  49  51
HETATM   51  O   UNL     1      -8.144  10.639  69.346  1.00  0.00    -0.151 OA 
HETATM   52  O   UNL     1      -5.139  11.074  71.141  1.00  0.00    -0.094 OA 
HETATM   53  C   UNL     1      -6.610  12.565  69.156  1.00  0.00    -0.100 C  
HETATM   54  O   UNL     1      -6.887   9.654  71.297  1.00  0.00    -0.311 OA 
HETATM   55  C   UNL     1      -6.037  10.287  68.198  1.00  0.00    -0.047 C  
HETATM   56  C   UNL     1      -6.168  10.616  70.662  1.00  0.00    -0.044 C  
HETATM   57  C   UNL     1      -6.755  11.042  69.319  1.00  0.00    -0.099 C  
ENDBRANCH  49  51
ENDBRANCH  40  49
ENDBRANCH  38  40
ENDBRANCH   8  36
TORSDOF 11
ENDMDL
MODEL       45
REMARK 921   NORMALIZED FREE ENERGY PREDICTED BY IDOCK:   -4.49 KCAL/MOL
REMARK 922        TOTAL FREE ENERGY PREDICTED BY IDOCK:  -10.81 KCAL/MOL
REMARK 923 INTER-LIGAND FREE ENERGY PREDICTED BY IDOCK:   -9.56 KCAL/MOL
REMARK 924 INTRA-LIGAND FREE ENERGY PREDICTED BY IDOCK:   -1.24 KCAL/MOL
REMARK 927      BINDING AFFINITY PREDICTED BY RF-SCORE:    0.00 PKD
ROOT
HETATM    1  C   UNL     1      -9.522   6.366  66.258  1.00  0.00    -0.095 C  
HETATM    2  S   UNL     1     -10.595   7.576  67.046  1.00  0.00    -0.268 SA 
HETATM    3  C   UNL     1      -9.718   8.996  66.396  1.00  0.00    -0.268 C  
HETATM    4  C   UNL     1      -8.212   9.004  66.499  1.00  0.00    -0.114 C  
HETATM    5  CA  UNL     1      -7.491   7.840  66.454  1.00  0.00    -0.084 C  
HETATM    6  O   UNL     1      -6.796   4.830  67.342  1.00  0.00    -0.054 OA 
HETATM    7  C   UNL     1      -5.902   7.822  66.232  1.00  0.00    -0.037 C  
HETATM    8  CA  UNL     1      -9.332   5.025  67.026  1.00  0.00    -0.128 C  
HETATM    9  N   UNL     1      -8.136   6.632  66.526  1.00  0.00    -0.109 N  
HETATM   10  C   UNL     1      -7.810   5.397  66.963  1.00  0.00    -0.101 C  
HETATM   11  O   UNL     1      -5.501   6.888  65.482  1.00  0.00    -0.025 OA 
HETATM   12  OXT UNL     1      -5.283   8.852  66.625  1.00  0.00    -0.037 OA 
ENDROOT
BRANCH   4  13
HETATM   13  C   UNL     1      -7.497  10.352  66.590  1.00  0.00    -0.114 C  
BRANCH  13  14
HETATM   14  N   UNL     1      -7.536  11.220  67.935  1.00  0.00    -0.097 N  
HETATM   15  C   UNL     1      -6.756   9.686  69.614  1.00  0.00    -0.054 C  
HETATM   16  C   UNL     1      -8.761  10.704  68.762  1.00  0.00    -0.157 C  
HETATM   17  C   UNL     1      -8.183   9.993  69.980  1.00  0.00    -0.139 C  
HETATM   18  C   UNL     1      -6.342  10.913  68.826  1.00  0.00    -0.048 C  
BRANCH  14  19
HETATM   19  C   UNL     1      -7.809  12.690  67.466  1.00  0.00    -0.175 C  
BRANCH  19  20
HETATM   20  C   UNL     1      -9.291  13.150  67.473  1.00  0.00    -0.207 C  
BRANCH  20  21
HETATM   21  N   UNL     1      -9.578  14.576  67.734  1.00  0.00    -0.212 N  
HETATM   22  C   UNL     1      -9.572  15.578  66.783  1.00  0.00    -0.235 C  
HETATM   23  O   UNL     1      -9.537  15.306  65.590  1.00  0.00    -0.336 OA 
HETATM   24  H   UNL     1      -9.799  14.842  68.694  1.00  0.00     0.000 HD 
BRANCH  22  25
HETATM   25  C   UNL     1      -9.528  17.030  67.202  1.00  0.00    -0.245 A  
HETATM   26  C   UNL     1      -8.364  17.786  67.433  1.00  0.00    -0.222 A  
HETATM   27  C   UNL     1     -10.765  17.720  67.138  1.00  0.00    -0.222 A  
HETATM   28  H   UNL     1     -10.571  21.645  67.350  1.00  0.00     0.000 HD 
HETATM   29  C   UNL     1     -10.841  19.113  67.265  1.00  0.00    -0.529 A  
HETATM   30  O   UNL     1      -9.733  21.202  67.412  1.00  0.00    -0.347 OA 
HETATM   31  H   UNL     1      -7.396  20.943  67.670  1.00  0.00     0.000 HD 
HETATM   32  C   UNL     1      -8.448  19.188  67.526  1.00  0.00    -0.288 A  
HETATM   33 CL   UNL     1      -6.768  17.107  67.470  1.00  0.00    -0.151 Cl 
HETATM   34  C   UNL     1      -9.676  19.839  67.434  1.00  0.00    -0.373 A  
HETATM   35  O   UNL     1      -7.338  19.997  67.608  1.00  0.00    -0.268 OA 
ENDBRANCH  22  25
ENDBRANCH  20  21
ENDBRANCH  19  20
ENDBRANCH  14  19
ENDBRANCH  13  14
ENDBRANCH   4  13
BRANCH   8  36
HETATM   36  N   UNL     1      -9.971   4.914  68.390  1.00  0.00    -0.142 N  
HETATM   37  H   UNL     1     -10.757   4.275  68.511  1.00  0.00     0.000 HD 
HETATM   38  C   UNL     1      -9.536   5.644  69.485  1.00  0.00    -0.136 C  
HETATM   39  O   UNL     1      -8.520   6.316  69.559  1.00  0.00    -0.125 OA 
BRANCH  38  40
HETATM   40  C   UNL     1     -10.431   5.602  70.696  1.00  0.00    -0.270 C  
BRANCH  40  41
HETATM   41  C   UNL     1     -10.055   4.932  71.923  1.00  0.00    -0.199 A  
HETATM   42  H2  UNL     1      -7.491   3.821  75.094  1.00  0.00     0.000 HD 
HETATM   43  C   UNL     1      -8.648   4.437  73.528  1.00  0.00    -0.096 A  
HETATM   44  C   UNL     1     -10.960   4.679  72.942  1.00  0.00    -0.210 A  
HETATM   45  H1  UNL     1      -6.629   3.971  73.570  1.00  0.00     0.000 HD 
HETATM   46  S   UNL     1     -10.103   4.565  74.417  1.00  0.00    -0.238 SA 
HETATM   47  N   UNL     1      -7.497   4.047  74.100  1.00  0.00    -0.066 NA 
HETATM   48  N   UNL     1      -8.733   4.699  72.253  1.00  0.00    -0.118 NA 
ENDBRANCH  40  41
BRANCH  40  49
HETATM   49  N   UNL     1     -11.566   6.218  70.820  1.00  0.00    -0.329 NA 
HETATM   50  H   UNL     1     -12.390   5.751  71.197  1.00  0.00     0.000 HD 
BRANCH  49  51
HETATM   51  O   UNL     1     -11.603   7.542  70.416  1.00  0.00    -0.246 OA 
HETATM   52  O   UNL     1     -12.498  10.671  71.775  1.00  0.00    -0.351 OA 
HETATM   53  C   UNL     1     -11.811   8.070  72.820  1.00  0.00    -0.303 C  
HETATM   54  O   UNL     1     -11.911   9.945  69.719  1.00  0.00    -0.051 OA 
HETATM   55  C   UNL     1     -13.837   7.829  71.313  1.00  0.00    -0.301 C  
HETATM   56  C   UNL     1     -12.271   9.740  71.014  1.00  0.00    -0.347 C  
HETATM   57  C   UNL     1     -12.374   8.267  71.402  1.00  0.00    -0.299 C  
ENDBRANCH  49  51
ENDBRANCH  40  49
ENDBRANCH  38  40
ENDBRANCH   8  36
TORSDOF 11
ENDMDL
MODEL       46
REMARK 921   NORMALIZED FREE ENERGY PREDICTED BY IDOCK:   -4.45 KCAL/MOL
REMARK 922        TOTAL FREE ENERGY PREDICTED BY IDOCK:  -10.74 KCAL/MOL
REMARK 923 INTER-LIGAND FREE ENERGY PREDICTED BY IDOCK:   -9.93 KCAL/MOL
REMARK 924 INTRA-LIGAND FREE ENERGY PREDICTED BY IDOCK:   -0.81 KCAL/MOL
REMARK 927      BINDING AFFINITY PREDICTED BY RF-SCORE:    0.00 PKD
ROOT
HETATM    1  C   UNL     1      -8.141   9.621  70.270  1.00  0.00    -0.183 C  
HETATM    2  S   UNL     1      -7.479   9.081  68.687  1.00  0.00    -0.084 SA 
HETATM    3  C   UNL     1      -8.365  10.307  67.730  1.00  0.00    -0.110 C  
HETATM    4  C   UNL     1      -9.836  10.497  68.014  1.00  0.00    -0.166 C  
HETATM    5  CA  UNL     1     -10.348  10.297  69.269  1.00  0.00    -0.231 C  
HETATM    6  O   UNL     1     -10.797   8.631  71.981  1.00  0.00    -0.314 OA 
HETATM    7  C   UNL     1     -11.815  10.796  69.687  1.00  0.00    -0.320 C  
HETATM    8  CA  UNL     1      -8.317   8.512  71.348  1.00  0.00    -0.161 C  
HETATM    9  N   UNL     1      -9.573   9.719  70.241  1.00  0.00    -0.247 N  
HETATM   10  C   UNL     1      -9.815   8.976  71.342  1.00  0.00    -0.311 C  
HETATM   11  O   UNL     1     -11.882  11.264  70.858  1.00  0.00    -0.280 OA 
HETATM   12  OXT UNL     1     -12.654  10.880  68.744  1.00  0.00    -0.317 OA 
ENDROOT
BRANCH   4  13
HETATM   13  C   UNL     1     -10.739  10.982  66.880  1.00  0.00    -0.274 C  
BRANCH  13  14
HETATM   14  N   UNL     1     -10.679  12.498  66.366  1.00  0.00    -0.245 N  
HETATM   15  C   UNL     1     -12.246  12.533  64.543  1.00  0.00    -0.528 C  
HETATM   16  C   UNL     1      -9.888  12.478  65.015  1.00  0.00    -0.090 C  
HETATM   17  C   UNL     1     -10.902  12.808  63.925  1.00  0.00    -0.447 C  
HETATM   18  C   UNL     1     -12.058  13.003  65.972  1.00  0.00    -0.432 C  
BRANCH  14  19
HETATM   19  C   UNL     1      -9.841  13.264  67.446  1.00  0.00    -0.227 C  
BRANCH  19  20
HETATM   20  C   UNL     1     -10.537  14.472  68.127  1.00  0.00    -0.238 C  
BRANCH  20  21
HETATM   21  N   UNL     1      -9.780  15.734  68.252  1.00  0.00    -0.200 N  
HETATM   22  C   UNL     1      -8.935  16.257  67.292  1.00  0.00    -0.195 C  
HETATM   23  O   UNL     1      -8.927  15.803  66.155  1.00  0.00    -0.320 OA 
HETATM   24  H   UNL     1      -9.889  16.263  69.118  1.00  0.00     0.000 HD 
BRANCH  22  25
HETATM   25  C   UNL     1      -7.952  17.348  67.649  1.00  0.00    -0.199 A  
HETATM   26  C   UNL     1      -8.018  18.688  67.223  1.00  0.00    -0.237 A  
HETATM   27  C   UNL     1      -7.025  17.022  68.671  1.00  0.00    -0.202 A  
HETATM   28  H   UNL     1      -5.055  20.042  70.250  1.00  0.00     0.000 HD 
HETATM   29  C   UNL     1      -6.215  17.995  69.271  1.00  0.00    -0.244 A  
HETATM   30  O   UNL     1      -5.659  20.280  69.556  1.00  0.00    -0.254 OA 
HETATM   31  H   UNL     1      -6.803  21.664  68.015  1.00  0.00     0.000 HD 
HETATM   32  C   UNL     1      -7.223  19.662  67.856  1.00  0.00    -0.273 A  
HETATM   33 CL   UNL     1      -9.143  19.265  66.035  1.00  0.00    -0.243 Cl 
HETATM   34  C   UNL     1      -6.339  19.314  68.873  1.00  0.00    -0.258 A  
HETATM   35  O   UNL     1      -7.339  21.007  67.588  1.00  0.00    -0.291 OA 
ENDBRANCH  22  25
ENDBRANCH  20  21
ENDBRANCH  19  20
ENDBRANCH  14  19
ENDBRANCH  13  14
ENDBRANCH   4  13
BRANCH   8  36
HETATM   36  N   UNL     1      -8.021   7.090  70.929  1.00  0.00    -0.097 N  
HETATM   37  H   UNL     1      -7.129   6.676  71.201  1.00  0.00     0.000 HD 
HETATM   38  C   UNL     1      -8.909   6.325  70.190  1.00  0.00    -0.149 C  
HETATM   39  O   UNL     1     -10.070   6.598  69.930  1.00  0.00    -0.173 OA 
BRANCH  38  40
HETATM   40  C   UNL     1      -8.362   5.029  69.650  1.00  0.00    -0.088 C  
BRANCH  40  41
HETATM   41  C   UNL     1      -8.318   4.729  68.235  1.00  0.00    -0.091 A  
HETATM   42  H2  UNL     1      -9.838   4.381  64.306  1.00  0.00     0.000 HD 
HETATM   43  C   UNL     1      -9.204   4.606  66.234  1.00  0.00    -0.135 A  
HETATM   44  C   UNL     1      -7.171   4.894  67.473  1.00  0.00    -0.070 A  
HETATM   45  H1  UNL     1     -11.041   3.970  65.518  1.00  0.00     0.000 HD 
HETATM   46  S   UNL     1      -7.629   5.147  65.845  1.00  0.00    -0.083 SA 
HETATM   47  N   UNL     1     -10.102   4.293  65.287  1.00  0.00    -0.220 NA 
HETATM   48  N   UNL     1      -9.465   4.474  67.505  1.00  0.00    -0.151 NA 
ENDBRANCH  40  41
BRANCH  40  49
HETATM   49  N   UNL     1      -7.794   4.097  70.351  1.00  0.00    -0.051 NA 
HETATM   50  H   UNL     1      -7.326   3.306  69.910  1.00  0.00     0.000 HD 
BRANCH  49  51
HETATM   51  O   UNL     1      -7.856   4.228  71.728  1.00  0.00    -0.076 OA 
HETATM   52  O   UNL     1      -9.061   2.385  74.483  1.00  0.00    -0.072 OA 
HETATM   53  C   UNL     1      -8.359   1.810  71.744  1.00  0.00    -0.051 C  
HETATM   54  O   UNL     1      -8.211   4.459  74.213  1.00  0.00    -0.091 OA 
HETATM   55  C   UNL     1     -10.188   3.566  71.760  1.00  0.00    -0.055 C  
HETATM   56  C   UNL     1      -8.701   3.285  73.736  1.00  0.00    -0.076 C  
HETATM   57  C   UNL     1      -8.770   3.216  72.213  1.00  0.00    -0.079 C  
ENDBRANCH  49  51
ENDBRANCH  40  49
ENDBRANCH  38  40
ENDBRANCH   8  36
TORSDOF 11
ENDMDL
MODEL       47
REMARK 921   NORMALIZED FREE ENERGY PREDICTED BY IDOCK:   -4.43 KCAL/MOL
REMARK 922        TOTAL FREE ENERGY PREDICTED BY IDOCK:  -10.71 KCAL/MOL
REMARK 923 INTER-LIGAND FREE ENERGY PREDICTED BY IDOCK:   -9.68 KCAL/MOL
REMARK 924 INTRA-LIGAND FREE ENERGY PREDICTED BY IDOCK:   -1.02 KCAL/MOL
REMARK 927      BINDING AFFINITY PREDICTED BY RF-SCORE:    0.00 PKD
ROOT
HETATM    1  C   UNL     1      -5.128  11.306  68.497  1.00  0.00    -0.039 C  
HETATM    2  S   UNL     1      -6.061  11.361  70.034  1.00  0.00    -0.149 SA 
HETATM    3  C   UNL     1      -6.049   9.586  70.277  1.00  0.00    -0.053 C  
HETATM    4  C   UNL     1      -6.404   8.710  69.100  1.00  0.00    -0.043 C  
HETATM    5  CA  UNL     1      -6.119   9.095  67.816  1.00  0.00    -0.050 C  
HETATM    6  O   UNL     1      -6.120  11.147  65.342  1.00  0.00     0.053 OA 
HETATM    7  C   UNL     1      -6.175   8.073  66.580  1.00  0.00    -0.050 C  
HETATM    8  CA  UNL     1      -5.455  12.423  67.463  1.00  0.00    -0.124 C  
HETATM    9  N   UNL     1      -5.696  10.375  67.563  1.00  0.00    -0.044 N  
HETATM   10  C   UNL     1      -5.772  11.217  66.511  1.00  0.00    -0.145 C  
HETATM   11  O   UNL     1      -5.250   8.238  65.737  1.00  0.00    -0.030 OA 
HETATM   12  OXT UNL     1      -6.972   7.100  66.711  1.00  0.00    -0.069 OA 
ENDROOT
BRANCH   4  13
HETATM   13  C   UNL     1      -7.034   7.344  69.374  1.00  0.00    -0.061 C  
BRANCH  13  14
HETATM   14  N   UNL     1      -8.512   7.222  69.980  1.00  0.00    -0.138 N  
HETATM   15  C   UNL     1      -8.126   6.830  72.320  1.00  0.00    -0.099 C  
HETATM   16  C   UNL     1      -8.742   5.704  70.286  1.00  0.00    -0.131 C  
HETATM   17  C   UNL     1      -8.785   5.579  71.805  1.00  0.00    -0.136 C  
HETATM   18  C   UNL     1      -8.606   7.886  71.344  1.00  0.00    -0.123 C  
BRANCH  14  19
HETATM   19  C   UNL     1      -9.467   7.669  68.821  1.00  0.00    -0.152 C  
BRANCH  19  20
HETATM   20  C   UNL     1      -9.934   9.148  68.846  1.00  0.00    -0.180 C  
BRANCH  20  21
HETATM   21  N   UNL     1     -10.660   9.671  67.671  1.00  0.00    -0.262 N  
HETATM   22  C   UNL     1     -10.074  10.259  66.566  1.00  0.00    -0.231 C  
HETATM   23  O   UNL     1      -8.865  10.188  66.390  1.00  0.00    -0.141 OA 
HETATM   24  H   UNL     1     -11.678   9.592  67.675  1.00  0.00     0.000 HD 
BRANCH  22  25
HETATM   25  C   UNL     1     -10.906  11.067  65.597  1.00  0.00    -0.160 A  
HETATM   26  C   UNL     1     -11.850  12.053  65.944  1.00  0.00    -0.158 A  
HETATM   27  C   UNL     1     -10.530  10.960  64.234  1.00  0.00    -0.405 A  
HETATM   28  H   UNL     1     -12.040  13.663  61.804  1.00  0.00     0.000 HD 
HETATM   29  C   UNL     1     -11.046  11.820  63.256  1.00  0.00    -0.370 A  
HETATM   30  O   UNL     1     -12.317  13.743  62.709  1.00  0.00    -0.334 OA 
HETATM   31  H   UNL     1     -13.475  14.597  64.587  1.00  0.00     0.000 HD 
HETATM   32  C   UNL     1     -12.336  12.932  64.959  1.00  0.00    -0.485 A  
HETATM   33 CL   UNL     1     -12.363  12.360  67.572  1.00  0.00     0.235 Cl 
HETATM   34  C   UNL     1     -11.929  12.816  63.632  1.00  0.00    -0.539 A  
HETATM   35  O   UNL     1     -13.147  14.004  65.252  1.00  0.00    -0.782 OA 
ENDBRANCH  22  25
ENDBRANCH  20  21
ENDBRANCH  19  20
ENDBRANCH  14  19
ENDBRANCH  13  14
ENDBRANCH   4  13
BRANCH   8  36
HETATM   36  N   UNL     1      -6.586  13.366  67.801  1.00  0.00    -0.152 N  
HETATM   37  H   UNL     1      -7.539  13.094  67.556  1.00  0.00     0.000 HD 
HETATM   38  C   UNL     1      -6.386  14.585  68.430  1.00  0.00    -0.101 C  
HETATM   39  O   UNL     1      -5.351  14.984  68.937  1.00  0.00    -0.093 OA 
BRANCH  38  40
HETATM   40  C   UNL     1      -7.579  15.504  68.469  1.00  0.00    -0.127 C  
BRANCH  40  41
HETATM   41  C   UNL     1      -8.828  15.135  69.101  1.00  0.00    -0.221 A  
HETATM   42  H2  UNL     1     -12.546  15.797  71.001  1.00  0.00     0.000 HD 
HETATM   43  C   UNL     1     -10.745  15.593  70.060  1.00  0.00    -0.335 A  
HETATM   44  C   UNL     1      -9.531  13.991  68.752  1.00  0.00    -0.075 A  
HETATM   45  H1  UNL     1     -11.342  16.988  71.471  1.00  0.00     0.000 HD 
HETATM   46  S   UNL     1     -11.183  14.232  69.122  1.00  0.00    -0.281 SA 
HETATM   47  N   UNL     1     -11.603  16.176  70.911  1.00  0.00    -0.405 NA 
HETATM   48  N   UNL     1      -9.513  16.004  69.930  1.00  0.00     0.049 NA 
ENDBRANCH  40  41
BRANCH  40  49
HETATM   49  N   UNL     1      -7.605  16.728  68.043  1.00  0.00    -0.165 NA 
HETATM   50  H   UNL     1      -6.924  17.419  68.358  1.00  0.00     0.000 HD 
BRANCH  49  51
HETATM   51  O   UNL     1      -8.604  17.053  67.141  1.00  0.00    -0.193 OA 
HETATM   52  O   UNL     1      -9.989  19.960  65.702  1.00  0.00    -0.354 OA 
HETATM   53  C   UNL     1      -7.527  19.274  67.041  1.00  0.00    -0.238 C  
HETATM   54  O   UNL     1     -10.530  17.768  65.681  1.00  0.00    -0.613 OA 
HETATM   55  C   UNL     1      -9.463  18.785  68.605  1.00  0.00    -0.412 C  
HETATM   56  C   UNL     1      -9.820  18.831  66.142  1.00  0.00    -0.299 C  
HETATM   57  C   UNL     1      -8.828  18.479  67.247  1.00  0.00    -0.270 C  
ENDBRANCH  49  51
ENDBRANCH  40  49
ENDBRANCH  38  40
ENDBRANCH   8  36
TORSDOF 11
ENDMDL
MODEL       48
REMARK 921   NORMALIZED FREE ENERGY PREDICTED BY IDOCK:   -4.31 KCAL/MOL
REMARK 922        TOTAL FREE ENERGY PREDICTED BY IDOCK:  -10.51 KCAL/MOL
REMARK 923 INTER-LIGAND FREE ENERGY PREDICTED BY IDOCK:   -7.44 KCAL/MOL
REMARK 924 INTRA-LIGAND FREE ENERGY PREDICTED BY IDOCK:   -3.07 KCAL/MOL
REMARK 927      BINDING AFFINITY PREDICTED BY RF-SCORE:    0.00 PKD
ROOT
HETATM    1  C   UNL     1      -5.614  11.584  68.052  1.00  0.00    -0.043 C  
HETATM    2  S   UNL     1      -6.835  11.855  66.759  1.00  0.00     0.080 SA 
HETATM    3  C   UNL     1      -6.873  13.633  66.962  1.00  0.00     0.703 C  
HETATM    4  C   UNL     1      -6.986  14.182  68.364  1.00  0.00    -0.099 C  
HETATM    5  CA  UNL     1      -6.451  13.514  69.433  1.00  0.00    -0.103 C  
HETATM    6  O   UNL     1      -5.957  10.929  71.280  1.00  0.00    -0.351 OA 
HETATM    7  C   UNL     1      -6.260  14.204  70.870  1.00  0.00    -0.071 C  
HETATM    8  CA  UNL     1      -5.728  10.236  68.823  1.00  0.00    -0.041 C  
HETATM    9  N   UNL     1      -5.986  12.234  69.277  1.00  0.00    -0.080 N  
HETATM   10  C   UNL     1      -5.850  11.160  70.084  1.00  0.00    -0.124 C  
HETATM   11  O   UNL     1      -5.185  13.887  71.451  1.00  0.00    -0.132 OA 
HETATM   12  OXT UNL     1      -7.067  15.140  71.138  1.00  0.00     0.900 OA 
ENDROOT
BRANCH   4  13
HETATM   13  C   UNL     1      -7.659  15.541  68.561  1.00  0.00    -0.127 C  
BRANCH  13  14
HETATM   14  N   UNL     1      -7.086  16.858  67.852  1.00  0.00    -0.149 N  
HETATM   15  C   UNL     1      -5.426  17.649  69.401  1.00  0.00    -0.200 C  
HETATM   16  C   UNL     1      -7.669  18.077  68.643  1.00  0.00    -0.296 C  
HETATM   17  C   UNL     1      -6.489  18.714  69.370  1.00  0.00    -0.269 C  
HETATM   18  C   UNL     1      -5.583  16.982  68.048  1.00  0.00    -0.120 C  
BRANCH  14  19
HETATM   19  C   UNL     1      -7.690  16.841  66.406  1.00  0.00    -0.310 C  
BRANCH  19  20
HETATM   20  C   UNL     1      -9.228  16.656  66.306  1.00  0.00    -0.294 C  
BRANCH  20  21
HETATM   21  N   UNL     1      -9.754  15.296  66.075  1.00  0.00    -0.311 N  
HETATM   22  C   UNL     1     -10.783  14.706  66.784  1.00  0.00    -0.301 C  
HETATM   23  O   UNL     1     -11.488  15.373  67.531  1.00  0.00    -0.318 OA 
HETATM   24  H   UNL     1      -9.324  14.746  65.330  1.00  0.00     0.000 HD 
BRANCH  22  25
HETATM   25  C   UNL     1     -11.006  13.212  66.711  1.00  0.00    -0.298 A  
HETATM   26  C   UNL     1     -10.751  12.396  65.593  1.00  0.00    -0.264 A  
HETATM   27  C   UNL     1     -11.284  12.577  67.947  1.00  0.00    -0.312 A  
HETATM   28  H   UNL     1     -10.998   8.651  67.977  1.00  0.00     0.000 HD 
HETATM   29  C   UNL     1     -11.280  11.182  68.077  1.00  0.00    -0.359 A  
HETATM   30  O   UNL     1     -10.824   9.056  67.136  1.00  0.00    -0.210 OA 
HETATM   31  H   UNL     1     -10.312   9.205  64.831  1.00  0.00     0.000 HD 
HETATM   32  C   UNL     1     -10.716  10.997  65.743  1.00  0.00    -0.148 A  
HETATM   33 CL   UNL     1     -10.326  13.013  64.029  1.00  0.00    -0.382 Cl 
HETATM   34  C   UNL     1     -10.972  10.403  66.977  1.00  0.00    -0.154 A  
HETATM   35  O   UNL     1     -10.336  10.148  64.729  1.00  0.00    -0.221 OA 
ENDBRANCH  22  25
ENDBRANCH  20  21
ENDBRANCH  19  20
ENDBRANCH  14  19
ENDBRANCH  13  14
ENDBRANCH   4  13
BRANCH   8  36
HETATM   36  N   UNL     1      -6.904   9.347  68.489  1.00  0.00    -0.061 N  
HETATM   37  H   UNL     1      -7.629   9.709  67.870  1.00  0.00     0.000 HD 
HETATM   38  C   UNL     1      -7.039   8.061  68.987  1.00  0.00    -0.066 C  
HETATM   39  O   UNL     1      -6.196   7.420  69.593  1.00  0.00    -0.030 OA 
BRANCH  38  40
HETATM   40  C   UNL     1      -8.378   7.409  68.758  1.00  0.00    -0.129 C  
BRANCH  40  41
HETATM   41  C   UNL     1      -8.644   6.550  67.624  1.00  0.00    -0.116 A  
HETATM   42  H2  UNL     1      -7.781   3.616  64.706  1.00  0.00     0.000 HD 
HETATM   43  C   UNL     1      -8.096   5.005  66.170  1.00  0.00    -0.108 A  
HETATM   44  C   UNL     1      -9.905   6.040  67.355  1.00  0.00    -0.131 A  
HETATM   45  H1  UNL     1      -6.383   4.616  65.071  1.00  0.00     0.000 HD 
HETATM   46  S   UNL     1      -9.729   4.591  66.464  1.00  0.00    -0.225 SA 
HETATM   47  N   UNL     1      -7.357   4.369  65.247  1.00  0.00    -0.071 NA 
HETATM   48  N   UNL     1      -7.626   6.004  66.864  1.00  0.00    -0.094 NA 
ENDBRANCH  40  41
BRANCH  40  49
HETATM   49  N   UNL     1      -9.390   7.456  69.567  1.00  0.00    -0.156 NA 
HETATM   50  H   UNL     1     -10.331   7.209  69.262  1.00  0.00     0.000 HD 
BRANCH  49  51
HETATM   51  O   UNL     1      -9.131   7.856  70.867  1.00  0.00    -0.148 OA 
HETATM   52  O   UNL     1     -10.239   7.069  74.121  1.00  0.00    -0.345 OA 
HETATM   53  C   UNL     1     -10.305   5.789  71.536  1.00  0.00    -0.274 C  
HETATM   54  O   UNL     1      -8.893   8.656  73.246  1.00  0.00    -0.323 OA 
HETATM   55  C   UNL     1     -11.498   8.021  71.365  1.00  0.00    -0.293 C  
HETATM   56  C   UNL     1      -9.791   7.642  73.137  1.00  0.00    -0.279 C  
HETATM   57  C   UNL     1     -10.183   7.314  71.699  1.00  0.00    -0.192 C  
ENDBRANCH  49  51
ENDBRANCH  40  49
ENDBRANCH  38  40
ENDBRANCH   8  36
TORSDOF 11
ENDMDL
MODEL       49
REMARK 921   NORMALIZED FREE ENERGY PREDICTED BY IDOCK:   -4.21 KCAL/MOL
REMARK 922        TOTAL FREE ENERGY PREDICTED BY IDOCK:  -10.35 KCAL/MOL
REMARK 923 INTER-LIGAND FREE ENERGY PREDICTED BY IDOCK:   -8.98 KCAL/MOL
REMARK 924 INTRA-LIGAND FREE ENERGY PREDICTED BY IDOCK:   -1.37 KCAL/MOL
REMARK 927      BINDING AFFINITY PREDICTED BY RF-SCORE:    0.00 PKD
ROOT
HETATM    1  C   UNL     1     -11.925  11.098  68.850  1.00  0.00    -0.298 C  
HETATM    2  S   UNL     1     -10.331  10.580  68.195  1.00  0.00    -0.185 SA 
HETATM    3  C   UNL     1     -10.481   8.888  68.762  1.00  0.00    -0.200 C  
HETATM    4  C   UNL     1     -10.929   8.657  70.185  1.00  0.00    -0.234 C  
HETATM    5  CA  UNL     1     -11.780   9.528  70.812  1.00  0.00    -0.298 C  
HETATM    6  O   UNL     1     -12.761  12.439  71.760  1.00  0.00    -0.251 OA 
HETATM    7  C   UNL     1     -12.530   9.160  72.182  1.00  0.00    -0.366 C  
HETATM    8  CA  UNL     1     -12.021  12.582  69.310  1.00  0.00    -0.250 C  
HETATM    9  N   UNL     1     -12.074  10.735  70.232  1.00  0.00    -0.319 N  
HETATM   10  C   UNL     1     -12.433  11.954  70.687  1.00  0.00    -0.257 C  
HETATM   11  O   UNL     1     -13.722   9.572  72.239  1.00  0.00    -0.440 OA 
HETATM   12  OXT UNL     1     -11.939   8.321  72.921  1.00  0.00    -0.316 OA 
ENDROOT
BRANCH   4  13
HETATM   13  C   UNL     1     -10.461   7.387  70.897  1.00  0.00    -0.217 C  
BRANCH  13  14
HETATM   14  N   UNL     1      -9.029   7.318  71.609  1.00  0.00    -0.125 N  
HETATM   15  C   UNL     1      -7.870   9.228  70.721  1.00  0.00    -0.174 C  
HETATM   16  C   UNL     1      -8.013   6.836  70.520  1.00  0.00    -0.114 C  
HETATM   17  C   UNL     1      -7.110   8.028  70.223  1.00  0.00    -0.048 C  
HETATM   18  C   UNL     1      -8.530   8.705  71.982  1.00  0.00    -0.122 C  
BRANCH  14  19
HETATM   19  C   UNL     1      -9.172   6.213  72.711  1.00  0.00    -0.138 C  
BRANCH  19  20
HETATM   20  C   UNL     1      -9.751   4.850  72.245  1.00  0.00    -0.160 C  
BRANCH  20  21
HETATM   21  N   UNL     1      -9.178   4.225  71.035  1.00  0.00    -0.130 N  
HETATM   22  C   UNL     1      -8.203   3.247  71.026  1.00  0.00    -0.062 C  
HETATM   23  O   UNL     1      -7.894   2.665  72.058  1.00  0.00    -0.051 OA 
HETATM   24  H   UNL     1      -9.533   4.542  70.132  1.00  0.00     0.000 HD 
BRANCH  22  25
HETATM   25  C   UNL     1      -7.444   2.934  69.757  1.00  0.00    -0.044 A  
HETATM   26  C   UNL     1      -7.980   2.321  68.608  1.00  0.00    -0.052 A  
HETATM   27  C   UNL     1      -6.153   3.510  69.661  1.00  0.00    -0.024 A  
HETATM   28  H   UNL     1      -4.507   3.481  66.085  1.00  0.00     0.000 HD 
HETATM   29  C   UNL     1      -5.431   3.508  68.460  1.00  0.00    -0.013 A  
HETATM   30  O   UNL     1      -5.365   3.075  66.131  1.00  0.00    -0.011 OA 
HETATM   31  H   UNL     1      -7.296   1.924  65.393  1.00  0.00     0.000 HD 
HETATM   32  C   UNL     1      -7.260   2.354  67.399  1.00  0.00    -0.052 A  
HETATM   33 CL   UNL     1      -9.570   1.633  68.539  1.00  0.00    -0.230 Cl 
HETATM   34  C   UNL     1      -6.002   2.949  67.331  1.00  0.00    -0.023 A  
HETATM   35  O   UNL     1      -7.782   1.902  66.209  1.00  0.00    -0.068 OA 
ENDBRANCH  22  25
ENDBRANCH  20  21
ENDBRANCH  19  20
ENDBRANCH  14  19
ENDBRANCH  13  14
ENDBRANCH   4  13
BRANCH   8  36
HETATM   36  N   UNL     1     -10.754  13.402  69.264  1.00  0.00    -0.444 N  
HETATM   37  H   UNL     1     -10.099  13.334  70.043  1.00  0.00     0.000 HD 
HETATM   38  C   UNL     1     -10.442  14.244  68.208  1.00  0.00    -0.247 C  
HETATM   39  O   UNL     1     -11.019  14.317  67.135  1.00  0.00    -0.291 OA 
BRANCH  38  40
HETATM   40  C   UNL     1      -9.273  15.168  68.433  1.00  0.00    -0.189 C  
BRANCH  40  41
HETATM   41  C   UNL     1      -7.931  14.684  68.676  1.00  0.00    -0.141 A  
HETATM   42  H2  UNL     1      -4.928  12.401  70.584  1.00  0.00     0.000 HD 
HETATM   43  C   UNL     1      -6.460  13.441  69.722  1.00  0.00    -0.033 A  
HETATM   44  C   UNL     1      -6.991  14.551  67.664  1.00  0.00    -0.184 A  
HETATM   45  H1  UNL     1      -6.163  12.943  71.711  1.00  0.00     0.000 HD 
HETATM   46  S   UNL     1      -5.862  13.352  68.123  1.00  0.00    -0.120 SA 
HETATM   47  N   UNL     1      -5.807  12.889  70.757  1.00  0.00    -0.232 NA 
HETATM   48  N   UNL     1      -7.565  14.115  69.882  1.00  0.00     0.404 NA 
ENDBRANCH  40  41
BRANCH  40  49
HETATM   49  N   UNL     1      -9.303  16.462  68.343  1.00  0.00    -0.211 NA 
HETATM   50  H   UNL     1     -10.108  16.953  67.956  1.00  0.00     0.000 HD 
BRANCH  49  51
HETATM   51  O   UNL     1      -8.188  17.143  68.799  1.00  0.00    -0.259 OA 
HETATM   52  O   UNL     1      -6.786  20.366  68.504  1.00  0.00    -0.291 OA 
HETATM   53  C   UNL     1      -9.388  19.186  68.104  1.00  0.00    -0.388 C  
HETATM   54  O   UNL     1      -6.092  18.411  69.396  1.00  0.00    -0.240 OA 
HETATM   55  C   UNL     1      -7.726  18.018  66.585  1.00  0.00    -0.268 C  
HETATM   56  C   UNL     1      -6.947  19.163  68.654  1.00  0.00    -0.301 C  
HETATM   57  C   UNL     1      -8.090  18.365  68.030  1.00  0.00    -0.274 C  
ENDBRANCH  49  51
ENDBRANCH  40  49
ENDBRANCH  38  40
ENDBRANCH   8  36
TORSDOF 11
ENDMDL
MODEL       50
REMARK 921   NORMALIZED FREE ENERGY PREDICTED BY IDOCK:   -4.13 KCAL/MOL
REMARK 922        TOTAL FREE ENERGY PREDICTED BY IDOCK:  -10.21 KCAL/MOL
REMARK 923 INTER-LIGAND FREE ENERGY PREDICTED BY IDOCK:   -9.16 KCAL/MOL
REMARK 924 INTRA-LIGAND FREE ENERGY PREDICTED BY IDOCK:   -1.05 KCAL/MOL
REMARK 927      BINDING AFFINITY PREDICTED BY RF-SCORE:    0.00 PKD
ROOT
HETATM    1  C   UNL     1     -11.894  10.796  68.231  1.00  0.00    -0.001 C  
HETATM    2  S   UNL     1     -11.944  10.474  70.000  1.00  0.00    -0.275 SA 
HETATM    3  C   UNL     1     -12.052  12.201  70.461  1.00  0.00    -0.293 C  
HETATM    4  C   UNL     1     -11.099  13.169  69.801  1.00  0.00     0.098 C  
HETATM    5  CA  UNL     1     -10.650  12.964  68.523  1.00  0.00    -0.253 C  
HETATM    6  O   UNL     1      -9.347  11.220  66.158  1.00  0.00    -0.198 OA 
HETATM    7  C   UNL     1      -9.913  14.111  67.677  1.00  0.00    -0.233 C  
HETATM    8  CA  UNL     1     -11.080   9.779  67.378  1.00  0.00     0.022 C  
HETATM    9  N   UNL     1     -10.893  11.769  67.897  1.00  0.00    -0.201 N  
HETATM   10  C   UNL     1     -10.275  11.050  66.935  1.00  0.00    -0.222 C  
HETATM   11  O   UNL     1     -10.237  14.135  66.457  1.00  0.00    -0.267 OA 
HETATM   12  OXT UNL     1      -9.297  14.981  68.357  1.00  0.00    -0.182 OA 
ENDROOT
BRANCH   4  13
HETATM   13  C   UNL     1     -10.693  14.426  70.570  1.00  0.00     0.540 C  
BRANCH  13  14
HETATM   14  N   UNL     1     -11.794  15.445  71.132  1.00  0.00    -0.333 N  
HETATM   15  C   UNL     1     -13.155  14.066  72.555  1.00  0.00    -0.547 C  
HETATM   16  C   UNL     1     -13.130  15.110  70.388  1.00  0.00    -0.194 C  
HETATM   17  C   UNL     1     -14.059  14.508  71.436  1.00  0.00    -0.428 C  
HETATM   18  C   UNL     1     -12.110  15.165  72.593  1.00  0.00    -0.385 C  
BRANCH  14  19
HETATM   19  C   UNL     1     -11.298  16.865  70.694  1.00  0.00     0.575 C  
BRANCH  19  20
HETATM   20  C   UNL     1     -10.998  17.054  69.183  1.00  0.00    -0.054 C  
BRANCH  20  21
HETATM   21  N   UNL     1      -9.776  17.790  68.801  1.00  0.00    -0.325 N  
HETATM   22  C   UNL     1      -9.688  18.715  67.779  1.00  0.00    -0.314 C  
HETATM   23  O   UNL     1     -10.700  19.155  67.247  1.00  0.00    -0.460 OA 
HETATM   24  H   UNL     1      -8.927  17.600  69.335  1.00  0.00     0.000 HD 
BRANCH  22  25
HETATM   25  C   UNL     1      -8.339  19.142  67.246  1.00  0.00    -0.301 A  
HETATM   26  C   UNL     1      -7.510  18.381  66.401  1.00  0.00    -0.247 A  
HETATM   27  C   UNL     1      -8.008  20.505  67.449  1.00  0.00    -0.349 A  
HETATM   28  H   UNL     1      -4.973  21.879  65.352  1.00  0.00     0.000 HD 
HETATM   29  C   UNL     1      -6.911  21.101  66.812  1.00  0.00    -0.274 A  
HETATM   30  O   UNL     1      -5.169  20.959  65.213  1.00  0.00    -0.185 OA 
HETATM   31  H   UNL     1      -4.940  18.768  64.350  1.00  0.00     0.000 HD 
HETATM   32  C   UNL     1      -6.431  18.998  65.741  1.00  0.00    -0.245 A  
HETATM   33 CL   UNL     1      -7.815  16.723  65.993  1.00  0.00    -0.233 Cl 
HETATM   34  C   UNL     1      -6.144  20.346  65.943  1.00  0.00    -0.203 A  
HETATM   35  O   UNL     1      -5.668  18.352  64.796  1.00  0.00    -0.179 OA 
ENDBRANCH  22  25
ENDBRANCH  20  21
ENDBRANCH  19  20
ENDBRANCH  14  19
ENDBRANCH  13  14
ENDBRANCH   4  13
BRANCH   8  36
HETATM   36  N   UNL     1     -10.331   8.698  68.122  1.00  0.00    -0.227 N  
HETATM   37  H   UNL     1      -9.812   8.953  68.963  1.00  0.00     0.000 HD 
HETATM   38  C   UNL     1     -10.318   7.374  67.712  1.00  0.00    -0.213 C  
HETATM   39  O   UNL     1     -11.009   6.872  66.842  1.00  0.00    -0.377 OA 
BRANCH  38  40
HETATM   40  C   UNL     1      -9.330   6.482  68.418  1.00  0.00    -0.122 C  
BRANCH  40  41
HETATM   41  C   UNL     1      -8.509   5.518  67.716  1.00  0.00    -0.098 A  
HETATM   42  H2  UNL     1      -5.149   4.148  65.547  1.00  0.00     0.000 HD 
HETATM   43  C   UNL     1      -6.714   4.911  66.614  1.00  0.00    -0.051 A  
HETATM   44  C   UNL     1      -8.481   4.174  68.058  1.00  0.00    -0.094 A  
HETATM   45  H1  UNL     1      -5.587   5.795  65.117  1.00  0.00     0.000 HD 
HETATM   46  S   UNL     1      -6.980   3.518  67.569  1.00  0.00    -0.055 SA 
HETATM   47  N   UNL     1      -5.746   4.964  65.686  1.00  0.00    -0.017 NA 
HETATM   48  N   UNL     1      -7.537   5.904  66.812  1.00  0.00    -0.097 NA 
ENDBRANCH  40  41
BRANCH  40  49
HETATM   49  N   UNL     1      -9.032   6.531  69.679  1.00  0.00    -0.141 NA 
HETATM   50  H   UNL     1      -8.078   6.391  70.010  1.00  0.00     0.000 HD 
BRANCH  49  51
HETATM   51  O   UNL     1     -10.074   6.784  70.555  1.00  0.00    -0.183 OA 
HETATM   52  O   UNL     1     -10.572   6.999  74.040  1.00  0.00    -0.341 OA 
HETATM   53  C   UNL     1      -8.311   7.128  72.251  1.00  0.00    -0.117 C  
HETATM   54  O   UNL     1     -11.934   7.019  72.240  1.00  0.00    -0.276 OA 
HETATM   55  C   UNL     1      -9.464   4.890  71.941  1.00  0.00    -0.194 C  
HETATM   56  C   UNL     1     -10.727   6.839  72.837  1.00  0.00    -0.261 C  
HETATM   57  C   UNL     1      -9.620   6.410  71.877  1.00  0.00    -0.151 C  
ENDBRANCH  49  51
ENDBRANCH  40  49
ENDBRANCH  38  40
ENDBRANCH   8  36
TORSDOF 11
ENDMDL
MODEL       51
REMARK 921   NORMALIZED FREE ENERGY PREDICTED BY IDOCK:   -4.08 KCAL/MOL
REMARK 922        TOTAL FREE ENERGY PREDICTED BY IDOCK:  -10.14 KCAL/MOL
REMARK 923 INTER-LIGAND FREE ENERGY PREDICTED BY IDOCK:   -8.86 KCAL/MOL
REMARK 924 INTRA-LIGAND FREE ENERGY PREDICTED BY IDOCK:   -1.28 KCAL/MOL
REMARK 927      BINDING AFFINITY PREDICTED BY RF-SCORE:    0.00 PKD
ROOT
HETATM    1  C   UNL     1      -9.109  12.633  67.567  1.00  0.00    -0.192 C  
HETATM    2  S   UNL     1      -7.822  11.502  68.114  1.00  0.00    -0.136 SA 
HETATM    3  C   UNL     1      -7.169  11.215  66.472  1.00  0.00    -0.124 C  
HETATM    4  C   UNL     1      -8.149  10.913  65.364  1.00  0.00     0.015 C  
HETATM    5  CA  UNL     1      -9.414  11.438  65.373  1.00  0.00    -0.216 C  
HETATM    6  O   UNL     1     -12.263  12.106  66.706  1.00  0.00    -0.553 OA 
HETATM    7  C   UNL     1     -10.363  11.414  64.079  1.00  0.00    -0.362 C  
HETATM    8  CA  UNL     1     -10.419  12.631  68.407  1.00  0.00    -0.238 C  
HETATM    9  N   UNL     1      -9.882  12.077  66.492  1.00  0.00    -0.204 N  
HETATM   10  C   UNL     1     -11.100  12.283  67.038  1.00  0.00    -0.287 C  
HETATM   11  O   UNL     1     -11.041  12.468  63.922  1.00  0.00    -0.359 OA 
HETATM   12  OXT UNL     1     -10.151  10.472  63.262  1.00  0.00    -0.256 OA 
ENDROOT
BRANCH   4  13
HETATM   13  C   UNL     1      -7.678  10.054  64.191  1.00  0.00    -0.144 C  
BRANCH  13  14
HETATM   14  N   UNL     1      -7.322   8.505  64.389  1.00  0.00    -0.094 N  
HETATM   15  C   UNL     1      -5.309   8.225  63.104  1.00  0.00    -0.063 C  
HETATM   16  C   UNL     1      -7.674   7.792  63.041  1.00  0.00    -0.132 C  
HETATM   17  C   UNL     1      -6.345   7.373  62.422  1.00  0.00    -0.062 C  
HETATM   18  C   UNL     1      -5.822   8.297  64.529  1.00  0.00    -0.056 C  
BRANCH  14  19
HETATM   19  C   UNL     1      -8.293   8.003  65.512  1.00  0.00    -0.147 C  
BRANCH  19  20
HETATM   20  C   UNL     1      -8.584   6.479  65.537  1.00  0.00    -0.102 C  
BRANCH  20  21
HETATM   21  N   UNL     1      -8.130   5.701  66.708  1.00  0.00    -0.102 N  
HETATM   22  C   UNL     1      -8.512   4.407  67.004  1.00  0.00    -0.104 C  
HETATM   23  O   UNL     1      -9.102   3.726  66.175  1.00  0.00    -0.134 OA 
HETATM   24  H   UNL     1      -7.480   6.156  67.350  1.00  0.00     0.000 HD 
BRANCH  22  25
HETATM   25  C   UNL     1      -8.276   3.835  68.384  1.00  0.00    -0.087 A  
HETATM   26  C   UNL     1      -7.096   3.968  69.140  1.00  0.00    -0.047 A  
HETATM   27  C   UNL     1      -9.426   3.318  69.033  1.00  0.00    -0.187 A  
HETATM   28  H   UNL     1      -9.075   2.643  72.894  1.00  0.00     0.000 HD 
HETATM   29  C   UNL     1      -9.415   2.976  70.391  1.00  0.00    -0.218 A  
HETATM   30  O   UNL     1      -8.289   2.974  72.476  1.00  0.00    -0.069 OA 
HETATM   31  H   UNL     1      -6.040   3.678  72.264  1.00  0.00     0.000 HD 
HETATM   32  C   UNL     1      -7.106   3.652  70.511  1.00  0.00    -0.034 A  
HETATM   33 CL   UNL     1      -5.627   4.647  68.516  1.00  0.00    -0.015 Cl 
HETATM   34  C   UNL     1      -8.259   3.168  71.125  1.00  0.00    -0.062 A  
HETATM   35  O   UNL     1      -6.033   3.891  71.338  1.00  0.00    -0.013 OA 
ENDBRANCH  22  25
ENDBRANCH  20  21
ENDBRANCH  19  20
ENDBRANCH  14  19
ENDBRANCH  13  14
ENDBRANCH   4  13
BRANCH   8  36
HETATM   36  N   UNL     1     -10.523  11.614  69.520  1.00  0.00    -0.429 N  
HETATM   37  H   UNL     1     -10.545  11.946  70.485  1.00  0.00     0.000 HD 
HETATM   38  C   UNL     1     -10.589  10.249  69.287  1.00  0.00    -0.230 C  
HETATM   39  O   UNL     1     -10.744   9.698  68.209  1.00  0.00    -0.231 OA 
BRANCH  38  40
HETATM   40  C   UNL     1     -10.440   9.371  70.502  1.00  0.00    -0.274 C  
BRANCH  40  41
HETATM   41  C   UNL     1      -9.151   8.942  71.002  1.00  0.00    -0.243 A  
HETATM   42  H2  UNL     1      -6.365   7.638  73.901  1.00  0.00     0.000 HD 
HETATM   43  C   UNL     1      -7.797   8.252  72.581  1.00  0.00    -0.130 A  
HETATM   44  C   UNL     1      -8.252   8.225  70.227  1.00  0.00    -0.121 A  
HETATM   45  H1  UNL     1      -7.513   8.793  74.561  1.00  0.00     0.000 HD 
HETATM   46  S   UNL     1      -7.245   7.312  71.264  1.00  0.00    -0.073 SA 
HETATM   47  N   UNL     1      -7.184   8.232  73.775  1.00  0.00    -0.184 NA 
HETATM   48  N   UNL     1      -8.822   9.023  72.342  1.00  0.00    -0.234 NA 
ENDBRANCH  40  41
BRANCH  40  49
HETATM   49  N   UNL     1     -11.404   8.985  71.279  1.00  0.00    -0.292 NA 
HETATM   50  H   UNL     1     -12.329   9.410  71.235  1.00  0.00     0.000 HD 
BRANCH  49  51
HETATM   51  O   UNL     1     -11.114   7.967  72.172  1.00  0.00    -0.255 OA 
HETATM   52  O   UNL     1     -11.518   4.469  72.376  1.00  0.00     0.199 OA 
HETATM   53  C   UNL     1     -11.524   6.443  70.271  1.00  0.00    -0.468 C  
HETATM   54  O   UNL     1     -10.827   6.071  73.809  1.00  0.00    -0.232 OA 
HETATM   55  C   UNL     1     -13.340   7.033  71.941  1.00  0.00    -0.242 C  
HETATM   56  C   UNL     1     -11.389   5.656  72.643  1.00  0.00    -0.305 C  
HETATM   57  C   UNL     1     -11.843   6.796  71.735  1.00  0.00    -0.330 C  
ENDBRANCH  49  51
ENDBRANCH  40  49
ENDBRANCH  38  40
ENDBRANCH   8  36
TORSDOF 11
ENDMDL
MODEL       52
REMARK 921   NORMALIZED FREE ENERGY PREDICTED BY IDOCK:   -3.72 KCAL/MOL
REMARK 922        TOTAL FREE ENERGY PREDICTED BY IDOCK:   -9.54 KCAL/MOL
REMARK 923 INTER-LIGAND FREE ENERGY PREDICTED BY IDOCK:   -8.31 KCAL/MOL
REMARK 924 INTRA-LIGAND FREE ENERGY PREDICTED BY IDOCK:   -1.23 KCAL/MOL
REMARK 927      BINDING AFFINITY PREDICTED BY RF-SCORE:    0.00 PKD
ROOT
HETATM    1  C   UNL     1     -11.561   9.317  68.488  1.00  0.00     0.884 C  
HETATM    2  S   UNL     1     -10.047   8.713  67.727  1.00  0.00    -0.225 SA 
HETATM    3  C   UNL     1      -9.933   7.256  68.762  1.00  0.00    -0.166 C  
HETATM    4  C   UNL     1     -10.125   7.430  70.250  1.00  0.00    -0.197 C  
HETATM    5  CA  UNL     1     -10.949   8.402  70.751  1.00  0.00    -0.247 C  
HETATM    6  O   UNL     1     -12.058  11.409  71.006  1.00  0.00    -0.318 OA 
HETATM    7  C   UNL     1     -11.433   8.414  72.281  1.00  0.00    -0.384 C  
HETATM    8  CA  UNL     1     -11.734  10.864  68.523  1.00  0.00    -0.237 C  
HETATM    9  N   UNL     1     -11.452   9.369  69.919  1.00  0.00    -0.098 N  
HETATM   10  C   UNL     1     -11.856  10.648  70.072  1.00  0.00    -0.322 C  
HETATM   11  O   UNL     1     -12.636   8.763  72.435  1.00  0.00    -0.385 OA 
HETATM   12  OXT UNL     1     -10.650   7.860  73.106  1.00  0.00    -0.359 OA 
ENDROOT
BRANCH   4  13
HETATM   13  C   UNL     1      -9.424   6.450  71.192  1.00  0.00    -0.167 C  
BRANCH  13  14
HETATM   14  N   UNL     1      -7.829   6.439  71.337  1.00  0.00    -0.103 N  
HETATM   15  C   UNL     1      -7.288   8.749  71.731  1.00  0.00    -0.074 C  
HETATM   16  C   UNL     1      -7.258   7.060  70.018  1.00  0.00    -0.079 C  
HETATM   17  C   UNL     1      -6.658   8.406  70.408  1.00  0.00    -0.036 C  
HETATM   18  C   UNL     1      -7.367   7.401  72.421  1.00  0.00    -0.072 C  
BRANCH  14  19
HETATM   19  C   UNL     1      -7.436   4.925  71.411  1.00  0.00    -0.078 C  
BRANCH  19  20
HETATM   20  C   UNL     1      -7.919   4.031  70.238  1.00  0.00    -0.051 C  
BRANCH  20  21
HETATM   21  N   UNL     1      -7.714   4.519  68.859  1.00  0.00    -0.070 N  
HETATM   22  C   UNL     1      -8.535   4.239  67.783  1.00  0.00    -0.098 C  
HETATM   23  O   UNL     1      -9.635   3.729  67.954  1.00  0.00    -0.181 OA 
HETATM   24  H   UNL     1      -6.901   5.111  68.686  1.00  0.00     0.000 HD 
BRANCH  22  25
HETATM   25  C   UNL     1      -8.056   4.485  66.370  1.00  0.00    -0.103 A  
HETATM   26  C   UNL     1      -8.138   3.571  65.303  1.00  0.00    -0.097 A  
HETATM   27  C   UNL     1      -7.703   5.825  66.072  1.00  0.00    -0.095 A  
HETATM   28  H   UNL     1      -7.308   6.700  62.255  1.00  0.00     0.000 HD 
HETATM   29  C   UNL     1      -7.470   6.251  64.758  1.00  0.00    -0.086 A  
HETATM   30  O   UNL     1      -7.529   5.794  62.434  1.00  0.00    -0.051 OA 
HETATM   31  H   UNL     1      -8.000   3.517  61.996  1.00  0.00     0.000 HD 
HETATM   32  C   UNL     1      -7.934   4.018  63.984  1.00  0.00    -0.089 A  
HETATM   33 CL   UNL     1      -8.623   1.916  65.488  1.00  0.00    -0.104 Cl 
HETATM   34  C   UNL     1      -7.611   5.347  63.721  1.00  0.00    -0.073 A  
HETATM   35  O   UNL     1      -8.137   3.215  62.885  1.00  0.00    -0.071 OA 
ENDBRANCH  22  25
ENDBRANCH  20  21
ENDBRANCH  19  20
ENDBRANCH  14  19
ENDBRANCH  13  14
ENDBRANCH   4  13
BRANCH   8  36
HETATM   36  N   UNL     1     -10.579  11.698  68.020  1.00  0.00    -0.194 N  
HETATM   37  H   UNL     1      -9.805  11.895  68.655  1.00  0.00     0.000 HD 
HETATM   38  C   UNL     1     -10.525  12.210  66.733  1.00  0.00    -0.218 C  
HETATM   39  O   UNL     1     -11.270  11.936  65.806  1.00  0.00    -0.320 OA 
BRANCH  38  40
HETATM   40  C   UNL     1      -9.435  13.217  66.475  1.00  0.00    -0.243 C  
BRANCH  40  41
HETATM   41  C   UNL     1      -9.694  14.515  65.890  1.00  0.00    -0.293 A  
HETATM   42  H2  UNL     1     -11.907  17.440  63.789  1.00  0.00     0.000 HD 
HETATM   43  C   UNL     1     -10.935  15.959  64.805  1.00  0.00    -0.375 A  
HETATM   44  C   UNL     1      -9.196  15.690  66.434  1.00  0.00    -0.311 A  
HETATM   45  H1  UNL     1     -12.152  15.829  63.133  1.00  0.00     0.000 HD 
HETATM   46  S   UNL     1     -10.220  16.980  65.976  1.00  0.00    -0.278 SA 
HETATM   47  N   UNL     1     -11.726  16.437  63.832  1.00  0.00    -1.024 NA 
HETATM   48  N   UNL     1     -10.630  14.693  64.888  1.00  0.00    -0.435 NA 
ENDBRANCH  40  41
BRANCH  40  49
HETATM   49  N   UNL     1      -8.191  13.090  66.820  1.00  0.00    -0.408 NA 
HETATM   50  H   UNL     1      -7.512  12.631  66.214  1.00  0.00     0.000 HD 
BRANCH  49  51
HETATM   51  O   UNL     1      -7.831  13.609  68.052  1.00  0.00    -0.123 OA 
HETATM   52  O   UNL     1      -5.140  13.349  70.317  1.00  0.00    -0.091 OA 
HETATM   53  C   UNL     1      -5.561  12.794  67.517  1.00  0.00    -0.104 C  
HETATM   54  O   UNL     1      -7.176  14.323  70.379  1.00  0.00     0.261 OA 
HETATM   55  C   UNL     1      -7.203  11.415  68.873  1.00  0.00    -0.113 C  
HETATM   56  C   UNL     1      -6.244  13.510  69.816  1.00  0.00    -0.116 C  
HETATM   57  C   UNL     1      -6.715  12.825  68.535  1.00  0.00    -0.090 C  
ENDBRANCH  49  51
ENDBRANCH  40  49
ENDBRANCH  38  40
ENDBRANCH   8  36
TORSDOF 11
ENDMDL
MODEL       53
REMARK 921   NORMALIZED FREE ENERGY PREDICTED BY IDOCK:   -3.63 KCAL/MOL
REMARK 922        TOTAL FREE ENERGY PREDICTED BY IDOCK:   -9.39 KCAL/MOL
REMARK 923 INTER-LIGAND FREE ENERGY PREDICTED BY IDOCK:   -9.37 KCAL/MOL
REMARK 924 INTRA-LIGAND FREE ENERGY PREDICTED BY IDOCK:   -0.02 KCAL/MOL
REMARK 927      BINDING AFFINITY PREDICTED BY RF-SCORE:    0.00 PKD
ROOT
HETATM    1  C   UNL     1     -11.728  11.121  67.854  1.00  0.00    -0.182 C  
HETATM    2  S   UNL     1     -12.217  10.662  69.523  1.00  0.00    -0.038 SA 
HETATM    3  C   UNL     1     -12.258  12.345  70.133  1.00  0.00    -0.229 C  
HETATM    4  C   UNL     1     -11.089  13.243  69.808  1.00  0.00     0.083 C  
HETATM    5  CA  UNL     1     -10.379  13.092  68.646  1.00  0.00    -0.196 C  
HETATM    6  O   UNL     1      -8.742  11.407  66.451  1.00  0.00    -0.180 OA 
HETATM    7  C   UNL     1      -9.358  14.209  68.112  1.00  0.00    -0.206 C  
HETATM    8  CA  UNL     1     -10.843  10.088  67.097  1.00  0.00    -0.170 C  
HETATM    9  N   UNL     1     -10.586  11.991  67.856  1.00  0.00    -0.196 N  
HETATM   10  C   UNL     1      -9.836  11.285  66.982  1.00  0.00    -0.191 C  
HETATM   11  O   UNL     1      -9.387  14.372  66.860  1.00  0.00    -0.234 OA 
HETATM   12  OXT UNL     1      -8.833  14.940  69.001  1.00  0.00    -0.196 OA 
ENDROOT
BRANCH   4  13
HETATM   13  C   UNL     1     -10.749  14.375  70.778  1.00  0.00     0.810 C  
BRANCH  13  14
HETATM   14  N   UNL     1     -11.838  15.481  71.174  1.00  0.00    -0.346 N  
HETATM   15  C   UNL     1     -13.375  14.276  72.576  1.00  0.00    -0.595 C  
HETATM   16  C   UNL     1     -13.127  15.149  70.349  1.00  0.00    -0.194 C  
HETATM   17  C   UNL     1     -14.165  14.670  71.358  1.00  0.00    -0.462 C  
HETATM   18  C   UNL     1     -12.282  15.326  72.620  1.00  0.00    -0.403 C  
BRANCH  14  19
HETATM   19  C   UNL     1     -11.240  16.840  70.676  1.00  0.00     0.278 C  
BRANCH  19  20
HETATM   20  C   UNL     1     -10.890  16.927  69.167  1.00  0.00    -0.237 C  
BRANCH  20  21
HETATM   21  N   UNL     1      -9.651  17.630  68.776  1.00  0.00    -0.298 N  
HETATM   22  C   UNL     1      -9.581  18.697  67.901  1.00  0.00    -0.310 C  
HETATM   23  O   UNL     1     -10.597  19.282  67.548  1.00  0.00    -0.434 OA 
HETATM   24  H   UNL     1      -8.776  17.302  69.187  1.00  0.00     0.000 HD 
BRANCH  22  25
HETATM   25  C   UNL     1      -8.255  19.110  67.303  1.00  0.00    -0.299 A  
HETATM   26  C   UNL     1      -7.510  18.372  66.364  1.00  0.00    -0.247 A  
HETATM   27  C   UNL     1      -7.863  20.448  67.557  1.00  0.00    -0.332 A  
HETATM   28  H   UNL     1      -4.925  21.842  65.340  1.00  0.00     0.000 HD 
HETATM   29  C   UNL     1      -6.789  21.044  66.882  1.00  0.00    -0.361 A  
HETATM   30  O   UNL     1      -5.161  20.938  65.165  1.00  0.00    -0.181 OA 
HETATM   31  H   UNL     1      -5.066  18.794  64.171  1.00  0.00     0.000 HD 
HETATM   32  C   UNL     1      -6.454  18.991  65.668  1.00  0.00    -0.261 A  
HETATM   33 CL   UNL     1      -7.899  16.750  65.888  1.00  0.00    -0.059 Cl 
HETATM   34  C   UNL     1      -6.108  20.316  65.924  1.00  0.00    -0.198 A  
HETATM   35  O   UNL     1      -5.778  18.375  64.640  1.00  0.00    -0.158 OA 
ENDBRANCH  22  25
ENDBRANCH  20  21
ENDBRANCH  19  20
ENDBRANCH  14  19
ENDBRANCH  13  14
ENDBRANCH   4  13
BRANCH   8  36
HETATM   36  N   UNL     1     -10.396   8.867  67.867  1.00  0.00    -0.222 N  
HETATM   37  H   UNL     1     -10.779   7.958  67.607  1.00  0.00     0.000 HD 
HETATM   38  C   UNL     1      -9.487   8.929  68.911  1.00  0.00    -0.152 C  
HETATM   39  O   UNL     1      -8.812   9.892  69.237  1.00  0.00    -0.149 OA 
BRANCH  38  40
HETATM   40  C   UNL     1      -9.340   7.669  69.725  1.00  0.00    -0.150 C  
BRANCH  40  41
HETATM   41  C   UNL     1     -10.118   7.416  70.919  1.00  0.00    -0.188 A  
HETATM   42  H2  UNL     1     -11.915   5.068  73.940  1.00  0.00     0.000 HD 
HETATM   43  C   UNL     1     -10.989   6.105  72.444  1.00  0.00    -0.259 A  
HETATM   44  C   UNL     1     -10.173   8.311  71.977  1.00  0.00    -0.269 A  
HETATM   45  H1  UNL     1     -11.934   4.262  72.378  1.00  0.00     0.000 HD 
HETATM   46  S   UNL     1     -10.537   7.445  73.406  1.00  0.00    -0.326 SA 
HETATM   47  N   UNL     1     -11.664   5.062  72.951  1.00  0.00    -0.204 NA 
HETATM   48  N   UNL     1     -10.676   6.178  71.180  1.00  0.00    -0.246 NA 
ENDBRANCH  40  41
BRANCH  40  49
HETATM   49  N   UNL     1      -8.598   6.652  69.416  1.00  0.00    -0.134 NA 
HETATM   50  H   UNL     1      -8.300   5.975  70.119  1.00  0.00     0.000 HD 
BRANCH  49  51
HETATM   51  O   UNL     1      -8.231   6.529  68.087  1.00  0.00    -0.115 OA 
HETATM   52  O   UNL     1      -9.176   4.621  65.275  1.00  0.00    -0.149 OA 
HETATM   53  C   UNL     1     -10.369   5.323  67.807  1.00  0.00    -0.196 C  
HETATM   54  O   UNL     1      -7.504   6.073  65.717  1.00  0.00    -0.078 OA 
HETATM   55  C   UNL     1      -8.185   4.109  68.249  1.00  0.00    -0.091 C  
HETATM   56  C   UNL     1      -8.551   5.289  66.087  1.00  0.00    -0.120 C  
HETATM   57  C   UNL     1      -8.846   5.319  67.585  1.00  0.00    -0.105 C  
ENDBRANCH  49  51
ENDBRANCH  40  49
ENDBRANCH  38  40
ENDBRANCH   8  36
TORSDOF 11
ENDMDL
MODEL       54
REMARK 921   NORMALIZED FREE ENERGY PREDICTED BY IDOCK:   -3.54 KCAL/MOL
REMARK 922        TOTAL FREE ENERGY PREDICTED BY IDOCK:   -9.25 KCAL/MOL
REMARK 923 INTER-LIGAND FREE ENERGY PREDICTED BY IDOCK:   -7.48 KCAL/MOL
REMARK 924 INTRA-LIGAND FREE ENERGY PREDICTED BY IDOCK:   -1.76 KCAL/MOL
REMARK 927      BINDING AFFINITY PREDICTED BY RF-SCORE:    0.00 PKD
ROOT
HETATM    1  C   UNL     1      -5.800  10.916  68.986  1.00  0.00    -0.040 C  
HETATM    2  S   UNL     1      -6.861  10.886  70.438  1.00  0.00     0.518 SA 
HETATM    3  C   UNL     1      -6.560   9.160  70.806  1.00  0.00    -0.074 C  
HETATM    4  C   UNL     1      -6.648   8.170  69.670  1.00  0.00    -0.037 C  
HETATM    5  CA  UNL     1      -6.322   8.528  68.389  1.00  0.00    -0.055 C  
HETATM    6  O   UNL     1      -6.463  10.404  65.782  1.00  0.00    -0.107 OA 
HETATM    7  C   UNL     1      -6.088   7.445  67.227  1.00  0.00    -0.046 C  
HETATM    8  CA  UNL     1      -6.224  11.895  67.853  1.00  0.00    -0.061 C  
HETATM    9  N   UNL     1      -6.110   9.846  68.080  1.00  0.00    -0.053 N  
HETATM   10  C   UNL     1      -6.239  10.601  66.967  1.00  0.00    -0.069 C  
HETATM   11  O   UNL     1      -5.135   7.727  66.449  1.00  0.00    -0.023 OA 
HETATM   12  OXT UNL     1      -6.710   6.352  67.365  1.00  0.00    -0.056 OA 
ENDROOT
BRANCH   4  13
HETATM   13  C   UNL     1      -7.051   6.730  69.991  1.00  0.00    -0.071 C  
BRANCH  13  14
HETATM   14  N   UNL     1      -8.060   6.401  71.190  1.00  0.00    -0.116 N  
HETATM   15  C   UNL     1      -6.669   6.541  73.146  1.00  0.00    -0.073 C  
HETATM   16  C   UNL     1      -7.717   4.952  71.675  1.00  0.00    -0.097 C  
HETATM   17  C   UNL     1      -7.106   5.103  73.064  1.00  0.00    -0.088 C  
HETATM   18  C   UNL     1      -7.775   7.268  72.406  1.00  0.00    -0.088 C  
BRANCH  14  19
HETATM   19  C   UNL     1      -9.485   6.406  70.539  1.00  0.00    -0.162 C  
BRANCH  19  20
HETATM   20  C   UNL     1     -10.259   7.750  70.589  1.00  0.00    -0.199 C  
BRANCH  20  21
HETATM   21  N   UNL     1     -10.213   8.627  69.401  1.00  0.00    -0.206 N  
HETATM   22  C   UNL     1     -10.442   8.222  68.100  1.00  0.00    -0.171 C  
HETATM   23  O   UNL     1     -10.923   7.121  67.865  1.00  0.00    -0.170 OA 
HETATM   24  H   UNL     1      -9.994   9.612  69.554  1.00  0.00     0.000 HD 
BRANCH  22  25
HETATM   25  C   UNL     1     -10.029   9.100  66.941  1.00  0.00    -0.304 A  
HETATM   26  C   UNL     1      -9.387   8.665  65.767  1.00  0.00    -0.158 A  
HETATM   27  C   UNL     1     -10.538  10.423  66.968  1.00  0.00    -0.305 A  
HETATM   28  H   UNL     1     -10.252  12.456  63.610  1.00  0.00     0.000 HD 
HETATM   29  C   UNL     1     -10.441  11.274  65.859  1.00  0.00    -0.314 A  
HETATM   30  O   UNL     1      -9.890  11.578  63.575  1.00  0.00    -0.320 OA 
HETATM   31  H   UNL     1      -8.798   9.684  62.672  1.00  0.00     0.000 HD 
HETATM   32  C   UNL     1      -9.324   9.517  64.648  1.00  0.00    -0.134 A  
HETATM   33 CL   UNL     1      -8.772   7.058  65.546  1.00  0.00    -0.095 Cl 
HETATM   34  C   UNL     1      -9.855  10.804  64.698  1.00  0.00    -0.307 A  
HETATM   35  O   UNL     1      -8.839   9.109  63.427  1.00  0.00    -0.186 OA 
ENDBRANCH  22  25
ENDBRANCH  20  21
ENDBRANCH  19  20
ENDBRANCH  14  19
ENDBRANCH  13  14
ENDBRANCH   4  13
BRANCH   8  36
HETATM   36  N   UNL     1      -7.529  12.636  68.034  1.00  0.00    -0.107 N  
HETATM   37  H   UNL     1      -8.396  12.171  67.764  1.00  0.00     0.000 HD 
HETATM   38  C   UNL     1      -7.599  13.919  68.553  1.00  0.00    -0.134 C  
HETATM   39  O   UNL     1      -6.693  14.547  69.076  1.00  0.00    -0.093 OA 
BRANCH  38  40
HETATM   40  C   UNL     1      -8.939  14.599  68.435  1.00  0.00    -0.180 C  
BRANCH  40  41
HETATM   41  C   UNL     1      -9.566  14.874  67.160  1.00  0.00    -0.225 A  
HETATM   42  H2  UNL     1     -12.651  14.806  64.271  1.00  0.00     0.000 HD 
HETATM   43  C   UNL     1     -11.238  14.796  65.746  1.00  0.00    -0.337 A  
HETATM   44  C   UNL     1      -9.289  16.017  66.425  1.00  0.00    -0.298 A  
HETATM   45  H1  UNL     1     -12.597  13.324  65.215  1.00  0.00     0.000 HD 
HETATM   46  S   UNL     1     -10.636  16.365  65.431  1.00  0.00    -0.239 SA 
HETATM   47  N   UNL     1     -12.238  14.260  65.028  1.00  0.00    -0.419 NA 
HETATM   48  N   UNL     1     -10.638  14.135  66.698  1.00  0.00    -0.276 NA 
ENDBRANCH  40  41
BRANCH  40  49
HETATM   49  N   UNL     1      -9.712  14.922  69.425  1.00  0.00    -0.389 NA 
HETATM   50  H   UNL     1      -9.664  15.841  69.864  1.00  0.00     0.000 HD 
BRANCH  49  51
HETATM   51  O   UNL     1     -10.606  13.958  69.857  1.00  0.00     0.228 OA 
HETATM   52  O   UNL     1     -13.873  13.820  71.181  1.00  0.00    -0.094 OA 
HETATM   53  C   UNL     1     -12.309  15.739  69.698  1.00  0.00    -0.115 C  
HETATM   54  O   UNL     1     -12.226  12.309  70.863  1.00  0.00    -0.353 OA 
HETATM   55  C   UNL     1     -11.105  15.217  71.868  1.00  0.00    -0.213 C  
HETATM   56  C   UNL     1     -12.707  13.579  70.896  1.00  0.00    -0.291 C  
HETATM   57  C   UNL     1     -11.665  14.644  70.565  1.00  0.00    -0.285 C  
ENDBRANCH  49  51
ENDBRANCH  40  49
ENDBRANCH  38  40
ENDBRANCH   8  36
TORSDOF 11
ENDMDL
MODEL       55
REMARK 921   NORMALIZED FREE ENERGY PREDICTED BY IDOCK:   -3.41 KCAL/MOL
REMARK 922        TOTAL FREE ENERGY PREDICTED BY IDOCK:   -9.03 KCAL/MOL
REMARK 923 INTER-LIGAND FREE ENERGY PREDICTED BY IDOCK:   -6.75 KCAL/MOL
REMARK 924 INTRA-LIGAND FREE ENERGY PREDICTED BY IDOCK:   -2.28 KCAL/MOL
REMARK 927      BINDING AFFINITY PREDICTED BY RF-SCORE:    0.00 PKD
ROOT
HETATM    1  C   UNL     1     -10.075   8.448  70.699  1.00  0.00    -0.193 C  
HETATM    2  S   UNL     1     -10.933   7.558  69.391  1.00  0.00    -0.006 SA 
HETATM    3  C   UNL     1     -10.325   5.948  69.886  1.00  0.00    -0.242 C  
HETATM    4  C   UNL     1      -8.850   5.810  70.180  1.00  0.00    -0.144 C  
HETATM    5  CA  UNL     1      -8.127   6.855  70.690  1.00  0.00    -0.118 C  
HETATM    6  O   UNL     1      -7.100   9.901  70.766  1.00  0.00    -0.294 OA 
HETATM    7  C   UNL     1      -6.662   6.662  71.316  1.00  0.00    -0.058 C  
HETATM    8  CA  UNL     1      -9.630   9.900  70.354  1.00  0.00    -0.056 C  
HETATM    9  N   UNL     1      -8.681   8.108  70.746  1.00  0.00    -0.135 N  
HETATM   10  C   UNL     1      -8.200   9.370  70.719  1.00  0.00    -0.127 C  
HETATM   11  O   UNL     1      -6.450   7.361  72.346  1.00  0.00    -0.050 OA 
HETATM   12  OXT UNL     1      -5.997   5.687  70.862  1.00  0.00    -0.026 OA 
ENDROOT
BRANCH   4  13
HETATM   13  C   UNL     1      -8.189   4.450  69.957  1.00  0.00    -0.062 C  
BRANCH  13  14
HETATM   14  N   UNL     1      -8.720   3.138  70.707  1.00  0.00    -0.071 N  
HETATM   15  C   UNL     1      -8.019   3.474  72.982  1.00  0.00    -0.070 C  
HETATM   16  C   UNL     1      -7.464   2.248  70.989  1.00  0.00    -0.033 C  
HETATM   17  C   UNL     1      -7.259   2.267  72.500  1.00  0.00    -0.031 C  
HETATM   18  C   UNL     1      -9.248   3.471  72.094  1.00  0.00    -0.111 C  
BRANCH  14  19
HETATM   19  C   UNL     1      -9.644   2.418  69.667  1.00  0.00     0.034 C  
BRANCH  19  20
HETATM   20  C   UNL     1      -8.933   1.518  68.622  1.00  0.00    -0.108 C  
BRANCH  20  21
HETATM   21  N   UNL     1      -8.837   2.006  67.231  1.00  0.00    -0.123 N  
HETATM   22  C   UNL     1      -7.723   2.598  66.667  1.00  0.00    -0.075 C  
HETATM   23  O   UNL     1      -6.641   2.561  67.238  1.00  0.00    -0.035 OA 
HETATM   24  H   UNL     1      -9.661   1.896  66.638  1.00  0.00     0.000 HD 
BRANCH  22  25
HETATM   25  C   UNL     1      -7.840   3.370  65.372  1.00  0.00    -0.082 A  
HETATM   26  C   UNL     1      -8.759   3.110  64.339  1.00  0.00    -0.095 A  
HETATM   27  C   UNL     1      -7.102   4.579  65.316  1.00  0.00    -0.063 A  
HETATM   28  H   UNL     1      -8.035   7.040  62.390  1.00  0.00     0.000 HD 
HETATM   29  C   UNL     1      -7.292   5.512  64.288  1.00  0.00    -0.058 A  
HETATM   30  O   UNL     1      -8.529   6.229  62.400  1.00  0.00    -0.080 OA 
HETATM   31  H   UNL     1     -10.084   4.592  61.692  1.00  0.00     0.000 HD 
HETATM   32  C   UNL     1      -8.965   4.070  63.330  1.00  0.00    -0.114 A  
HETATM   33 CL   UNL     1      -9.788   1.714  64.296  1.00  0.00    -0.089 Cl 
HETATM   34  C   UNL     1      -8.241   5.259  63.315  1.00  0.00    -0.114 A  
HETATM   35  O   UNL     1      -9.945   3.945  62.373  1.00  0.00    -0.131 OA 
ENDBRANCH  22  25
ENDBRANCH  20  21
ENDBRANCH  19  20
ENDBRANCH  14  19
ENDBRANCH  13  14
ENDBRANCH   4  13
BRANCH   8  36
HETATM   36  N   UNL     1      -9.861  10.374  68.938  1.00  0.00    -0.191 N  
HETATM   37  H   UNL     1     -10.646   9.986  68.414  1.00  0.00     0.000 HD 
HETATM   38  C   UNL     1      -9.052  11.315  68.319  1.00  0.00    -0.173 C  
HETATM   39  O   UNL     1      -8.188  11.996  68.846  1.00  0.00    -0.024 OA 
BRANCH  38  40
HETATM   40  C   UNL     1      -9.270  11.490  66.838  1.00  0.00    -0.176 C  
BRANCH  40  41
HETATM   41  C   UNL     1      -8.763  10.553  65.859  1.00  0.00    -0.167 A  
HETATM   42  H2  UNL     1      -8.276   8.858  62.017  1.00  0.00     0.000 HD 
HETATM   43  C   UNL     1      -8.566   9.768  63.822  1.00  0.00    -0.200 A  
HETATM   44  C   UNL     1      -7.511   9.966  65.966  1.00  0.00    -0.106 A  
HETATM   45  H1  UNL     1      -9.902   9.475  62.265  1.00  0.00     0.000 HD 
HETATM   46  S   UNL     1      -6.974   9.537  64.400  1.00  0.00    -0.113 SA 
HETATM   47  N   UNL     1      -8.953   9.337  62.610  1.00  0.00    -0.210 NA 
HETATM   48  N   UNL     1      -9.394  10.350  64.645  1.00  0.00    -0.229 NA 
ENDBRANCH  40  41
BRANCH  40  49
HETATM   49  N   UNL     1      -9.992  12.413  66.284  1.00  0.00    -0.241 NA 
HETATM   50  H   UNL     1     -10.207  12.398  65.287  1.00  0.00     0.000 HD 
BRANCH  49  51
HETATM   51  O   UNL     1     -10.458  13.420  67.112  1.00  0.00    -0.247 OA 
HETATM   52  O   UNL     1     -10.604  16.944  67.121  1.00  0.00    -0.313 OA 
HETATM   53  C   UNL     1     -10.240  14.884  65.134  1.00  0.00    -0.409 C  
HETATM   54  O   UNL     1     -11.075  15.334  68.632  1.00  0.00    -0.252 OA 
HETATM   55  C   UNL     1      -8.398  14.675  66.865  1.00  0.00    -0.159 C  
HETATM   56  C   UNL     1     -10.555  15.768  67.454  1.00  0.00    -0.313 C  
HETATM   57  C   UNL     1      -9.908  14.665  66.620  1.00  0.00    -0.269 C  
ENDBRANCH  49  51
ENDBRANCH  40  49
ENDBRANCH  38  40
ENDBRANCH   8  36
TORSDOF 11
ENDMDL
MODEL       56
REMARK 921   NORMALIZED FREE ENERGY PREDICTED BY IDOCK:   -3.37 KCAL/MOL
REMARK 922        TOTAL FREE ENERGY PREDICTED BY IDOCK:   -8.96 KCAL/MOL
REMARK 923 INTER-LIGAND FREE ENERGY PREDICTED BY IDOCK:   -7.01 KCAL/MOL
REMARK 924 INTRA-LIGAND FREE ENERGY PREDICTED BY IDOCK:   -1.96 KCAL/MOL
REMARK 927      BINDING AFFINITY PREDICTED BY RF-SCORE:    0.00 PKD
ROOT
HETATM    1  C   UNL     1     -12.059  10.544  68.346  1.00  0.00     0.568 C  
HETATM    2  S   UNL     1     -12.122  10.181  70.107  1.00  0.00    -0.092 SA 
HETATM    3  C   UNL     1     -12.204  11.898  70.609  1.00  0.00    -0.331 C  
HETATM    4  C   UNL     1     -11.233  12.866  69.977  1.00  0.00     0.216 C  
HETATM    5  CA  UNL     1     -10.781  12.684  68.696  1.00  0.00    -0.242 C  
HETATM    6  O   UNL     1      -9.496  10.976  66.295  1.00  0.00    -0.182 OA 
HETATM    7  C   UNL     1     -10.022  13.838  67.881  1.00  0.00    -0.240 C  
HETATM    8  CA  UNL     1     -11.257   9.534  67.473  1.00  0.00     0.308 C  
HETATM    9  N   UNL     1     -11.040  11.508  68.040  1.00  0.00    -0.234 N  
HETATM   10  C   UNL     1     -10.429  10.802  67.064  1.00  0.00    -0.247 C  
HETATM   11  O   UNL     1     -10.339  13.896  66.660  1.00  0.00    -0.271 OA 
HETATM   12  OXT UNL     1      -9.394  14.682  68.584  1.00  0.00    -0.199 OA 
ENDROOT
BRANCH   4  13
HETATM   13  C   UNL     1     -10.809  14.098  70.777  1.00  0.00     1.041 C  
BRANCH  13  14
HETATM   14  N   UNL     1     -11.852  15.266  71.111  1.00  0.00    -0.314 N  
HETATM   15  C   UNL     1     -13.481  14.179  72.505  1.00  0.00    -0.634 C  
HETATM   16  C   UNL     1     -13.135  14.973  70.262  1.00  0.00    -0.087 C  
HETATM   17  C   UNL     1     -14.220  14.575  71.256  1.00  0.00    -0.311 C  
HETATM   18  C   UNL     1     -12.340  15.176  72.548  1.00  0.00    -0.370 C  
BRANCH  14  19
HETATM   19  C   UNL     1     -11.175  16.580  70.592  1.00  0.00    -0.063 C  
BRANCH  19  20
HETATM   20  C   UNL     1     -11.254  16.837  69.063  1.00  0.00    -0.072 C  
BRANCH  20  21
HETATM   21  N   UNL     1     -10.199  17.661  68.438  1.00  0.00    -0.359 N  
HETATM   22  C   UNL     1      -9.864  17.647  67.098  1.00  0.00    -0.306 C  
HETATM   23  O   UNL     1     -10.585  17.090  66.281  1.00  0.00    -0.282 OA 
HETATM   24  H   UNL     1      -9.676  18.293  69.046  1.00  0.00     0.000 HD 
BRANCH  22  25
HETATM   25  C   UNL     1      -8.560  18.252  66.629  1.00  0.00    -0.287 A  
HETATM   26  C   UNL     1      -7.354  17.554  66.429  1.00  0.00    -0.299 A  
HETATM   27  C   UNL     1      -8.643  19.584  66.152  1.00  0.00    -0.326 A  
HETATM   28  H   UNL     1      -5.533  20.894  64.125  1.00  0.00     0.000 HD 
HETATM   29  C   UNL     1      -7.580  20.192  65.471  1.00  0.00    -0.116 A  
HETATM   30  O   UNL     1      -5.450  20.005  64.450  1.00  0.00    -0.168 OA 
HETATM   31  H   UNL     1      -4.450  17.904  64.878  1.00  0.00     0.000 HD 
HETATM   32  C   UNL     1      -6.305  18.164  65.714  1.00  0.00    -0.261 A  
HETATM   33 CL   UNL     1      -7.113  15.899  66.889  1.00  0.00    -0.201 Cl 
HETATM   34  C   UNL     1      -6.426  19.466  65.237  1.00  0.00    -0.274 A  
HETATM   35  O   UNL     1      -5.157  17.493  65.360  1.00  0.00    -0.219 OA 
ENDBRANCH  22  25
ENDBRANCH  20  21
ENDBRANCH  19  20
ENDBRANCH  14  19
ENDBRANCH  13  14
ENDBRANCH   4  13
BRANCH   8  36
HETATM   36  N   UNL     1     -10.529   8.424  68.195  1.00  0.00    -0.329 N  
HETATM   37  H   UNL     1     -10.763   8.240  69.170  1.00  0.00     0.000 HD 
HETATM   38  C   UNL     1      -9.557   7.645  67.588  1.00  0.00    -0.145 C  
HETATM   39  O   UNL     1      -9.278   7.617  66.401  1.00  0.00    -0.170 OA 
BRANCH  38  40
HETATM   40  C   UNL     1      -8.762   6.757  68.510  1.00  0.00    -0.124 C  
BRANCH  40  41
HETATM   41  C   UNL     1      -8.636   5.330  68.303  1.00  0.00    -0.099 A  
HETATM   42  H2  UNL     1      -6.657   1.596  68.195  1.00  0.00     0.000 HD 
HETATM   43  C   UNL     1      -7.518   3.445  68.301  1.00  0.00    -0.053 A  
HETATM   44  C   UNL     1      -9.684   4.449  68.527  1.00  0.00    -0.113 A  
HETATM   45  H1  UNL     1      -5.609   2.915  67.695  1.00  0.00     0.000 HD 
HETATM   46  S   UNL     1      -9.034   2.907  68.881  1.00  0.00    -0.145 SA 
HETATM   47  N   UNL     1      -6.513   2.594  68.041  1.00  0.00    -0.032 NA 
HETATM   48  N   UNL     1      -7.411   4.728  68.084  1.00  0.00    -0.073 NA 
ENDBRANCH  40  41
BRANCH  40  49
HETATM   49  N   UNL     1      -8.041   7.157  69.510  1.00  0.00    -0.128 NA 
HETATM   50  H   UNL     1      -7.941   6.597  70.357  1.00  0.00     0.000 HD 
BRANCH  49  51
HETATM   51  O   UNL     1      -7.412   8.383  69.373  1.00  0.00    -0.084 OA 
HETATM   52  O   UNL     1      -5.880  10.787  71.450  1.00  0.00    -0.342 OA 
HETATM   53  C   UNL     1      -6.577   7.995  71.665  1.00  0.00    -0.053 C  
HETATM   54  O   UNL     1      -6.443  10.708  69.265  1.00  0.00    -0.051 OA 
HETATM   55  C   UNL     1      -8.688   9.325  71.208  1.00  0.00    -0.031 C  
HETATM   56  C   UNL     1      -6.467  10.225  70.535  1.00  0.00    -0.104 C  
HETATM   57  C   UNL     1      -7.294   8.953  70.698  1.00  0.00    -0.080 C  
ENDBRANCH  49  51
ENDBRANCH  40  49
ENDBRANCH  38  40
ENDBRANCH   8  36
TORSDOF 11
ENDMDL
MODEL       57
REMARK 921   NORMALIZED FREE ENERGY PREDICTED BY IDOCK:   -3.28 KCAL/MOL
REMARK 922        TOTAL FREE ENERGY PREDICTED BY IDOCK:   -8.82 KCAL/MOL
REMARK 923 INTER-LIGAND FREE ENERGY PREDICTED BY IDOCK:   -8.36 KCAL/MOL
REMARK 924 INTRA-LIGAND FREE ENERGY PREDICTED BY IDOCK:   -0.45 KCAL/MOL
REMARK 927      BINDING AFFINITY PREDICTED BY RF-SCORE:    0.00 PKD
ROOT
HETATM    1  C   UNL     1     -10.330   8.626  67.185  1.00  0.00    -0.299 C  
HETATM    2  S   UNL     1     -10.225   9.004  68.941  1.00  0.00    -0.211 SA 
HETATM    3  C   UNL     1      -9.551  10.646  68.698  1.00  0.00    -0.179 C  
HETATM    4  C   UNL     1      -8.407  10.803  67.726  1.00  0.00    -0.113 C  
HETATM    5  CA  UNL     1      -8.288   9.989  66.631  1.00  0.00    -0.125 C  
HETATM    6  O   UNL     1      -8.192   7.145  65.136  1.00  0.00    -0.134 OA 
HETATM    7  C   UNL     1      -7.295  10.323  65.416  1.00  0.00    -0.144 C  
HETATM    8  CA  UNL     1     -10.142   7.130  66.800  1.00  0.00    -0.208 C  
HETATM    9  N   UNL     1      -9.088   8.882  66.512  1.00  0.00    -0.155 N  
HETATM   10  C   UNL     1      -8.974   7.679  65.909  1.00  0.00    -0.103 C  
HETATM   11  O   UNL     1      -7.770  10.053  64.278  1.00  0.00    -0.136 OA 
HETATM   12  OXT UNL     1      -6.280  11.017  65.714  1.00  0.00    -0.104 OA 
ENDROOT
BRANCH   4  13
HETATM   13  C   UNL     1      -7.411  11.940  67.955  1.00  0.00    -0.104 C  
BRANCH  13  14
HETATM   14  N   UNL     1      -6.260  11.823  69.063  1.00  0.00    -0.065 N  
HETATM   15  C   UNL     1      -5.583   9.520  68.923  1.00  0.00    -0.036 C  
HETATM   16  C   UNL     1      -6.881  11.036  70.266  1.00  0.00     0.211 C  
HETATM   17  C   UNL     1      -6.179   9.683  70.295  1.00  0.00    -0.070 C  
HETATM   18  C   UNL     1      -5.127  10.927  68.589  1.00  0.00    -0.041 C  
BRANCH  14  19
HETATM   19  C   UNL     1      -5.965  13.297  69.504  1.00  0.00    -0.107 C  
BRANCH  19  20
HETATM   20  C   UNL     1      -5.458  14.258  68.396  1.00  0.00    -0.108 C  
BRANCH  20  21
HETATM   21  N   UNL     1      -6.443  15.134  67.728  1.00  0.00    -0.151 N  
HETATM   22  C   UNL     1      -7.343  15.960  68.374  1.00  0.00    -0.125 C  
HETATM   23  O   UNL     1      -7.233  16.186  69.572  1.00  0.00    -0.217 OA 
HETATM   24  H   UNL     1      -6.459  15.129  66.708  1.00  0.00     0.000 HD 
BRANCH  22  25
HETATM   25  C   UNL     1      -8.524  16.537  67.627  1.00  0.00    -0.182 A  
HETATM   26  C   UNL     1      -8.713  17.895  67.309  1.00  0.00    -0.239 A  
HETATM   27  C   UNL     1      -9.384  15.587  67.020  1.00  0.00    -0.239 A  
HETATM   28  H   UNL     1     -11.923  17.000  64.365  1.00  0.00     0.000 HD 
HETATM   29  C   UNL     1     -10.375  15.967  66.106  1.00  0.00    -0.340 A  
HETATM   30  O   UNL     1     -11.368  17.655  64.772  1.00  0.00    -0.670 OA 
HETATM   31  H   UNL     1     -10.492  19.797  65.265  1.00  0.00     0.000 HD 
HETATM   32  C   UNL     1      -9.690  18.262  66.364  1.00  0.00    -0.334 A  
HETATM   33 CL   UNL     1      -7.705  19.173  67.909  1.00  0.00    -0.297 Cl 
HETATM   34  C   UNL     1     -10.504  17.302  65.767  1.00  0.00    -0.229 A  
HETATM   35  O   UNL     1      -9.833  19.550  65.902  1.00  0.00    -0.391 OA 
ENDBRANCH  22  25
ENDBRANCH  20  21
ENDBRANCH  19  20
ENDBRANCH  14  19
ENDBRANCH  13  14
ENDBRANCH   4  13
BRANCH   8  36
HETATM   36  N   UNL     1      -9.785   6.171  67.911  1.00  0.00    -0.114 N  
HETATM   37  H   UNL     1     -10.501   5.528  68.251  1.00  0.00     0.000 HD 
HETATM   38  C   UNL     1      -8.527   6.126  68.490  1.00  0.00    -0.114 C  
HETATM   39  O   UNL     1      -7.521   6.695  68.098  1.00  0.00    -0.091 OA 
BRANCH  38  40
HETATM   40  C   UNL     1      -8.413   5.293  69.741  1.00  0.00    -0.098 C  
BRANCH  40  41
HETATM   41  C   UNL     1      -7.298   4.404  69.987  1.00  0.00    -0.046 A  
HETATM   42  H2  UNL     1      -5.000   1.586  72.144  1.00  0.00     0.000 HD 
HETATM   43  C   UNL     1      -6.197   2.932  71.181  1.00  0.00    -0.018 A  
HETATM   44  C   UNL     1      -6.633   3.741  68.966  1.00  0.00    -0.040 A  
HETATM   45  H1  UNL     1      -5.780   2.752  73.203  1.00  0.00     0.000 HD 
HETATM   46  S   UNL     1      -5.926   2.321  69.607  1.00  0.00    -0.024 SA 
HETATM   47  N   UNL     1      -5.619   2.388  72.264  1.00  0.00    -0.007 NA 
HETATM   48  N   UNL     1      -6.964   3.984  71.262  1.00  0.00    -0.031 NA 
ENDBRANCH  40  41
BRANCH  40  49
HETATM   49  N   UNL     1      -9.217   5.339  70.756  1.00  0.00    -0.149 NA 
HETATM   50  H   UNL     1      -9.625   4.494  71.155  1.00  0.00     0.000 HD 
BRANCH  49  51
HETATM   51  O   UNL     1      -9.497   6.593  71.273  1.00  0.00    -0.162 OA 
HETATM   52  O   UNL     1     -12.021   8.129  73.198  1.00  0.00    -0.192 OA 
HETATM   53  C   UNL     1     -11.139   5.427  72.703  1.00  0.00    -0.332 C  
HETATM   54  O   UNL     1     -10.208   8.873  72.078  1.00  0.00    -0.334 OA 
HETATM   55  C   UNL     1     -11.789   6.484  70.492  1.00  0.00    -0.393 C  
HETATM   56  C   UNL     1     -11.108   7.912  72.413  1.00  0.00    -0.333 C  
HETATM   57  C   UNL     1     -10.875   6.575  71.714  1.00  0.00    -0.238 C  
ENDBRANCH  49  51
ENDBRANCH  40  49
ENDBRANCH  38  40
ENDBRANCH   8  36
TORSDOF 11
ENDMDL
MODEL       58
REMARK 921   NORMALIZED FREE ENERGY PREDICTED BY IDOCK:   -3.19 KCAL/MOL
REMARK 922        TOTAL FREE ENERGY PREDICTED BY IDOCK:   -8.68 KCAL/MOL
REMARK 923 INTER-LIGAND FREE ENERGY PREDICTED BY IDOCK:   -8.40 KCAL/MOL
REMARK 924 INTRA-LIGAND FREE ENERGY PREDICTED BY IDOCK:   -0.28 KCAL/MOL
REMARK 927      BINDING AFFINITY PREDICTED BY RF-SCORE:    0.00 PKD
ROOT
HETATM    1  C   UNL     1      -5.644   9.786  68.915  1.00  0.00    -0.036 C  
HETATM    2  S   UNL     1      -6.840  10.318  70.150  1.00  0.00    -0.140 SA 
HETATM    3  C   UNL     1      -7.246   8.658  70.687  1.00  0.00    -0.058 C  
HETATM    4  C   UNL     1      -7.527   7.622  69.625  1.00  0.00    -0.091 C  
HETATM    5  CA  UNL     1      -6.912   7.674  68.402  1.00  0.00    -0.072 C  
HETATM    6  O   UNL     1      -5.983   9.125  65.688  1.00  0.00    -0.053 OA 
HETATM    7  C   UNL     1      -6.926   6.436  67.380  1.00  0.00    -0.075 C  
HETATM    8  CA  UNL     1      -5.515  10.696  67.659  1.00  0.00    -0.043 C  
HETATM    9  N   UNL     1      -6.191   8.784  68.045  1.00  0.00    -0.051 N  
HETATM   10  C   UNL     1      -5.874   9.385  66.878  1.00  0.00    -0.055 C  
HETATM   11  O   UNL     1      -5.834   6.265  66.769  1.00  0.00    -0.019 OA 
HETATM   12  OXT UNL     1      -7.917   5.656  67.480  1.00  0.00    -0.101 OA 
ENDROOT
BRANCH   4  13
HETATM   13  C   UNL     1      -8.469   6.468  69.967  1.00  0.00    -0.135 C  
BRANCH  13  14
HETATM   14  N   UNL     1      -9.661   6.658  71.020  1.00  0.00    -0.175 N  
HETATM   15  C   UNL     1      -8.575   6.395  73.149  1.00  0.00    -0.120 C  
HETATM   16  C   UNL     1      -9.986   5.234  71.585  1.00  0.00    -0.180 C  
HETATM   17  C   UNL     1      -9.537   5.243  73.042  1.00  0.00    -0.156 C  
HETATM   18  C   UNL     1      -9.201   7.437  72.242  1.00  0.00    -0.132 C  
BRANCH  14  19
HETATM   19  C   UNL     1     -10.876   7.170  70.174  1.00  0.00    -0.257 C  
BRANCH  19  20
HETATM   20  C   UNL     1     -10.839   8.663  69.752  1.00  0.00    -0.183 C  
BRANCH  20  21
HETATM   21  N   UNL     1     -10.457   8.986  68.362  1.00  0.00    -0.264 N  
HETATM   22  C   UNL     1     -10.448  10.252  67.810  1.00  0.00    -0.226 C  
HETATM   23  O   UNL     1     -10.554  11.243  68.521  1.00  0.00    -0.181 OA 
HETATM   24  H   UNL     1     -10.177   8.210  67.760  1.00  0.00     0.000 HD 
BRANCH  22  25
HETATM   25  C   UNL     1     -10.387  10.434  66.310  1.00  0.00    -0.270 A  
HETATM   26  C   UNL     1     -11.031  11.448  65.576  1.00  0.00    -0.183 A  
HETATM   27  C   UNL     1      -9.422   9.640  65.640  1.00  0.00    -0.318 A  
HETATM   28  H   UNL     1      -8.599  10.679  61.934  1.00  0.00     0.000 HD 
HETATM   29  C   UNL     1      -9.085   9.864  64.299  1.00  0.00    -0.297 A  
HETATM   30  O   UNL     1      -9.259  11.214  62.359  1.00  0.00    -0.309 OA 
HETATM   31  H   UNL     1     -10.893  12.906  62.608  1.00  0.00     0.000 HD 
HETATM   32  C   UNL     1     -10.660  11.685  64.239  1.00  0.00    -0.340 A  
HETATM   33 CL   UNL     1     -12.181  12.549  66.264  1.00  0.00    -0.307 Cl 
HETATM   34  C   UNL     1      -9.691  10.903  63.616  1.00  0.00    -0.329 A  
HETATM   35  O   UNL     1     -11.144  12.746  63.510  1.00  0.00    -0.433 OA 
ENDBRANCH  22  25
ENDBRANCH  20  21
ENDBRANCH  19  20
ENDBRANCH  14  19
ENDBRANCH  13  14
ENDBRANCH   4  13
BRANCH   8  36
HETATM   36  N   UNL     1      -6.470  11.862  67.550  1.00  0.00    -0.096 N  
HETATM   37  H   UNL     1      -7.342  11.732  67.035  1.00  0.00     0.000 HD 
HETATM   38  C   UNL     1      -6.214  13.099  68.118  1.00  0.00    -0.106 C  
HETATM   39  O   UNL     1      -5.316  13.374  68.898  1.00  0.00    -0.071 OA 
BRANCH  38  40
HETATM   40  C   UNL     1      -7.144  14.212  67.708  1.00  0.00    -0.174 C  
BRANCH  40  41
HETATM   41  C   UNL     1      -6.670  15.527  67.331  1.00  0.00    -0.166 A  
HETATM   42  H2  UNL     1      -6.898  19.363  65.572  1.00  0.00     0.000 HD 
HETATM   43  C   UNL     1      -6.905  17.498  66.402  1.00  0.00    -0.273 A  
HETATM   44  C   UNL     1      -5.774  16.247  68.107  1.00  0.00    -0.105 A  
HETATM   45  H1  UNL     1      -7.761  18.154  64.633  1.00  0.00     0.000 HD 
HETATM   46  S   UNL     1      -5.991  17.912  67.787  1.00  0.00    -0.155 SA 
HETATM   47  N   UNL     1      -7.216  18.401  65.459  1.00  0.00    -0.542 NA 
HETATM   48  N   UNL     1      -7.243  16.242  66.296  1.00  0.00    -0.000 NA 
ENDBRANCH  40  41
BRANCH  40  49
HETATM   49  N   UNL     1      -8.427  14.106  67.553  1.00  0.00    -0.175 NA 
HETATM   50  H   UNL     1      -8.878  13.200  67.430  1.00  0.00     0.000 HD 
BRANCH  49  51
HETATM   51  O   UNL     1      -9.154  15.284  67.563  1.00  0.00    -0.180 OA 
HETATM   52  O   UNL     1     -10.767  17.347  69.926  1.00  0.00     0.069 OA 
HETATM   53  C   UNL     1      -8.736  15.298  69.997  1.00  0.00     0.351 C  
HETATM   54  O   UNL     1     -10.666  17.299  67.671  1.00  0.00    -0.359 OA 
HETATM   55  C   UNL     1     -10.848  14.311  69.000  1.00  0.00    -0.274 C  
HETATM   56  C   UNL     1     -10.442  16.765  68.901  1.00  0.00    -0.332 C  
HETATM   57  C   UNL     1      -9.775  15.392  68.866  1.00  0.00    -0.220 C  
ENDBRANCH  49  51
ENDBRANCH  40  49
ENDBRANCH  38  40
ENDBRANCH   8  36
TORSDOF 11
ENDMDL
MODEL       59
REMARK 921   NORMALIZED FREE ENERGY PREDICTED BY IDOCK:   -3.18 KCAL/MOL
REMARK 922        TOTAL FREE ENERGY PREDICTED BY IDOCK:   -8.65 KCAL/MOL
REMARK 923 INTER-LIGAND FREE ENERGY PREDICTED BY IDOCK:   -7.34 KCAL/MOL
REMARK 924 INTRA-LIGAND FREE ENERGY PREDICTED BY IDOCK:   -1.31 KCAL/MOL
REMARK 927      BINDING AFFINITY PREDICTED BY RF-SCORE:    0.00 PKD
ROOT
HETATM    1  C   UNL     1      -9.385   7.665  65.981  1.00  0.00    -0.013 C  
HETATM    2  S   UNL     1     -10.045   8.632  67.347  1.00  0.00    -0.251 SA 
HETATM    3  C   UNL     1     -10.761   9.897  66.301  1.00  0.00     0.083 C  
HETATM    4  C   UNL     1      -9.906  10.466  65.195  1.00  0.00    -0.378 C  
HETATM    5  CA  UNL     1      -8.953   9.704  64.570  1.00  0.00    -0.235 C  
HETATM    6  O   UNL     1      -6.426   7.719  64.495  1.00  0.00    -0.048 OA 
HETATM    7  C   UNL     1      -8.260  10.154  63.194  1.00  0.00    -0.160 C  
HETATM    8  CA  UNL     1      -8.071   6.883  66.274  1.00  0.00    -0.112 C  
HETATM    9  N   UNL     1      -8.616   8.477  65.080  1.00  0.00    -0.166 N  
HETATM   10  C   UNL     1      -7.508   7.705  65.063  1.00  0.00    -0.090 C  
HETATM   11  O   UNL     1      -8.071   9.205  62.383  1.00  0.00    -0.125 OA 
HETATM   12  OXT UNL     1      -8.205  11.401  62.992  1.00  0.00     0.194 OA 
ENDROOT
BRANCH   4  13
HETATM   13  C   UNL     1     -10.169  11.901  64.737  1.00  0.00    -0.276 C  
BRANCH  13  14
HETATM   14  N   UNL     1     -10.780  12.990  65.741  1.00  0.00    -0.271 N  
HETATM   15  C   UNL     1     -12.621  13.918  64.504  1.00  0.00    -0.246 C  
HETATM   16  C   UNL     1     -10.362  14.391  65.182  1.00  0.00    -0.421 C  
HETATM   17  C   UNL     1     -11.644  15.049  64.684  1.00  0.00    -0.386 C  
HETATM   18  C   UNL     1     -12.299  13.010  65.675  1.00  0.00    -0.446 C  
BRANCH  14  19
HETATM   19  C   UNL     1     -10.055  12.739  67.107  1.00  0.00    -0.234 C  
BRANCH  19  20
HETATM   20  C   UNL     1     -10.960  12.701  68.368  1.00  0.00    -0.257 C  
BRANCH  20  21
HETATM   21  N   UNL     1     -11.487  11.394  68.810  1.00  0.00    -0.260 N  
HETATM   22  C   UNL     1     -12.001  11.123  70.063  1.00  0.00    -0.367 C  
HETATM   23  O   UNL     1     -12.256  12.032  70.843  1.00  0.00    -0.352 OA 
HETATM   24  H   UNL     1     -11.472  10.629  68.134  1.00  0.00     0.000 HD 
BRANCH  22  25
HETATM   25  C   UNL     1     -12.183   9.695  70.524  1.00  0.00    -0.153 A  
HETATM   26  C   UNL     1     -11.148   8.777  70.786  1.00  0.00    -0.260 A  
HETATM   27  C   UNL     1     -13.497   9.347  70.925  1.00  0.00    -0.055 A  
HETATM   28  H   UNL     1     -13.858   5.983  72.937  1.00  0.00     0.000 HD 
HETATM   29  C   UNL     1     -13.771   8.145  71.593  1.00  0.00    -0.403 A  
HETATM   30  O   UNL     1     -12.972   6.189  72.663  1.00  0.00     0.214 OA 
HETATM   31  H   UNL     1     -10.640   5.915  72.372  1.00  0.00     0.000 HD 
HETATM   32  C   UNL     1     -11.430   7.588  71.486  1.00  0.00    -0.265 A  
HETATM   33 CL   UNL     1      -9.480   9.079  70.423  1.00  0.00    -0.223 Cl 
HETATM   34  C   UNL     1     -12.729   7.286  71.888  1.00  0.00    -0.277 A  
HETATM   35  O   UNL     1     -10.449   6.717  71.899  1.00  0.00    -0.200 OA 
ENDBRANCH  22  25
ENDBRANCH  20  21
ENDBRANCH  19  20
ENDBRANCH  14  19
ENDBRANCH  13  14
ENDBRANCH   4  13
BRANCH   8  36
HETATM   36  N   UNL     1      -7.428   7.096  67.625  1.00  0.00    -0.099 N  
HETATM   37  H   UNL     1      -7.905   7.687  68.305  1.00  0.00     0.000 HD 
HETATM   38  C   UNL     1      -6.218   6.521  67.979  1.00  0.00    -0.032 C  
HETATM   39  O   UNL     1      -5.606   5.665  67.362  1.00  0.00    -0.011 OA 
BRANCH  38  40
HETATM   40  C   UNL     1      -5.603   7.030  69.257  1.00  0.00    -0.015 C  
BRANCH  40  41
HETATM   41  C   UNL     1      -5.286   8.427  69.469  1.00  0.00    -0.030 A  
HETATM   42  H2  UNL     1      -5.172  12.551  68.549  1.00  0.00     0.000 HD 
HETATM   43  C   UNL     1      -5.300  10.543  68.901  1.00  0.00    -0.041 A  
HETATM   44  C   UNL     1      -5.238   8.997  70.733  1.00  0.00    -0.027 A  
HETATM   45  H1  UNL     1      -4.992  11.549  67.116  1.00  0.00     0.000 HD 
HETATM   46  S   UNL     1      -5.552  10.672  70.588  1.00  0.00    -0.108 SA 
HETATM   47  N   UNL     1      -5.141  11.625  68.122  1.00  0.00    -0.043 NA 
HETATM   48  N   UNL     1      -5.229   9.331  68.425  1.00  0.00    -0.034 NA 
ENDBRANCH  40  41
BRANCH  40  49
HETATM   49  N   UNL     1      -5.379   6.325  70.322  1.00  0.00    -0.013 NA 
HETATM   50  H   UNL     1      -4.683   5.580  70.334  1.00  0.00     0.000 HD 
BRANCH  49  51
HETATM   51  O   UNL     1      -6.132   6.633  71.443  1.00  0.00    -0.036 OA 
HETATM   52  O   UNL     1      -7.538   4.942  74.200  1.00  0.00    -0.091 OA 
HETATM   53  C   UNL     1      -5.459   4.406  72.272  1.00  0.00    -0.004 C  
HETATM   54  O   UNL     1      -7.675   7.046  73.393  1.00  0.00    -0.086 OA 
HETATM   55  C   UNL     1      -7.639   4.779  71.030  1.00  0.00    -0.076 C  
HETATM   56  C   UNL     1      -7.308   5.741  73.302  1.00  0.00    -0.094 C  
HETATM   57  C   UNL     1      -6.614   5.384  71.990  1.00  0.00    -0.056 C  
ENDBRANCH  49  51
ENDBRANCH  40  49
ENDBRANCH  38  40
ENDBRANCH   8  36
TORSDOF 11
ENDMDL
MODEL       60
REMARK 921   NORMALIZED FREE ENERGY PREDICTED BY IDOCK:   -3.15 KCAL/MOL
REMARK 922        TOTAL FREE ENERGY PREDICTED BY IDOCK:   -8.60 KCAL/MOL
REMARK 923 INTER-LIGAND FREE ENERGY PREDICTED BY IDOCK:   -7.57 KCAL/MOL
REMARK 924 INTRA-LIGAND FREE ENERGY PREDICTED BY IDOCK:   -1.03 KCAL/MOL
REMARK 927      BINDING AFFINITY PREDICTED BY RF-SCORE:    0.00 PKD
ROOT
HETATM    1  C   UNL     1     -11.340   9.622  68.672  1.00  0.00     0.157 C  
HETATM    2  S   UNL     1      -9.605   9.368  68.268  1.00  0.00    -0.144 SA 
HETATM    3  C   UNL     1      -9.583   7.653  68.783  1.00  0.00    -0.153 C  
HETATM    4  C   UNL     1     -10.204   7.308  70.116  1.00  0.00    -0.209 C  
HETATM    5  CA  UNL     1     -11.262   8.023  70.613  1.00  0.00    -0.261 C  
HETATM    6  O   UNL     1     -12.804  10.722  71.431  1.00  0.00    -0.388 OA 
HETATM    7  C   UNL     1     -12.149   7.500  71.843  1.00  0.00    -0.305 C  
HETATM    8  CA  UNL     1     -11.728  11.059  69.129  1.00  0.00    -0.333 C  
HETATM    9  N   UNL     1     -11.642   9.193  70.008  1.00  0.00    -0.033 N  
HETATM   10  C   UNL     1     -12.246  10.329  70.417  1.00  0.00    -0.261 C  
HETATM   11  O   UNL     1     -13.384   7.730  71.718  1.00  0.00    -0.332 OA 
HETATM   12  OXT UNL     1     -11.559   6.731  72.656  1.00  0.00    -0.232 OA 
ENDROOT
BRANCH   4  13
HETATM   13  C   UNL     1      -9.665   6.097  70.876  1.00  0.00    -0.177 C  
BRANCH  13  14
HETATM   14  N   UNL     1      -8.273   6.167  71.666  1.00  0.00    -0.117 N  
HETATM   15  C   UNL     1      -7.740   8.511  71.651  1.00  0.00    -0.150 C  
HETATM   16  C   UNL     1      -7.166   6.430  70.591  1.00  0.00    -0.074 C  
HETATM   17  C   UNL     1      -6.661   7.847  70.840  1.00  0.00    -0.037 C  
HETATM   18  C   UNL     1      -8.208   7.394  72.562  1.00  0.00    -0.105 C  
BRANCH  14  19
HETATM   19  C   UNL     1      -8.076   4.737  72.275  1.00  0.00    -0.107 C  
BRANCH  19  20
HETATM   20  C   UNL     1      -8.905   3.594  71.631  1.00  0.00    -0.099 C  
BRANCH  20  21
HETATM   21  N   UNL     1      -8.984   3.536  70.157  1.00  0.00    -0.095 N  
HETATM   22  C   UNL     1      -8.316   2.630  69.356  1.00  0.00    -0.055 C  
HETATM   23  O   UNL     1      -7.765   1.652  69.847  1.00  0.00    -0.042 OA 
HETATM   24  H   UNL     1      -9.582   4.220  69.692  1.00  0.00     0.000 HD 
BRANCH  22  25
HETATM   25  C   UNL     1      -8.185   2.872  67.870  1.00  0.00    -0.088 A  
HETATM   26  C   UNL     1      -6.977   2.949  67.151  1.00  0.00    -0.049 A  
HETATM   27  C   UNL     1      -9.393   2.793  67.132  1.00  0.00    -0.130 A  
HETATM   28  H   UNL     1      -9.017   2.530  63.222  1.00  0.00     0.000 HD 
HETATM   29  C   UNL     1      -9.401   2.758  65.731  1.00  0.00    -0.037 A  
HETATM   30  O   UNL     1      -8.197   2.598  63.697  1.00  0.00    -0.080 OA 
HETATM   31  H   UNL     1      -5.861   2.760  64.040  1.00  0.00     0.000 HD 
HETATM   32  C   UNL     1      -6.995   2.880  65.745  1.00  0.00    -0.053 A  
HETATM   33 CL   UNL     1      -5.413   2.980  67.900  1.00  0.00    -0.017 Cl 
HETATM   34  C   UNL     1      -8.197   2.779  65.049  1.00  0.00    -0.087 A  
HETATM   35  O   UNL     1      -5.849   2.807  64.989  1.00  0.00    -0.017 OA 
ENDBRANCH  22  25
ENDBRANCH  20  21
ENDBRANCH  19  20
ENDBRANCH  14  19
ENDBRANCH  13  14
ENDBRANCH   4  13
BRANCH   8  36
HETATM   36  N   UNL     1     -10.606  12.058  69.292  1.00  0.00    -0.442 N  
HETATM   37  H   UNL     1     -10.198  12.187  70.217  1.00  0.00     0.000 HD 
HETATM   38  C   UNL     1     -10.108  12.806  68.237  1.00  0.00    -0.237 C  
HETATM   39  O   UNL     1     -10.359  12.658  67.052  1.00  0.00    -0.230 OA 
BRANCH  38  40
HETATM   40  C   UNL     1      -9.169  13.923  68.615  1.00  0.00    -0.094 C  
BRANCH  40  41
HETATM   41  C   UNL     1      -7.785  13.956  68.194  1.00  0.00    -0.142 A  
HETATM   42  H2  UNL     1      -4.130  15.748  67.054  1.00  0.00     0.000 HD 
HETATM   43  C   UNL     1      -5.935  14.990  67.635  1.00  0.00    -0.066 A  
HETATM   44  C   UNL     1      -6.866  12.991  68.576  1.00  0.00    -0.095 A  
HETATM   45  H1  UNL     1      -5.519  16.650  66.466  1.00  0.00     0.000 HD 
HETATM   46  S   UNL     1      -5.301  13.679  68.531  1.00  0.00    -0.096 SA 
HETATM   47  N   UNL     1      -5.142  15.867  67.000  1.00  0.00    -0.303 NA 
HETATM   48  N   UNL     1      -7.236  15.062  67.571  1.00  0.00    -0.190 NA 
ENDBRANCH  40  41
BRANCH  40  49
HETATM   49  N   UNL     1      -9.496  15.001  69.258  1.00  0.00    -0.339 NA 
HETATM   50  H   UNL     1      -9.130  15.915  68.992  1.00  0.00     0.000 HD 
BRANCH  49  51
HETATM   51  O   UNL     1     -10.367  14.850  70.324  1.00  0.00    -0.038 OA 
HETATM   52  O   UNL     1     -13.674  15.752  71.153  1.00  0.00    -0.560 OA 
HETATM   53  C   UNL     1     -12.134  15.501  68.726  1.00  0.00    -0.166 C  
HETATM   54  O   UNL     1     -11.955  14.819  72.281  1.00  0.00    -0.321 OA 
HETATM   55  C   UNL     1     -10.995  17.190  70.236  1.00  0.00     0.624 C  
HETATM   56  C   UNL     1     -12.490  15.450  71.202  1.00  0.00    -0.402 C  
HETATM   57  C   UNL     1     -11.480  15.746  70.097  1.00  0.00    -0.361 C  
ENDBRANCH  49  51
ENDBRANCH  40  49
ENDBRANCH  38  40
ENDBRANCH   8  36
TORSDOF 11
ENDMDL
MODEL       61
REMARK 921   NORMALIZED FREE ENERGY PREDICTED BY IDOCK:   -3.07 KCAL/MOL
REMARK 922        TOTAL FREE ENERGY PREDICTED BY IDOCK:   -8.48 KCAL/MOL
REMARK 923 INTER-LIGAND FREE ENERGY PREDICTED BY IDOCK:   -7.69 KCAL/MOL
REMARK 924 INTRA-LIGAND FREE ENERGY PREDICTED BY IDOCK:   -0.78 KCAL/MOL
REMARK 927      BINDING AFFINITY PREDICTED BY RF-SCORE:    0.00 PKD
ROOT
HETATM    1  C   UNL     1      -8.918  10.450  69.588  1.00  0.00    -0.037 C  
HETATM    2  S   UNL     1     -10.175  10.092  68.351  1.00  0.00    -0.179 SA 
HETATM    3  C   UNL     1      -9.660   8.395  68.103  1.00  0.00    -0.143 C  
HETATM    4  C   UNL     1      -8.186   8.124  67.919  1.00  0.00    -0.129 C  
HETATM    5  CA  UNL     1      -7.238   8.908  68.522  1.00  0.00    -0.073 C  
HETATM    6  O   UNL     1      -5.869  11.709  69.304  1.00  0.00    -0.053 OA 
HETATM    7  C   UNL     1      -5.698   8.470  68.622  1.00  0.00    -0.037 C  
HETATM    8  CA  UNL     1      -8.403  11.918  69.628  1.00  0.00     1.400 C  
HETATM    9  N   UNL     1      -7.607  10.077  69.135  1.00  0.00    -0.087 N  
HETATM   10  C   UNL     1      -7.001  11.256  69.391  1.00  0.00    -0.109 C  
HETATM   11  O   UNL     1      -5.153   8.762  69.723  1.00  0.00    -0.029 OA 
HETATM   12  OXT UNL     1      -5.289   7.696  67.709  1.00  0.00    -0.028 OA 
ENDROOT
BRANCH   4  13
HETATM   13  C   UNL     1      -7.769   6.909  67.090  1.00  0.00    -0.108 C  
BRANCH  13  14
HETATM   14  N   UNL     1      -8.221   6.756  65.561  1.00  0.00    -0.128 N  
HETATM   15  C   UNL     1      -6.868   8.377  64.412  1.00  0.00    -0.069 C  
HETATM   16  C   UNL     1      -9.099   8.009  65.229  1.00  0.00     0.250 C  
HETATM   17  C   UNL     1      -8.287   8.850  64.251  1.00  0.00    -0.176 C  
HETATM   18  C   UNL     1      -7.035   6.884  64.618  1.00  0.00    -0.058 C  
BRANCH  14  19
HETATM   19  C   UNL     1      -9.116   5.470  65.526  1.00  0.00    -0.091 C  
BRANCH  19  20
HETATM   20  C   UNL     1     -10.279   5.414  66.552  1.00  0.00    -0.245 C  
BRANCH  20  21
HETATM   21  N   UNL     1     -10.047   4.714  67.832  1.00  0.00    -0.073 N  
HETATM   22  C   UNL     1     -10.483   5.147  69.070  1.00  0.00    -0.079 C  
HETATM   23  O   UNL     1     -11.298   6.055  69.161  1.00  0.00    -0.364 OA 
HETATM   24  H   UNL     1      -9.521   3.839  67.800  1.00  0.00     0.000 HD 
BRANCH  22  25
HETATM   25  C   UNL     1      -9.901   4.558  70.335  1.00  0.00    -0.302 A  
HETATM   26  C   UNL     1     -10.129   5.029  71.642  1.00  0.00    -0.196 A  
HETATM   27  C   UNL     1      -9.257   3.305  70.184  1.00  0.00    -0.226 A  
HETATM   28  H   UNL     1      -8.518   1.328  73.506  1.00  0.00     0.000 HD 
HETATM   29  C   UNL     1      -8.881   2.530  71.290  1.00  0.00    -0.130 A  
HETATM   30  O   UNL     1      -8.935   2.172  73.631  1.00  0.00    -0.065 OA 
HETATM   31  H   UNL     1      -9.862   4.019  74.783  1.00  0.00     0.000 HD 
HETATM   32  C   UNL     1      -9.777   4.227  72.744  1.00  0.00    -0.135 A  
HETATM   33 CL   UNL     1     -10.965   6.506  72.000  1.00  0.00    -0.269 Cl 
HETATM   34  C   UNL     1      -9.167   2.989  72.562  1.00  0.00    -0.097 A  
HETATM   35  O   UNL     1     -10.099   4.560  74.040  1.00  0.00    -0.153 OA 
ENDBRANCH  22  25
ENDBRANCH  20  21
ENDBRANCH  19  20
ENDBRANCH  14  19
ENDBRANCH  13  14
ENDBRANCH   4  13
BRANCH   8  36
HETATM   36  N   UNL     1      -8.921  12.861  68.567  1.00  0.00    -0.368 N  
HETATM   37  H   UNL     1      -9.693  13.485  68.802  1.00  0.00     0.000 HD 
HETATM   38  C   UNL     1      -8.393  12.914  67.286  1.00  0.00    -0.185 C  
HETATM   39  O   UNL     1      -7.376  12.369  66.892  1.00  0.00    -0.066 OA 
BRANCH  38  40
HETATM   40  C   UNL     1      -9.181  13.723  66.289  1.00  0.00    -0.071 C  
BRANCH  40  41
HETATM   41  C   UNL     1     -10.230  13.150  65.472  1.00  0.00    -0.287 A  
HETATM   42  H2  UNL     1     -13.143  13.074  62.410  1.00  0.00     0.000 HD 
HETATM   43  C   UNL     1     -11.697  13.214  63.846  1.00  0.00    -0.456 A  
HETATM   44  C   UNL     1     -10.282  11.799  65.166  1.00  0.00    -0.268 A  
HETATM   45  H1  UNL     1     -13.033  14.651  63.178  1.00  0.00     0.000 HD 
HETATM   46  S   UNL     1     -11.140  11.604  63.700  1.00  0.00    -0.391 SA 
HETATM   47  N   UNL     1     -12.700  13.691  63.091  1.00  0.00    -0.537 NA 
HETATM   48  N   UNL     1     -11.118  13.938  64.764  1.00  0.00    -0.365 NA 
ENDBRANCH  40  41
BRANCH  40  49
HETATM   49  N   UNL     1      -9.088  15.005  66.113  1.00  0.00    -0.463 NA 
HETATM   50  H   UNL     1      -8.623  15.400  65.295  1.00  0.00     0.000 HD 
BRANCH  49  51
HETATM   51  O   UNL     1      -9.649  15.810  67.089  1.00  0.00    -0.215 OA 
HETATM   52  O   UNL     1     -10.994  19.060  67.348  1.00  0.00    -0.459 OA 
HETATM   53  C   UNL     1     -10.452  17.199  65.211  1.00  0.00    -0.003 C  
HETATM   54  O   UNL     1     -10.487  17.432  68.827  1.00  0.00    -0.348 OA 
HETATM   55  C   UNL     1      -8.280  17.697  66.422  1.00  0.00    -0.298 C  
HETATM   56  C   UNL     1     -10.461  17.985  67.587  1.00  0.00    -0.409 C  
HETATM   57  C   UNL     1      -9.704  17.154  66.554  1.00  0.00    -0.287 C  
ENDBRANCH  49  51
ENDBRANCH  40  49
ENDBRANCH  38  40
ENDBRANCH   8  36
TORSDOF 11
ENDMDL
MODEL       62
REMARK 921   NORMALIZED FREE ENERGY PREDICTED BY IDOCK:   -2.80 KCAL/MOL
REMARK 922        TOTAL FREE ENERGY PREDICTED BY IDOCK:   -8.02 KCAL/MOL
REMARK 923 INTER-LIGAND FREE ENERGY PREDICTED BY IDOCK:   -6.63 KCAL/MOL
REMARK 924 INTRA-LIGAND FREE ENERGY PREDICTED BY IDOCK:   -1.39 KCAL/MOL
REMARK 927      BINDING AFFINITY PREDICTED BY RF-SCORE:    0.00 PKD
ROOT
HETATM    1  C   UNL     1     -11.532   9.753  68.632  1.00  0.00     0.198 C  
HETATM    2  S   UNL     1      -9.919   9.594  67.852  1.00  0.00    -0.175 SA 
HETATM    3  C   UNL     1      -9.642   7.920  68.425  1.00  0.00    -0.150 C  
HETATM    4  C   UNL     1      -9.915   7.616  69.878  1.00  0.00    -0.190 C  
HETATM    5  CA  UNL     1     -10.888   8.286  70.573  1.00  0.00    -0.232 C  
HETATM    6  O   UNL     1     -12.418  10.919  71.602  1.00  0.00    -0.335 OA 
HETATM    7  C   UNL     1     -11.429   7.780  71.997  1.00  0.00    -0.289 C  
HETATM    8  CA  UNL     1     -11.922  11.185  69.102  1.00  0.00    -0.343 C  
HETATM    9  N   UNL     1     -11.488   9.387  70.020  1.00  0.00    -0.143 N  
HETATM   10  C   UNL     1     -12.074  10.503  70.506  1.00  0.00    -0.345 C  
HETATM   11  O   UNL     1     -12.675   7.917  72.149  1.00  0.00    -0.290 OA 
HETATM   12  OXT UNL     1     -10.609   7.106  72.685  1.00  0.00    -0.223 OA 
ENDROOT
BRANCH   4  13
HETATM   13  C   UNL     1      -9.122   6.494  70.548  1.00  0.00    -0.152 C  
BRANCH  13  14
HETATM   14  N   UNL     1      -7.610   6.720  71.024  1.00  0.00    -0.084 N  
HETATM   15  C   UNL     1      -7.270   9.078  70.706  1.00  0.00    -0.098 C  
HETATM   16  C   UNL     1      -6.763   6.941  69.726  1.00  0.00    -0.049 C  
HETATM   17  C   UNL     1      -6.327   8.402  69.747  1.00  0.00    -0.035 C  
HETATM   18  C   UNL     1      -7.460   8.029  71.783  1.00  0.00    -0.081 C  
BRANCH  14  19
HETATM   19  C   UNL     1      -7.187   5.369  71.696  1.00  0.00    -0.084 C  
BRANCH  19  20
HETATM   20  C   UNL     1      -7.735   4.074  71.041  1.00  0.00    -0.055 C  
BRANCH  20  21
HETATM   21  N   UNL     1      -7.914   4.055  69.574  1.00  0.00    -0.056 N  
HETATM   22  C   UNL     1      -7.646   2.978  68.751  1.00  0.00    -0.048 C  
HETATM   23  O   UNL     1      -7.441   1.868  69.223  1.00  0.00    -0.043 OA 
HETATM   24  H   UNL     1      -8.264   4.907  69.134  1.00  0.00     0.000 HD 
BRANCH  22  25
HETATM   25  C   UNL     1      -7.525   3.169  67.256  1.00  0.00    -0.062 A  
HETATM   26  C   UNL     1      -8.437   3.864  66.438  1.00  0.00    -0.109 A  
HETATM   27  C   UNL     1      -6.278   2.800  66.694  1.00  0.00    -0.024 A  
HETATM   28  H   UNL     1      -5.583   4.073  63.035  1.00  0.00     0.000 HD 
HETATM   29  C   UNL     1      -5.933   3.135  65.378  1.00  0.00    -0.019 A  
HETATM   30  O   UNL     1      -6.431   4.317  63.387  1.00  0.00    -0.028 OA 
HETATM   31  H   UNL     1      -8.598   5.265  63.444  1.00  0.00     0.000 HD 
HETATM   32  C   UNL     1      -8.066   4.224  65.129  1.00  0.00    -0.101 A  
HETATM   33 CL   UNL     1      -9.973   4.448  66.992  1.00  0.00    -0.224 Cl 
HETATM   34  C   UNL     1      -6.823   3.866  64.613  1.00  0.00    -0.049 A  
HETATM   35  O   UNL     1      -8.848   5.022  64.327  1.00  0.00    -0.139 OA 
ENDBRANCH  22  25
ENDBRANCH  20  21
ENDBRANCH  19  20
ENDBRANCH  14  19
ENDBRANCH  13  14
ENDBRANCH   4  13
BRANCH   8  36
HETATM   36  N   UNL     1     -10.876  12.267  68.957  1.00  0.00    -0.358 N  
HETATM   37  H   UNL     1     -10.263  12.462  69.749  1.00  0.00     0.000 HD 
HETATM   38  C   UNL     1     -10.715  13.005  67.795  1.00  0.00    -0.229 C  
HETATM   39  O   UNL     1     -11.239  12.791  66.714  1.00  0.00    -0.271 OA 
BRANCH  38  40
HETATM   40  C   UNL     1      -9.803  14.200  67.902  1.00  0.00    -0.224 C  
BRANCH  40  41
HETATM   41  C   UNL     1     -10.300  15.558  67.971  1.00  0.00    -0.247 A  
HETATM   42  H2  UNL     1     -10.264  19.640  69.068  1.00  0.00     0.000 HD 
HETATM   43  C   UNL     1     -10.170  17.659  68.578  1.00  0.00    -0.386 A  
HETATM   44  C   UNL     1     -11.047  16.130  66.953  1.00  0.00     0.011 A  
HETATM   45  H1  UNL     1      -9.587  18.612  70.323  1.00  0.00     0.000 HD 
HETATM   46  S   UNL     1     -10.846  17.827  67.016  1.00  0.00     0.043 SA 
HETATM   47  N   UNL     1      -9.990  18.712  69.392  1.00  0.00    -0.084 NA 
HETATM   48  N   UNL     1      -9.880  16.442  68.947  1.00  0.00    -0.249 NA 
ENDBRANCH  40  41
BRANCH  40  49
HETATM   49  N   UNL     1      -8.514  14.158  68.039  1.00  0.00    -0.160 NA 
HETATM   50  H   UNL     1      -8.006  14.883  68.545  1.00  0.00     0.000 HD 
BRANCH  49  51
HETATM   51  O   UNL     1      -7.862  13.081  67.464  1.00  0.00    -0.156 OA 
HETATM   52  O   UNL     1      -5.148  10.958  68.217  1.00  0.00    -0.037 OA 
HETATM   53  C   UNL     1      -6.874  12.731  69.701  1.00  0.00     0.178 C  
HETATM   54  O   UNL     1      -6.472  11.259  66.413  1.00  0.00    -0.132 OA 
HETATM   55  C   UNL     1      -5.691  14.070  67.901  1.00  0.00    -0.116 C  
HETATM   56  C   UNL     1      -6.002  11.615  67.638  1.00  0.00    -0.064 C  
HETATM   57  C   UNL     1      -6.625  12.894  68.191  1.00  0.00    -0.093 C  
ENDBRANCH  49  51
ENDBRANCH  40  49
ENDBRANCH  38  40
ENDBRANCH   8  36
TORSDOF 11
ENDMDL
MODEL       63
REMARK 921   NORMALIZED FREE ENERGY PREDICTED BY IDOCK:   -2.76 KCAL/MOL
REMARK 922        TOTAL FREE ENERGY PREDICTED BY IDOCK:   -7.97 KCAL/MOL
REMARK 923 INTER-LIGAND FREE ENERGY PREDICTED BY IDOCK:   -7.42 KCAL/MOL
REMARK 924 INTRA-LIGAND FREE ENERGY PREDICTED BY IDOCK:   -0.54 KCAL/MOL
REMARK 927      BINDING AFFINITY PREDICTED BY RF-SCORE:    0.00 PKD
ROOT
HETATM    1  C   UNL     1      -6.891  10.860  66.589  1.00  0.00    -0.127 C  
HETATM    2  S   UNL     1      -8.501  10.062  66.669  1.00  0.00    -0.126 SA 
HETATM    3  C   UNL     1      -9.411  11.510  66.140  1.00  0.00    -0.215 C  
HETATM    4  C   UNL     1      -9.084  12.829  66.798  1.00  0.00    -0.209 C  
HETATM    5  CA  UNL     1      -7.820  13.103  67.250  1.00  0.00    -0.117 C  
HETATM    6  O   UNL     1      -5.130  12.463  68.889  1.00  0.00    -0.055 OA 
HETATM    7  C   UNL     1      -7.353  14.586  67.650  1.00  0.00    -0.183 C  
HETATM    8  CA  UNL     1      -5.831  10.355  67.611  1.00  0.00    -0.044 C  
HETATM    9  N   UNL     1      -6.880  12.106  67.302  1.00  0.00    -0.149 N  
HETATM   10  C   UNL     1      -5.788  11.858  68.056  1.00  0.00    -0.048 C  
HETATM   11  O   UNL     1      -6.173  14.863  67.299  1.00  0.00    -0.311 OA 
HETATM   12  OXT UNL     1      -8.272  15.361  68.044  1.00  0.00    -0.139 OA 
ENDROOT
BRANCH   4  13
HETATM   13  C   UNL     1     -10.184  13.886  66.894  1.00  0.00    -0.257 C  
BRANCH  13  14
HETATM   14  N   UNL     1     -11.640  13.623  66.278  1.00  0.00    -0.334 N  
HETATM   15  C   UNL     1     -11.266  13.705  63.905  1.00  0.00    -0.067 C  
HETATM   16  C   UNL     1     -12.146  15.000  65.731  1.00  0.00     0.130 C  
HETATM   17  C   UNL     1     -12.167  14.871  64.212  1.00  0.00    -0.365 C  
HETATM   18  C   UNL     1     -11.565  12.745  65.040  1.00  0.00    -0.337 C  
BRANCH  14  19
HETATM   19  C   UNL     1     -12.526  13.191  67.496  1.00  0.00     0.332 C  
BRANCH  19  20
HETATM   20  C   UNL     1     -11.768  12.736  68.771  1.00  0.00    -0.323 C  
BRANCH  20  21
HETATM   21  N   UNL     1     -11.841  11.312  69.156  1.00  0.00    -0.332 N  
HETATM   22  C   UNL     1     -12.177  10.839  70.410  1.00  0.00    -0.349 C  
HETATM   23  O   UNL     1     -12.659  11.588  71.250  1.00  0.00    -0.383 OA 
HETATM   24  H   UNL     1     -11.626  10.620  68.436  1.00  0.00     0.000 HD 
BRANCH  22  25
HETATM   25  C   UNL     1     -11.883   9.406  70.792  1.00  0.00    -0.323 A  
HETATM   26  C   UNL     1     -10.604   8.853  70.987  1.00  0.00    -0.247 A  
HETATM   27  C   UNL     1     -13.006   8.640  71.193  1.00  0.00    -0.095 A  
HETATM   28  H   UNL     1     -12.220   5.243  73.019  1.00  0.00     0.000 HD 
HETATM   29  C   UNL     1     -12.865   7.383  71.796  1.00  0.00    -0.365 A  
HETATM   30  O   UNL     1     -11.454   5.733  72.744  1.00  0.00    -0.290 OA 
HETATM   31  H   UNL     1      -9.166   6.228  72.402  1.00  0.00     0.000 HD 
HETATM   32  C   UNL     1     -10.473   7.604  71.624  1.00  0.00    -0.197 A  
HETATM   33 CL   UNL     1      -9.129   9.686  70.616  1.00  0.00    -0.223 Cl 
HETATM   34  C   UNL     1     -11.596   6.886  72.028  1.00  0.00    -0.285 A  
HETATM   35  O   UNL     1      -9.254   7.070  71.972  1.00  0.00    -0.140 OA 
ENDBRANCH  22  25
ENDBRANCH  20  21
ENDBRANCH  19  20
ENDBRANCH  14  19
ENDBRANCH  13  14
ENDBRANCH   4  13
BRANCH   8  36
HETATM   36  N   UNL     1      -6.284   9.335  68.629  1.00  0.00    -0.045 N  
HETATM   37  H   UNL     1      -6.519   9.654  69.569  1.00  0.00     0.000 HD 
HETATM   38  C   UNL     1      -6.395   7.984  68.340  1.00  0.00    -0.050 C  
HETATM   39  O   UNL     1      -6.319   7.463  67.240  1.00  0.00    -0.051 OA 
BRANCH  38  40
HETATM   40  C   UNL     1      -6.619   7.079  69.525  1.00  0.00    -0.045 C  
BRANCH  40  41
HETATM   41  C   UNL     1      -6.094   7.373  70.841  1.00  0.00    -0.035 A  
HETATM   42  H2  UNL     1      -5.374   9.717  74.284  1.00  0.00     0.000 HD 
HETATM   43  C   UNL     1      -5.798   8.668  72.584  1.00  0.00    -0.079 A  
HETATM   44  C   UNL     1      -5.949   6.400  71.819  1.00  0.00    -0.037 A  
HETATM   45  H1  UNL     1      -5.360  10.680  72.815  1.00  0.00     0.000 HD 
HETATM   46  S   UNL     1      -6.010   7.155  73.353  1.00  0.00    -0.057 SA 
HETATM   47  N   UNL     1      -5.487   9.778  73.272  1.00  0.00    -0.318 NA 
HETATM   48  N   UNL     1      -5.914   8.670  71.285  1.00  0.00    -0.039 NA 
ENDBRANCH  40  41
BRANCH  40  49
HETATM   49  N   UNL     1      -7.362   6.017  69.535  1.00  0.00    -0.074 NA 
HETATM   50  H   UNL     1      -8.144   5.904  68.890  1.00  0.00     0.000 HD 
BRANCH  49  51
HETATM   51  O   UNL     1      -7.042   5.042  70.464  1.00  0.00    -0.049 OA 
HETATM   52  O   UNL     1      -6.948   1.520  70.640  1.00  0.00    -0.031 OA 
HETATM   53  C   UNL     1      -6.976   3.497  68.538  1.00  0.00    -0.050 C  
HETATM   54  O   UNL     1      -6.691   3.190  72.138  1.00  0.00    -0.015 OA 
HETATM   55  C   UNL     1      -9.058   3.793  69.957  1.00  0.00    -0.193 C  
HETATM   56  C   UNL     1      -7.031   2.710  70.913  1.00  0.00    -0.033 C  
HETATM   57  C   UNL     1      -7.528   3.782  69.946  1.00  0.00    -0.048 C  
ENDBRANCH  49  51
ENDBRANCH  40  49
ENDBRANCH  38  40
ENDBRANCH   8  36
TORSDOF 11
ENDMDL
MODEL       64
REMARK 921   NORMALIZED FREE ENERGY PREDICTED BY IDOCK:   -2.54 KCAL/MOL
REMARK 922        TOTAL FREE ENERGY PREDICTED BY IDOCK:   -7.59 KCAL/MOL
REMARK 923 INTER-LIGAND FREE ENERGY PREDICTED BY IDOCK:   -7.41 KCAL/MOL
REMARK 924 INTRA-LIGAND FREE ENERGY PREDICTED BY IDOCK:   -0.19 KCAL/MOL
REMARK 927      BINDING AFFINITY PREDICTED BY RF-SCORE:    0.00 PKD
ROOT
HETATM    1  C   UNL     1      -7.871   9.525  69.858  1.00  0.00    -0.138 C  
HETATM    2  S   UNL     1      -7.354  10.159  68.255  1.00  0.00    -0.082 SA 
HETATM    3  C   UNL     1      -8.417  11.599  68.316  1.00  0.00    -0.160 C  
HETATM    4  C   UNL     1      -9.856  11.397  68.724  1.00  0.00    -0.175 C  
HETATM    5  CA  UNL     1     -10.214  10.408  69.602  1.00  0.00    -0.209 C  
HETATM    6  O   UNL     1     -10.255   7.386  70.697  1.00  0.00    -0.198 OA 
HETATM    7  C   UNL     1     -11.655  10.365  70.307  1.00  0.00    -0.327 C  
HETATM    8  CA  UNL     1      -7.856   7.977  70.013  1.00  0.00    -0.104 C  
HETATM    9  N   UNL     1      -9.301   9.451  69.963  1.00  0.00    -0.209 N  
HETATM   10  C   UNL     1      -9.372   8.165  70.368  1.00  0.00    -0.158 C  
HETATM   11  O   UNL     1     -11.622  10.000  71.516  1.00  0.00    -0.353 OA 
HETATM   12  OXT UNL     1     -12.595  10.913  69.664  1.00  0.00    -0.252 OA 
ENDROOT
BRANCH   4  13
HETATM   13  C   UNL     1     -10.908  12.368  68.185  1.00  0.00    -0.221 C  
BRANCH  13  14
HETATM   14  N   UNL     1     -10.547  13.902  67.897  1.00  0.00    -0.242 N  
HETATM   15  C   UNL     1     -12.461  14.707  66.685  1.00  0.00     0.140 C  
HETATM   16  C   UNL     1     -10.184  13.995  66.377  1.00  0.00    -0.291 C  
HETATM   17  C   UNL     1     -11.309  14.787  65.720  1.00  0.00    -0.336 C  
HETATM   18  C   UNL     1     -11.773  14.792  68.033  1.00  0.00    -0.333 C  
BRANCH  14  19
HETATM   19  C   UNL     1      -9.268  14.189  68.755  1.00  0.00    -0.080 C  
BRANCH  19  20
HETATM   20  C   UNL     1      -9.282  15.495  69.593  1.00  0.00    -0.203 C  
BRANCH  20  21
HETATM   21  N   UNL     1      -8.638  16.697  69.023  1.00  0.00    -0.229 N  
HETATM   22  C   UNL     1      -9.177  17.499  68.037  1.00  0.00    -0.275 C  
HETATM   23  O   UNL     1     -10.353  17.385  67.713  1.00  0.00    -0.328 OA 
HETATM   24  H   UNL     1      -7.721  16.955  69.389  1.00  0.00     0.000 HD 
BRANCH  22  25
HETATM   25  C   UNL     1      -8.305  18.479  67.285  1.00  0.00    -0.259 A  
HETATM   26  C   UNL     1      -7.639  19.586  67.845  1.00  0.00    -0.289 A  
HETATM   27  C   UNL     1      -7.972  18.105  65.959  1.00  0.00    -0.150 A  
HETATM   28  H   UNL     1      -5.039  20.121  64.277  1.00  0.00     0.000 HD 
HETATM   29  C   UNL     1      -6.990  18.784  65.225  1.00  0.00     0.004 A  
HETATM   30  O   UNL     1      -5.258  20.398  65.159  1.00  0.00    -0.157 OA 
HETATM   31  H   UNL     1      -5.165  21.673  67.150  1.00  0.00     0.000 HD 
HETATM   32  C   UNL     1      -6.631  20.239  67.110  1.00  0.00    -0.223 A  
HETATM   33 CL   UNL     1      -7.879  20.129  69.474  1.00  0.00     0.236 Cl 
HETATM   34  C   UNL     1      -6.311  19.832  65.817  1.00  0.00    -0.209 A  
HETATM   35  O   UNL     1      -5.845  21.233  67.646  1.00  0.00    -0.302 OA 
ENDBRANCH  22  25
ENDBRANCH  20  21
ENDBRANCH  19  20
ENDBRANCH  14  19
ENDBRANCH  13  14
ENDBRANCH   4  13
BRANCH   8  36
HETATM   36  N   UNL     1      -7.519   7.163  68.786  1.00  0.00    -0.100 N  
HETATM   37  H   UNL     1      -6.550   6.882  68.637  1.00  0.00     0.000 HD 
HETATM   38  C   UNL     1      -8.470   6.783  67.852  1.00  0.00    -0.119 C  
HETATM   39  O   UNL     1      -9.681   6.886  67.958  1.00  0.00    -0.129 OA 
BRANCH  38  40
HETATM   40  C   UNL     1      -7.931   6.195  66.573  1.00  0.00    -0.105 C  
BRANCH  40  41
HETATM   41  C   UNL     1      -8.101   6.835  65.287  1.00  0.00    -0.130 A  
HETATM   42  H2  UNL     1      -7.418   9.735  62.288  1.00  0.00     0.000 HD 
HETATM   43  C   UNL     1      -7.656   8.379  63.797  1.00  0.00    -0.135 A  
HETATM   44  C   UNL     1      -8.397   6.124  64.133  1.00  0.00     0.044 A  
HETATM   45  H1  UNL     1      -7.355  10.427  63.903  1.00  0.00     0.000 HD 
HETATM   46  S   UNL     1      -7.834   7.012  62.785  1.00  0.00    -0.102 SA 
HETATM   47  N   UNL     1      -7.461   9.611  63.300  1.00  0.00    -0.112 NA 
HETATM   48  N   UNL     1      -7.764   8.160  65.078  1.00  0.00    -0.106 NA 
ENDBRANCH  40  41
BRANCH  40  49
HETATM   49  N   UNL     1      -7.192   5.133  66.482  1.00  0.00    -0.076 NA 
HETATM   50  H   UNL     1      -6.451   5.055  65.786  1.00  0.00     0.000 HD 
BRANCH  49  51
HETATM   51  O   UNL     1      -7.459   4.109  67.375  1.00  0.00    -0.068 OA 
HETATM   52  O   UNL     1      -5.763   2.333  69.907  1.00  0.00    -0.016 OA 
HETATM   53  C   UNL     1      -5.412   4.851  68.542  1.00  0.00    -0.015 C  
HETATM   54  O   UNL     1      -7.768   2.119  68.891  1.00  0.00    -0.046 OA 
HETATM   55  C   UNL     1      -5.382   2.987  66.822  1.00  0.00    -0.016 C  
HETATM   56  C   UNL     1      -6.527   2.660  69.009  1.00  0.00    -0.029 C  
HETATM   57  C   UNL     1      -6.191   3.678  67.922  1.00  0.00    -0.033 C  
ENDBRANCH  49  51
ENDBRANCH  40  49
ENDBRANCH  38  40
ENDBRANCH   8  36
TORSDOF 11
ENDMDL
MODEL       65
REMARK 921   NORMALIZED FREE ENERGY PREDICTED BY IDOCK:   -2.41 KCAL/MOL
REMARK 922        TOTAL FREE ENERGY PREDICTED BY IDOCK:   -7.39 KCAL/MOL
REMARK 923 INTER-LIGAND FREE ENERGY PREDICTED BY IDOCK:   -6.11 KCAL/MOL
REMARK 924 INTRA-LIGAND FREE ENERGY PREDICTED BY IDOCK:   -1.29 KCAL/MOL
REMARK 927      BINDING AFFINITY PREDICTED BY RF-SCORE:    0.00 PKD
ROOT
HETATM    1  C   UNL     1      -5.698  12.234  67.839  1.00  0.00    -0.079 C  
HETATM    2  S   UNL     1      -7.130  12.308  66.752  1.00  0.00     0.325 SA 
HETATM    3  C   UNL     1      -7.422  14.055  67.010  1.00  0.00     0.321 C  
HETATM    4  C   UNL     1      -7.406  14.572  68.429  1.00  0.00    -0.114 C  
HETATM    5  CA  UNL     1      -6.613  13.995  69.386  1.00  0.00    -0.118 C  
HETATM    6  O   UNL     1      -5.435  11.518  71.061  1.00  0.00    -0.235 OA 
HETATM    7  C   UNL     1      -6.319  14.701  70.797  1.00  0.00     0.002 C  
HETATM    8  CA  UNL     1      -5.475  10.882  68.578  1.00  0.00    -0.040 C  
HETATM    9  N   UNL     1      -5.978  12.809  69.125  1.00  0.00    -0.080 N  
HETATM   10  C   UNL     1      -5.550  11.768  69.870  1.00  0.00    -0.105 C  
HETATM   11  O   UNL     1      -5.132  14.561  71.202  1.00  0.00    -0.114 OA 
HETATM   12  OXT UNL     1      -7.216  15.491  71.211  1.00  0.00     1.748 OA 
ENDROOT
BRANCH   4  13
HETATM   13  C   UNL     1      -8.251  15.801  68.764  1.00  0.00    -0.192 C  
BRANCH  13  14
HETATM   14  N   UNL     1      -8.558  16.921  67.660  1.00  0.00    -0.206 N  
HETATM   15  C   UNL     1      -8.051  18.979  68.795  1.00  0.00    -0.372 C  
HETATM   16  C   UNL     1      -9.897  17.610  68.086  1.00  0.00    -0.318 C  
HETATM   17  C   UNL     1      -9.529  19.026  68.514  1.00  0.00    -0.436 C  
HETATM   18  C   UNL     1      -7.536  18.046  67.716  1.00  0.00    -0.220 C  
BRANCH  14  19
HETATM   19  C   UNL     1      -8.782  16.129  66.327  1.00  0.00    -0.337 C  
BRANCH  19  20
HETATM   20  C   UNL     1     -10.161  15.436  66.162  1.00  0.00    -0.305 C  
BRANCH  20  21
HETATM   21  N   UNL     1     -10.429  14.219  66.955  1.00  0.00    -0.270 N  
HETATM   22  C   UNL     1     -11.665  13.620  67.106  1.00  0.00    -0.383 C  
HETATM   23  O   UNL     1     -12.607  13.948  66.397  1.00  0.00    -0.413 OA 
HETATM   24  H   UNL     1      -9.637  13.784  67.430  1.00  0.00     0.000 HD 
BRANCH  22  25
HETATM   25  C   UNL     1     -11.896  12.606  68.203  1.00  0.00    -0.366 A  
HETATM   26  C   UNL     1     -11.510  11.252  68.167  1.00  0.00    -0.306 A  
HETATM   27  C   UNL     1     -12.340  13.137  69.440  1.00  0.00    -0.053 A  
HETATM   28  H   UNL     1     -12.111  10.723  72.541  1.00  0.00     0.000 HD 
HETATM   29  C   UNL     1     -12.370  12.362  70.608  1.00  0.00    -0.367 A  
HETATM   30  O   UNL     1     -11.824  10.343  71.719  1.00  0.00    -0.147 OA 
HETATM   31  H   UNL     1     -11.018   8.701  70.218  1.00  0.00     0.000 HD 
HETATM   32  C   UNL     1     -11.513  10.494  69.353  1.00  0.00    -0.262 A  
HETATM   33 CL   UNL     1     -10.879  10.470  66.754  1.00  0.00    -0.254 Cl 
HETATM   34  C   UNL     1     -11.933  11.051  70.558  1.00  0.00    -0.379 A  
HETATM   35  O   UNL     1     -11.016   9.212  69.418  1.00  0.00    -0.197 OA 
ENDBRANCH  22  25
ENDBRANCH  20  21
ENDBRANCH  19  20
ENDBRANCH  14  19
ENDBRANCH  13  14
ENDBRANCH   4  13
BRANCH   8  36
HETATM   36  N   UNL     1      -6.529   9.815  68.398  1.00  0.00    -0.055 N  
HETATM   37  H   UNL     1      -7.274   9.973  67.719  1.00  0.00     0.000 HD 
HETATM   38  C   UNL     1      -6.529   8.630  69.116  1.00  0.00    -0.043 C  
HETATM   39  O   UNL     1      -5.636   8.210  69.833  1.00  0.00    -0.023 OA 
BRANCH  38  40
HETATM   40  C   UNL     1      -7.776   7.793  68.996  1.00  0.00    -0.109 C  
BRANCH  40  41
HETATM   41  C   UNL     1      -8.367   7.451  67.720  1.00  0.00    -0.118 A  
HETATM   42  H2  UNL     1      -8.500   5.763  63.846  1.00  0.00     0.000 HD 
HETATM   43  C   UNL     1      -8.332   6.523  65.735  1.00  0.00    -0.143 A  
HETATM   44  C   UNL     1      -9.722   7.195  67.570  1.00  0.00    -0.142 A  
HETATM   45  H1  UNL     1      -6.916   6.422  64.226  1.00  0.00     0.000 HD 
HETATM   46  S   UNL     1      -9.938   6.178  66.212  1.00  0.00     0.075 SA 
HETATM   47  N   UNL     1      -7.873   6.216  64.511  1.00  0.00    -0.109 NA 
HETATM   48  N   UNL     1      -7.595   7.141  66.616  1.00  0.00    -0.091 NA 
ENDBRANCH  40  41
BRANCH  40  49
HETATM   49  N   UNL     1      -8.397   7.215  69.977  1.00  0.00    -0.136 NA 
HETATM   50  H   UNL     1      -8.892   6.332  69.851  1.00  0.00     0.000 HD 
BRANCH  49  51
HETATM   51  O   UNL     1      -8.356   7.856  71.204  1.00  0.00    -0.106 OA 
HETATM   52  O   UNL     1      -7.639   7.045  74.560  1.00  0.00    -0.111 OA 
HETATM   53  C   UNL     1      -7.086   5.884  71.977  1.00  0.00    -0.087 C  
HETATM   54  O   UNL     1      -8.456   8.868  73.510  1.00  0.00    -0.237 OA 
HETATM   55  C   UNL     1      -9.600   6.064  72.263  1.00  0.00    -0.162 C  
HETATM   56  C   UNL     1      -8.080   7.563  73.543  1.00  0.00    -0.133 C  
HETATM   57  C   UNL     1      -8.276   6.829  72.219  1.00  0.00    -0.106 C  
ENDBRANCH  49  51
ENDBRANCH  40  49
ENDBRANCH  38  40
ENDBRANCH   8  36
TORSDOF 11
ENDMDL
MODEL       66
REMARK 921   NORMALIZED FREE ENERGY PREDICTED BY IDOCK:   -2.32 KCAL/MOL
REMARK 922        TOTAL FREE ENERGY PREDICTED BY IDOCK:   -7.23 KCAL/MOL
REMARK 923 INTER-LIGAND FREE ENERGY PREDICTED BY IDOCK:   -6.64 KCAL/MOL
REMARK 924 INTRA-LIGAND FREE ENERGY PREDICTED BY IDOCK:   -0.59 KCAL/MOL
REMARK 927      BINDING AFFINITY PREDICTED BY RF-SCORE:    0.00 PKD
ROOT
HETATM    1  C   UNL     1      -7.966  11.810  69.220  1.00  0.00     0.341 C  
HETATM    2  S   UNL     1      -6.975  11.836  67.719  1.00  0.00    -0.104 SA 
HETATM    3  C   UNL     1      -7.495  13.477  67.227  1.00  0.00    -0.039 C  
HETATM    4  C   UNL     1      -8.970  13.795  67.275  1.00  0.00    -0.227 C  
HETATM    5  CA  UNL     1      -9.793  13.207  68.199  1.00  0.00    -0.228 C  
HETATM    6  O   UNL     1     -11.035  10.708  69.795  1.00  0.00    -0.257 OA 
HETATM    7  C   UNL     1     -11.274  13.749  68.499  1.00  0.00    -0.275 C  
HETATM    8  CA  UNL     1      -8.492  10.414  69.663  1.00  0.00    -0.049 C  
HETATM    9  N   UNL     1      -9.333  12.163  68.960  1.00  0.00     0.232 N  
HETATM   10  C   UNL     1      -9.899  11.099  69.567  1.00  0.00     0.268 C  
HETATM   11  O   UNL     1     -11.592  13.717  69.720  1.00  0.00    -0.272 OA 
HETATM   12  OXT UNL     1     -11.841  14.348  67.541  1.00  0.00    -0.373 OA 
ENDROOT
BRANCH   4  13
HETATM   13  C   UNL     1      -9.520  14.843  66.307  1.00  0.00    -0.309 C  
BRANCH  13  14
HETATM   14  N   UNL     1      -9.308  16.408  66.574  1.00  0.00    -0.254 N  
HETATM   15  C   UNL     1      -7.227  16.493  67.776  1.00  0.00    -0.156 C  
HETATM   16  C   UNL     1      -9.607  16.644  68.093  1.00  0.00    -0.228 C  
HETATM   17  C   UNL     1      -8.270  16.992  68.739  1.00  0.00    -0.245 C  
HETATM   18  C   UNL     1      -7.846  16.800  66.426  1.00  0.00    -0.318 C  
BRANCH  14  19
HETATM   19  C   UNL     1     -10.404  17.122  65.712  1.00  0.00    -0.240 C  
BRANCH  19  20
HETATM   20  C   UNL     1     -11.087  16.260  64.616  1.00  0.00    -0.246 C  
BRANCH  20  21
HETATM   21  N   UNL     1     -10.689  14.843  64.495  1.00  0.00    -0.601 N  
HETATM   22  C   UNL     1     -11.550  13.790  64.253  1.00  0.00    -0.369 C  
HETATM   23  O   UNL     1     -12.704  13.996  63.901  1.00  0.00    -0.670 OA 
HETATM   24  H   UNL     1      -9.697  14.623  64.597  1.00  0.00     0.000 HD 
BRANCH  22  25
HETATM   25  C   UNL     1     -11.105  12.365  64.495  1.00  0.00    -0.360 A  
HETATM   26  C   UNL     1     -10.102  11.684  63.780  1.00  0.00    -0.381 A  
HETATM   27  C   UNL     1     -11.597  11.767  65.682  1.00  0.00    -0.190 A  
HETATM   28  H   UNL     1      -9.809   8.449  66.817  1.00  0.00     0.000 HD 
HETATM   29  C   UNL     1     -11.091  10.551  66.161  1.00  0.00     0.192 A  
HETATM   30  O   UNL     1      -9.476   8.825  66.011  1.00  0.00    -0.227 OA 
HETATM   31  H   UNL     1      -8.151   9.024  64.061  1.00  0.00     0.000 HD 
HETATM   32  C   UNL     1      -9.578  10.480  64.288  1.00  0.00    -0.307 A  
HETATM   33 CL   UNL     1      -9.346  12.311  62.351  1.00  0.00     1.702 Cl 
HETATM   34  C   UNL     1     -10.067   9.929  65.470  1.00  0.00    -0.227 A  
HETATM   35  O   UNL     1      -8.504   9.836  63.718  1.00  0.00    -0.154 OA 
ENDBRANCH  22  25
ENDBRANCH  20  21
ENDBRANCH  19  20
ENDBRANCH  14  19
ENDBRANCH  13  14
ENDBRANCH   4  13
BRANCH   8  36
HETATM   36  N   UNL     1      -8.215   9.248  68.742  1.00  0.00    -0.111 N  
HETATM   37  H   UNL     1      -8.767   9.158  67.889  1.00  0.00     0.000 HD 
HETATM   38  C   UNL     1      -7.244   8.295  69.008  1.00  0.00    -0.073 C  
HETATM   39  O   UNL     1      -6.393   8.342  69.881  1.00  0.00    -0.032 OA 
BRANCH  38  40
HETATM   40  C   UNL     1      -7.267   7.075  68.123  1.00  0.00    -0.091 C  
BRANCH  40  41
HETATM   41  C   UNL     1      -6.417   6.938  66.960  1.00  0.00    -0.046 A  
HETATM   42  H2  UNL     1      -5.300   5.555  63.125  1.00  0.00     0.000 HD 
HETATM   43  C   UNL     1      -5.948   6.178  64.959  1.00  0.00    -0.026 A  
HETATM   44  C   UNL     1      -5.576   7.953  66.528  1.00  0.00    -0.032 A  
HETATM   45  H1  UNL     1      -6.190   4.341  64.032  1.00  0.00     0.000 HD 
HETATM   46  S   UNL     1      -5.304   7.759  64.851  1.00  0.00    -0.029 SA 
HETATM   47  N   UNL     1      -5.806   5.284  63.968  1.00  0.00    -0.020 NA 
HETATM   48  N   UNL     1      -6.546   5.881  66.079  1.00  0.00    -0.046 NA 
ENDBRANCH  40  41
BRANCH  40  49
HETATM   49  N   UNL     1      -7.955   5.997  68.339  1.00  0.00    -0.106 NA 
HETATM   50  H   UNL     1      -7.554   5.070  68.197  1.00  0.00     0.000 HD 
BRANCH  49  51
HETATM   51  O   UNL     1      -9.259   6.166  68.770  1.00  0.00    -0.125 OA 
HETATM   52  O   UNL     1     -11.213   5.347  71.590  1.00  0.00    -0.131 OA 
HETATM   53  C   UNL     1      -8.396   5.569  71.005  1.00  0.00    -0.121 C  
HETATM   54  O   UNL     1     -11.653   6.230  69.559  1.00  0.00    -0.423 OA 
HETATM   55  C   UNL     1      -9.413   3.844  69.449  1.00  0.00    -0.260 C  
HETATM   56  C   UNL     1     -10.837   5.619  70.458  1.00  0.00    -0.244 C  
HETATM   57  C   UNL     1      -9.446   5.301  69.914  1.00  0.00    -0.155 C  
ENDBRANCH  49  51
ENDBRANCH  40  49
ENDBRANCH  38  40
ENDBRANCH   8  36
TORSDOF 11
ENDMDL
MODEL       67
REMARK 921   NORMALIZED FREE ENERGY PREDICTED BY IDOCK:   -2.22 KCAL/MOL
REMARK 922        TOTAL FREE ENERGY PREDICTED BY IDOCK:   -7.07 KCAL/MOL
REMARK 923 INTER-LIGAND FREE ENERGY PREDICTED BY IDOCK:   -6.02 KCAL/MOL
REMARK 924 INTRA-LIGAND FREE ENERGY PREDICTED BY IDOCK:   -1.05 KCAL/MOL
REMARK 927      BINDING AFFINITY PREDICTED BY RF-SCORE:    0.00 PKD
ROOT
HETATM    1  C   UNL     1      -9.119  10.051  70.205  1.00  0.00    -0.013 C  
HETATM    2  S   UNL     1     -10.779   9.512  69.768  1.00  0.00    -0.249 SA 
HETATM    3  C   UNL     1     -10.729   8.040  70.786  1.00  0.00    -0.223 C  
HETATM    4  C   UNL     1      -9.503   7.163  70.702  1.00  0.00    -0.161 C  
HETATM    5  CA  UNL     1      -8.268   7.693  70.434  1.00  0.00    -0.122 C  
HETATM    6  O   UNL     1      -6.190   9.491  68.767  1.00  0.00    -0.043 OA 
HETATM    7  C   UNL     1      -6.912   6.866  70.656  1.00  0.00    -0.063 C  
HETATM    8  CA  UNL     1      -8.347  10.834  69.104  1.00  0.00    -0.105 C  
HETATM    9  N   UNL     1      -8.157   8.999  70.031  1.00  0.00    -0.111 N  
HETATM   10  C   UNL     1      -7.281   9.697  69.277  1.00  0.00    -0.069 C  
HETATM   11  O   UNL     1      -5.963   7.554  71.126  1.00  0.00    -0.035 OA 
HETATM   12  OXT UNL     1      -7.016   5.609  70.562  1.00  0.00    -0.053 OA 
ENDROOT
BRANCH   4  13
HETATM   13  C   UNL     1      -9.656   5.669  70.986  1.00  0.00    -0.169 C  
BRANCH  13  14
HETATM   14  N   UNL     1      -9.921   5.133  72.472  1.00  0.00    -0.167 N  
HETATM   15  C   UNL     1     -10.106   7.149  73.769  1.00  0.00    -0.391 C  
HETATM   16  C   UNL     1      -8.590   5.351  73.267  1.00  0.00    -0.116 C  
HETATM   17  C   UNL     1      -8.878   6.449  74.285  1.00  0.00    -0.158 C  
HETATM   18  C   UNL     1     -10.928   6.007  73.204  1.00  0.00    -0.239 C  
BRANCH  14  19
HETATM   19  C   UNL     1     -10.184   3.597  72.312  1.00  0.00    -0.118 C  
BRANCH  19  20
HETATM   20  C   UNL     1      -8.929   2.687  72.246  1.00  0.00    -0.078 C  
BRANCH  20  21
HETATM   21  N   UNL     1      -8.141   2.674  70.997  1.00  0.00    -0.049 N  
HETATM   22  C   UNL     1      -8.666   2.579  69.723  1.00  0.00    -0.071 C  
HETATM   23  O   UNL     1      -9.867   2.719  69.531  1.00  0.00     0.053 OA 
HETATM   24  H   UNL     1      -7.126   2.741  71.081  1.00  0.00     0.000 HD 
BRANCH  22  25
HETATM   25  C   UNL     1      -7.778   2.222  68.553  1.00  0.00    -0.053 A  
HETATM   26  C   UNL     1      -8.218   1.823  67.276  1.00  0.00    -0.073 A  
HETATM   27  C   UNL     1      -6.404   2.533  68.714  1.00  0.00    -0.029 A  
HETATM   28  H   UNL     1      -4.218   2.459  65.442  1.00  0.00     0.000 HD 
HETATM   29  C   UNL     1      -5.505   2.481  67.641  1.00  0.00    -0.017 A  
HETATM   30  O   UNL     1      -5.131   2.232  65.315  1.00  0.00    -0.004 OA 
HETATM   31  H   UNL     1      -7.091   1.555  64.175  1.00  0.00     0.000 HD 
HETATM   32  C   UNL     1      -7.312   1.807  66.199  1.00  0.00    -0.060 A  
HETATM   33 CL   UNL     1      -9.874   1.476  66.896  1.00  0.00     0.494 Cl 
HETATM   34  C   UNL     1      -5.973   2.141  66.385  1.00  0.00    -0.023 A  
HETATM   35  O   UNL     1      -7.702   1.566  64.902  1.00  0.00    -0.061 OA 
ENDBRANCH  22  25
ENDBRANCH  20  21
ENDBRANCH  19  20
ENDBRANCH  14  19
ENDBRANCH  13  14
ENDBRANCH   4  13
BRANCH   8  36
HETATM   36  N   UNL     1      -9.015  10.968  67.755  1.00  0.00    -0.138 N  
HETATM   37  H   UNL     1      -9.648  10.230  67.448  1.00  0.00     0.000 HD 
HETATM   38  C   UNL     1      -8.805  12.052  66.917  1.00  0.00    -0.197 C  
HETATM   39  O   UNL     1      -8.224  13.088  67.194  1.00  0.00    -0.177 OA 
BRANCH  38  40
HETATM   40  C   UNL     1      -9.349  11.911  65.519  1.00  0.00    -0.078 C  
BRANCH  40  41
HETATM   41  C   UNL     1     -10.587  12.529  65.096  1.00  0.00    -0.293 A  
HETATM   42  H2  UNL     1     -13.070  15.642  63.677  1.00  0.00     0.000 HD 
HETATM   43  C   UNL     1     -11.777  14.207  64.339  1.00  0.00    -0.392 A  
HETATM   44  C   UNL     1     -11.598  11.819  64.465  1.00  0.00    -0.223 A  
HETATM   45  H1  UNL     1     -11.808  16.238  64.745  1.00  0.00     0.000 HD 
HETATM   46  S   UNL     1     -12.514  12.904  63.512  1.00  0.00    -0.240 SA 
HETATM   47  N   UNL     1     -12.248  15.461  64.253  1.00  0.00    -0.500 NA 
HETATM   48  N   UNL     1     -10.756  13.902  65.091  1.00  0.00    -0.339 NA 
ENDBRANCH  40  41
BRANCH  40  49
HETATM   49  N   UNL     1      -8.750  11.323  64.530  1.00  0.00    -0.365 NA 
HETATM   50  H   UNL     1      -9.124  11.355  63.582  1.00  0.00     0.000 HD 
BRANCH  49  51
HETATM   51  O   UNL     1      -7.578  10.648  64.825  1.00  0.00    -0.038 OA 
HETATM   52  O   UNL     1      -5.661   8.014  63.473  1.00  0.00    -0.052 OA 
HETATM   53  C   UNL     1      -7.702   9.809  62.505  1.00  0.00    -0.126 C  
HETATM   54  O   UNL     1      -5.578   9.217  65.382  1.00  0.00    -0.047 OA 
HETATM   55  C   UNL     1      -8.639   8.498  64.464  1.00  0.00    -0.055 C  
HETATM   56  C   UNL     1      -6.182   8.822  64.230  1.00  0.00    -0.071 C  
HETATM   57  C   UNL     1      -7.547   9.462  63.996  1.00  0.00    -0.115 C  
ENDBRANCH  49  51
ENDBRANCH  40  49
ENDBRANCH  38  40
ENDBRANCH   8  36
TORSDOF 11
ENDMDL
MODEL       68
REMARK 921   NORMALIZED FREE ENERGY PREDICTED BY IDOCK:   -2.01 KCAL/MOL
REMARK 922        TOTAL FREE ENERGY PREDICTED BY IDOCK:   -6.73 KCAL/MOL
REMARK 923 INTER-LIGAND FREE ENERGY PREDICTED BY IDOCK:   -6.10 KCAL/MOL
REMARK 924 INTRA-LIGAND FREE ENERGY PREDICTED BY IDOCK:   -0.63 KCAL/MOL
REMARK 927      BINDING AFFINITY PREDICTED BY RF-SCORE:    0.00 PKD
ROOT
HETATM    1  C   UNL     1      -9.316  12.045  69.437  1.00  0.00     0.986 C  
HETATM    2  S   UNL     1      -7.660  12.439  68.854  1.00  0.00     0.113 SA 
HETATM    3  C   UNL     1      -7.729  14.155  69.363  1.00  0.00     0.188 C  
HETATM    4  C   UNL     1      -8.964  14.948  69.009  1.00  0.00    -0.174 C  
HETATM    5  CA  UNL     1     -10.192  14.347  68.919  1.00  0.00    -0.213 C  
HETATM    6  O   UNL     1     -12.246  12.097  67.894  1.00  0.00    -0.438 OA 
HETATM    7  C   UNL     1     -11.558  15.188  68.871  1.00  0.00    -0.341 C  
HETATM    8  CA  UNL     1     -10.076  10.950  68.634  1.00  0.00    -0.191 C  
HETATM    9  N   UNL     1     -10.288  12.980  68.943  1.00  0.00    -0.115 N  
HETATM   10  C   UNL     1     -11.155  12.073  68.444  1.00  0.00    -0.245 C  
HETATM   11  O   UNL     1     -12.501  14.671  69.532  1.00  0.00    -0.239 OA 
HETATM   12  OXT UNL     1     -11.465  16.355  68.391  1.00  0.00    -0.338 OA 
ENDROOT
BRANCH   4  13
HETATM   13  C   UNL     1      -8.826  16.458  68.814  1.00  0.00    -0.246 C  
BRANCH  13  14
HETATM   14  N   UNL     1      -7.536  17.086  68.102  1.00  0.00    -0.188 N  
HETATM   15  C   UNL     1      -5.895  17.131  69.859  1.00  0.00    -0.236 C  
HETATM   16  C   UNL     1      -7.403  18.552  68.637  1.00  0.00    -0.293 C  
HETATM   17  C   UNL     1      -6.156  18.572  69.513  1.00  0.00    -0.277 C  
HETATM   18  C   UNL     1      -6.260  16.409  68.576  1.00  0.00    -0.128 C  
BRANCH  14  19
HETATM   19  C   UNL     1      -7.887  17.121  66.576  1.00  0.00    -0.290 C  
BRANCH  19  20
HETATM   20  C   UNL     1      -9.359  17.458  66.216  1.00  0.00    -0.217 C  
BRANCH  20  21
HETATM   21  N   UNL     1     -10.206  16.382  65.662  1.00  0.00    -0.347 N  
HETATM   22  C   UNL     1      -9.837  15.056  65.545  1.00  0.00    -0.317 C  
HETATM   23  O   UNL     1      -8.834  14.635  66.108  1.00  0.00    -0.093 OA 
HETATM   24  H   UNL     1     -11.139  16.639  65.339  1.00  0.00     0.000 HD 
BRANCH  22  25
HETATM   25  C   UNL     1     -10.623  14.118  64.656  1.00  0.00    -0.391 A  
HETATM   26  C   UNL     1     -10.288  12.781  64.371  1.00  0.00    -0.364 A  
HETATM   27  C   UNL     1     -11.907  14.577  64.270  1.00  0.00    -0.368 A  
HETATM   28  H   UNL     1     -14.320  11.877  62.730  1.00  0.00     0.000 HD 
HETATM   29  C   UNL     1     -12.838  13.733  63.652  1.00  0.00     0.533 A  
HETATM   30  O   UNL     1     -13.459  11.552  62.966  1.00  0.00    -0.100 OA 
HETATM   31  H   UNL     1     -11.678  10.013  63.204  1.00  0.00     0.000 HD 
HETATM   32  C   UNL     1     -11.243  11.933  63.780  1.00  0.00    -0.440 A  
HETATM   33 CL   UNL     1      -8.788  12.045  64.838  1.00  0.00     0.588 Cl 
HETATM   34  C   UNL     1     -12.505  12.408  63.433  1.00  0.00    -0.446 A  
HETATM   35  O   UNL     1     -11.033  10.585  63.603  1.00  0.00     0.448 OA 
ENDBRANCH  22  25
ENDBRANCH  20  21
ENDBRANCH  19  20
ENDBRANCH  14  19
ENDBRANCH  13  14
ENDBRANCH   4  13
BRANCH   8  36
HETATM   36  N   UNL     1      -9.402  10.409  67.395  1.00  0.00    -0.145 N  
HETATM   37  H   UNL     1      -9.569  10.877  66.504  1.00  0.00     0.000 HD 
HETATM   38  C   UNL     1      -8.565   9.304  67.417  1.00  0.00    -0.122 C  
HETATM   39  O   UNL     1      -8.128   8.738  68.405  1.00  0.00    -0.114 OA 
BRANCH  38  40
HETATM   40  C   UNL     1      -8.176   8.753  66.069  1.00  0.00    -0.118 C  
BRANCH  40  41
HETATM   41  C   UNL     1      -6.959   9.140  65.389  1.00  0.00    -0.081 A  
HETATM   42  H2  UNL     1      -4.515  10.091  62.073  1.00  0.00     0.000 HD 
HETATM   43  C   UNL     1      -5.789   9.633  63.602  1.00  0.00    -0.097 A  
HETATM   44  C   UNL     1      -6.019   9.982  65.963  1.00  0.00    -0.074 A  
HETATM   45  H1  UNL     1      -5.674   8.824  61.698  1.00  0.00     0.000 HD 
HETATM   46  S   UNL     1      -5.152  10.765  64.714  1.00  0.00    -0.075 SA 
HETATM   47  N   UNL     1      -5.294   9.499  62.361  1.00  0.00    -0.084 NA 
HETATM   48  N   UNL     1      -6.756   8.878  64.046  1.00  0.00    -0.086 NA 
ENDBRANCH  40  41
BRANCH  40  49
HETATM   49  N   UNL     1      -8.810   7.826  65.420  1.00  0.00    -0.371 NA 
HETATM   50  H   UNL     1      -8.994   7.904  64.420  1.00  0.00     0.000 HD 
BRANCH  49  51
HETATM   51  O   UNL     1      -9.225   6.726  66.150  1.00  0.00    -0.154 OA 
HETATM   52  O   UNL     1      -8.283   3.353  66.569  1.00  0.00    -0.094 OA 
HETATM   53  C   UNL     1      -7.029   5.753  65.572  1.00  0.00    -0.068 C  
HETATM   54  O   UNL     1     -10.022   4.612  67.267  1.00  0.00    -0.188 OA 
HETATM   55  C   UNL     1      -9.111   5.294  64.197  1.00  0.00     0.218 C  
HETATM   56  C   UNL     1      -8.913   4.400  66.511  1.00  0.00    -0.117 C  
HETATM   57  C   UNL     1      -8.557   5.569  65.596  1.00  0.00    -0.148 C  
ENDBRANCH  49  51
ENDBRANCH  40  49
ENDBRANCH  38  40
ENDBRANCH   8  36
TORSDOF 11
ENDMDL
MODEL       69
REMARK 921   NORMALIZED FREE ENERGY PREDICTED BY IDOCK:   -1.97 KCAL/MOL
REMARK 922        TOTAL FREE ENERGY PREDICTED BY IDOCK:   -6.66 KCAL/MOL
REMARK 923 INTER-LIGAND FREE ENERGY PREDICTED BY IDOCK:   -5.95 KCAL/MOL
REMARK 924 INTRA-LIGAND FREE ENERGY PREDICTED BY IDOCK:   -0.71 KCAL/MOL
REMARK 927      BINDING AFFINITY PREDICTED BY RF-SCORE:    0.00 PKD
ROOT
HETATM    1  C   UNL     1      -6.367  10.906  69.020  1.00  0.00    -0.049 C  
HETATM    2  S   UNL     1      -7.833  10.557  70.003  1.00  0.00     0.393 SA 
HETATM    3  C   UNL     1      -7.805   8.794  69.690  1.00  0.00    -0.090 C  
HETATM    4  C   UNL     1      -7.609   8.332  68.266  1.00  0.00    -0.101 C  
HETATM    5  CA  UNL     1      -6.865   9.064  67.378  1.00  0.00    -0.077 C  
HETATM    6  O   UNL     1      -6.020  11.757  65.839  1.00  0.00     0.094 OA 
HETATM    7  C   UNL     1      -6.364   8.464  65.977  1.00  0.00    -0.053 C  
HETATM    8  CA  UNL     1      -6.330  12.298  68.325  1.00  0.00    -0.055 C  
HETATM    9  N   UNL     1      -6.460  10.332  67.707  1.00  0.00    -0.061 N  
HETATM   10  C   UNL     1      -6.168  11.454  67.014  1.00  0.00    -0.123 C  
HETATM   11  O   UNL     1      -5.193   8.815  65.660  1.00  0.00    -0.033 OA 
HETATM   12  OXT UNL     1      -7.083   7.547  65.487  1.00  0.00    -0.058 OA 
ENDROOT
BRANCH   4  13
HETATM   13  C   UNL     1      -8.208   6.989  67.848  1.00  0.00    -0.115 C  
BRANCH  13  14
HETATM   14  N   UNL     1      -8.785   5.966  68.937  1.00  0.00    -0.116 N  
HETATM   15  C   UNL     1      -6.810   5.146  70.036  1.00  0.00    -0.052 C  
HETATM   16  C   UNL     1      -8.469   4.528  68.407  1.00  0.00    -0.093 C  
HETATM   17  C   UNL     1      -7.413   3.953  69.345  1.00  0.00    -0.053 C  
HETATM   18  C   UNL     1      -8.009   6.052  70.242  1.00  0.00    -0.107 C  
BRANCH  14  19
HETATM   19  C   UNL     1     -10.335   6.193  68.930  1.00  0.00    -0.208 C  
BRANCH  19  20
HETATM   20  C   UNL     1     -10.843   7.496  69.602  1.00  0.00    -0.202 C  
BRANCH  20  21
HETATM   21  N   UNL     1     -11.050   8.686  68.752  1.00  0.00    -0.417 N  
HETATM   22  C   UNL     1     -11.008   8.698  67.371  1.00  0.00     0.174 C  
HETATM   23  O   UNL     1     -11.009   7.650  66.738  1.00  0.00    -0.183 OA 
HETATM   24  H   UNL     1     -11.239   9.572  69.223  1.00  0.00     0.000 HD 
BRANCH  22  25
HETATM   25  C   UNL     1     -10.880  10.004  66.620  1.00  0.00    -0.058 A  
HETATM   26  C   UNL     1     -11.285  11.267  67.091  1.00  0.00    -0.275 A  
HETATM   27  C   UNL     1     -10.089   9.955  65.445  1.00  0.00    -0.270 A  
HETATM   28  H   UNL     1      -8.995  13.429  63.952  1.00  0.00     0.000 HD 
HETATM   29  C   UNL     1      -9.686  11.120  64.778  1.00  0.00    -0.303 A  
HETATM   30  O   UNL     1      -9.538  13.484  64.729  1.00  0.00     0.091 OA 
HETATM   31  H   UNL     1     -10.789  14.481  66.472  1.00  0.00     0.000 HD 
HETATM   32  C   UNL     1     -10.847  12.431  66.432  1.00  0.00    -0.258 A  
HETATM   33 CL   UNL     1     -12.194  11.503  68.549  1.00  0.00    -0.142 Cl 
HETATM   34  C   UNL     1     -10.050  12.351  65.292  1.00  0.00    -0.265 A  
HETATM   35  O   UNL     1     -11.085  13.696  66.917  1.00  0.00    -0.295 OA 
ENDBRANCH  22  25
ENDBRANCH  20  21
ENDBRANCH  19  20
ENDBRANCH  14  19
ENDBRANCH  13  14
ENDBRANCH   4  13
BRANCH   8  36
HETATM   36  N   UNL     1      -7.561  13.166  68.453  1.00  0.00    -0.128 N  
HETATM   37  H   UNL     1      -8.364  12.965  67.857  1.00  0.00     0.000 HD 
HETATM   38  C   UNL     1      -7.645  14.223  69.345  1.00  0.00     0.077 C  
HETATM   39  O   UNL     1      -6.856  14.492  70.236  1.00  0.00    -0.120 OA 
BRANCH  38  40
HETATM   40  C   UNL     1      -8.835  15.131  69.171  1.00  0.00    -0.221 C  
BRANCH  40  41
HETATM   41  C   UNL     1      -9.079  15.874  67.954  1.00  0.00    -0.190 A  
HETATM   42  H2  UNL     1     -10.470  19.102  65.605  1.00  0.00     0.000 HD 
HETATM   43  C   UNL     1      -9.821  17.608  66.836  1.00  0.00    -0.306 A  
HETATM   44  C   UNL     1      -8.227  15.816  66.862  1.00  0.00    -0.253 A  
HETATM   45  H1  UNL     1     -11.531  18.770  66.966  1.00  0.00     0.000 HD 
HETATM   46  S   UNL     1      -8.391  17.263  65.964  1.00  0.00    -0.006 SA 
HETATM   47  N   UNL     1     -10.678  18.564  66.446  1.00  0.00    -0.291 NA 
HETATM   48  N   UNL     1     -10.049  16.856  67.878  1.00  0.00    -0.277 NA 
ENDBRANCH  40  41
BRANCH  40  49
HETATM   49  N   UNL     1      -9.804  15.278  70.021  1.00  0.00    -0.480 NA 
HETATM   50  H   UNL     1     -10.019  16.185  70.435  1.00  0.00     0.000 HD 
BRANCH  49  51
HETATM   51  O   UNL     1     -10.533  14.145  70.338  1.00  0.00     0.632 OA 
HETATM   52  O   UNL     1     -13.751  13.352  71.543  1.00  0.00    -0.230 OA 
HETATM   53  C   UNL     1     -12.505  15.631  70.285  1.00  0.00    -0.369 C  
HETATM   54  O   UNL     1     -11.872  12.167  71.143  1.00  0.00     0.208 OA 
HETATM   55  C   UNL     1     -11.265  15.114  72.437  1.00  0.00    -0.094 C  
HETATM   56  C   UNL     1     -12.558  13.332  71.274  1.00  0.00    -0.308 C  
HETATM   57  C   UNL     1     -11.702  14.580  71.071  1.00  0.00    -0.237 C  
ENDBRANCH  49  51
ENDBRANCH  40  49
ENDBRANCH  38  40
ENDBRANCH   8  36
TORSDOF 11
ENDMDL
MODEL       70
REMARK 921   NORMALIZED FREE ENERGY PREDICTED BY IDOCK:   -1.67 KCAL/MOL
REMARK 922        TOTAL FREE ENERGY PREDICTED BY IDOCK:   -6.17 KCAL/MOL
REMARK 923 INTER-LIGAND FREE ENERGY PREDICTED BY IDOCK:   -4.05 KCAL/MOL
REMARK 924 INTRA-LIGAND FREE ENERGY PREDICTED BY IDOCK:   -2.13 KCAL/MOL
REMARK 927      BINDING AFFINITY PREDICTED BY RF-SCORE:    0.00 PKD
ROOT
HETATM    1  C   UNL     1      -9.341  13.760  69.839  1.00  0.00     1.906 C  
HETATM    2  S   UNL     1      -7.598  13.931  69.428  1.00  0.00     0.358 SA 
HETATM    3  C   UNL     1      -7.561  15.704  69.677  1.00  0.00    -0.119 C  
HETATM    4  C   UNL     1      -8.663  16.527  69.056  1.00  0.00    -0.215 C  
HETATM    5  CA  UNL     1      -9.924  16.017  68.893  1.00  0.00    -0.232 C  
HETATM    6  O   UNL     1     -12.050  13.804  67.935  1.00  0.00    -0.365 OA 
HETATM    7  C   UNL     1     -11.188  16.945  68.549  1.00  0.00    -0.112 C  
HETATM    8  CA  UNL     1     -10.103  12.617  69.106  1.00  0.00     0.333 C  
HETATM    9  N   UNL     1     -10.154  14.681  69.096  1.00  0.00    -0.207 N  
HETATM   10  C   UNL     1     -11.038  13.778  68.621  1.00  0.00    -0.267 C  
HETATM   11  O   UNL     1     -12.248  16.608  69.148  1.00  0.00     0.337 OA 
HETATM   12  OXT UNL     1     -10.928  18.014  67.925  1.00  0.00    -0.297 OA 
ENDROOT
BRANCH   4  13
HETATM   13  C   UNL     1      -8.360  17.975  68.670  1.00  0.00    -0.272 C  
BRANCH  13  14
HETATM   14  N   UNL     1      -6.950  18.382  68.028  1.00  0.00    -0.222 N  
HETATM   15  C   UNL     1      -5.769  19.389  69.864  1.00  0.00    -0.275 C  
HETATM   16  C   UNL     1      -6.973  19.938  67.856  1.00  0.00    -0.273 C  
HETATM   17  C   UNL     1      -5.967  20.491  68.859  1.00  0.00    -0.375 C  
HETATM   18  C   UNL     1      -5.809  18.141  69.003  1.00  0.00    -0.212 C  
BRANCH  14  19
HETATM   19  C   UNL     1      -6.933  17.704  66.616  1.00  0.00    -0.222 C  
BRANCH  19  20
HETATM   20  C   UNL     1      -8.292  17.638  65.868  1.00  0.00     0.050 C  
BRANCH  20  21
HETATM   21  N   UNL     1      -8.799  16.313  65.458  1.00  0.00     0.313 N  
HETATM   22  C   UNL     1     -10.090  16.044  65.046  1.00  0.00     0.172 C  
HETATM   23  O   UNL     1     -10.863  16.957  64.783  1.00  0.00    -0.787 OA 
HETATM   24  H   UNL     1      -8.142  15.532  65.479  1.00  0.00     0.000 HD 
BRANCH  22  25
HETATM   25  C   UNL     1     -10.595  14.620  64.989  1.00  0.00    -0.461 A  
HETATM   26  C   UNL     1     -11.856  14.213  64.514  1.00  0.00    -0.436 A  
HETATM   27  C   UNL     1      -9.623  13.619  65.234  1.00  0.00     0.122 A  
HETATM   28  H   UNL     1     -10.634   9.946  64.245  1.00  0.00     0.000 HD 
HETATM   29  C   UNL     1      -9.880  12.264  64.986  1.00  0.00    -0.158 A  
HETATM   30  O   UNL     1     -11.306  10.599  64.089  1.00  0.00     0.614 OA 
HETATM   31  H   UNL     1     -13.405  11.486  63.453  1.00  0.00     0.000 HD 
HETATM   32  C   UNL     1     -12.092  12.853  64.237  1.00  0.00    -0.419 A  
HETATM   33 CL   UNL     1     -13.129  15.315  64.099  1.00  0.00     0.933 Cl 
HETATM   34  C   UNL     1     -11.107  11.895  64.466  1.00  0.00    -0.325 A  
HETATM   35  O   UNL     1     -13.247  12.404  63.640  1.00  0.00    -0.655 OA 
ENDBRANCH  22  25
ENDBRANCH  20  21
ENDBRANCH  19  20
ENDBRANCH  14  19
ENDBRANCH  13  14
ENDBRANCH   4  13
BRANCH   8  36
HETATM   36  N   UNL     1      -9.342  11.844  68.054  1.00  0.00    -0.187 N  
HETATM   37  H   UNL     1      -9.406  12.148  67.082  1.00  0.00     0.000 HD 
HETATM   38  C   UNL     1      -8.560  10.739  68.353  1.00  0.00    -0.141 C  
HETATM   39  O   UNL     1      -8.241  10.348  69.463  1.00  0.00    -0.164 OA 
BRANCH  38  40
HETATM   40  C   UNL     1      -8.074   9.944  67.168  1.00  0.00    -0.117 C  
BRANCH  40  41
HETATM   41  C   UNL     1      -8.628   8.654  66.814  1.00  0.00    -0.120 A  
HETATM   42  H2  UNL     1      -8.995   4.444  66.908  1.00  0.00     0.000 HD 
HETATM   43  C   UNL     1      -8.743   6.470  66.955  1.00  0.00    -0.115 A  
HETATM   44  C   UNL     1      -9.965   8.480  66.491  1.00  0.00    -0.280 A  
HETATM   45  H1  UNL     1      -7.322   4.965  67.045  1.00  0.00     0.000 HD 
HETATM   46  S   UNL     1     -10.403   6.862  66.830  1.00  0.00    -0.252 SA 
HETATM   47  N   UNL     1      -8.312   5.199  66.971  1.00  0.00    -0.107 NA 
HETATM   48  N   UNL     1      -7.918   7.480  66.988  1.00  0.00    -0.115 NA 
ENDBRANCH  40  41
BRANCH  40  49
HETATM   49  N   UNL     1      -7.202  10.342  66.296  1.00  0.00    -0.120 NA 
HETATM   50  H   UNL     1      -6.488  11.033  66.530  1.00  0.00     0.000 HD 
BRANCH  49  51
HETATM   51  O   UNL     1      -7.286   9.786  65.031  1.00  0.00    -0.115 OA 
HETATM   52  O   UNL     1      -5.178   8.083  62.773  1.00  0.00    -0.053 OA 
HETATM   53  C   UNL     1      -5.177   8.636  65.605  1.00  0.00    -0.034 C  
HETATM   54  O   UNL     1      -7.268   8.931  62.660  1.00  0.00    -0.097 OA 
HETATM   55  C   UNL     1      -5.211  10.840  64.350  1.00  0.00    -0.099 C  
HETATM   56  C   UNL     1      -6.065   8.766  63.269  1.00  0.00    -0.085 C  
HETATM   57  C   UNL     1      -5.934   9.514  64.594  1.00  0.00    -0.079 C  
ENDBRANCH  49  51
ENDBRANCH  40  49
ENDBRANCH  38  40
ENDBRANCH   8  36
TORSDOF 11
ENDMDL
MODEL       71
REMARK 921   NORMALIZED FREE ENERGY PREDICTED BY IDOCK:   -1.51 KCAL/MOL
REMARK 922        TOTAL FREE ENERGY PREDICTED BY IDOCK:   -5.91 KCAL/MOL
REMARK 923 INTER-LIGAND FREE ENERGY PREDICTED BY IDOCK:   -5.66 KCAL/MOL
REMARK 924 INTRA-LIGAND FREE ENERGY PREDICTED BY IDOCK:   -0.24 KCAL/MOL
REMARK 927      BINDING AFFINITY PREDICTED BY RF-SCORE:    0.00 PKD
ROOT
HETATM    1  C   UNL     1      -9.547  13.063  68.001  1.00  0.00    -0.224 C  
HETATM    2  S   UNL     1      -8.143  12.083  68.551  1.00  0.00    -0.083 SA 
HETATM    3  C   UNL     1      -7.332  12.077  66.955  1.00  0.00    -0.042 C  
HETATM    4  C   UNL     1      -8.168  11.754  65.740  1.00  0.00     0.458 C  
HETATM    5  CA  UNL     1      -9.497  12.080  65.685  1.00  0.00    -0.138 C  
HETATM    6  O   UNL     1     -12.506  12.167  66.814  1.00  0.00    -0.151 OA 
HETATM    7  C   UNL     1     -10.332  12.056  64.314  1.00  0.00    -0.322 C  
HETATM    8  CA  UNL     1     -10.899  12.774  68.716  1.00  0.00    -0.234 C  
HETATM    9  N   UNL     1     -10.142  12.518  66.813  1.00  0.00    -0.221 N  
HETATM   10  C   UNL     1     -11.413  12.479  67.265  1.00  0.00    -0.353 C  
HETATM   11  O   UNL     1     -11.154  13.007  64.198  1.00  0.00    -0.364 OA 
HETATM   12  OXT UNL     1      -9.914  11.250  63.434  1.00  0.00    -0.318 OA 
ENDROOT
BRANCH   4  13
HETATM   13  C   UNL     1      -7.481  11.107  64.536  1.00  0.00     0.926 C  
BRANCH  13  14
HETATM   14  N   UNL     1      -7.081   9.556  64.547  1.00  0.00    -0.102 N  
HETATM   15  C   UNL     1      -8.382   8.631  62.749  1.00  0.00    -0.174 C  
HETATM   16  C   UNL     1      -8.304   8.786  65.148  1.00  0.00    -0.167 C  
HETATM   17  C   UNL     1      -8.903   7.979  64.002  1.00  0.00     0.624 C  
HETATM   18  C   UNL     1      -6.964   9.006  63.134  1.00  0.00    -0.089 C  
BRANCH  14  19
HETATM   19  C   UNL     1      -5.868   9.454  65.533  1.00  0.00    -0.058 C  
BRANCH  19  20
HETATM   20  C   UNL     1      -6.156   8.808  66.914  1.00  0.00    -0.058 C  
BRANCH  20  21
HETATM   21  N   UNL     1      -6.336   7.343  66.976  1.00  0.00    -0.050 N  
HETATM   22  C   UNL     1      -5.928   6.447  66.007  1.00  0.00    -0.025 C  
HETATM   23  O   UNL     1      -5.178   6.801  65.106  1.00  0.00    -0.024 OA 
HETATM   24  H   UNL     1      -6.799   6.962  67.802  1.00  0.00     0.000 HD 
BRANCH  22  25
HETATM   25  C   UNL     1      -6.465   5.033  65.997  1.00  0.00    -0.040 A  
HETATM   26  C   UNL     1      -6.419   4.128  67.074  1.00  0.00    -0.041 A  
HETATM   27  C   UNL     1      -7.265   4.693  64.877  1.00  0.00    -0.063 A  
HETATM   28  H   UNL     1      -9.388   1.395  65.206  1.00  0.00     0.000 HD 
HETATM   29  C   UNL     1      -8.020   3.513  64.841  1.00  0.00    -0.090 A  
HETATM   30  O   UNL     1      -8.846   1.596  65.960  1.00  0.00    -0.117 OA 
HETATM   31  H   UNL     1      -7.852   1.322  68.089  1.00  0.00     0.000 HD 
HETATM   32  C   UNL     1      -7.207   2.962  67.040  1.00  0.00    -0.058 A  
HETATM   33 CL   UNL     1      -5.546   4.425  68.543  1.00  0.00    -0.012 Cl 
HETATM   34  C   UNL     1      -8.002   2.668  65.935  1.00  0.00    -0.082 A  
HETATM   35  O   UNL     1      -7.320   2.108  68.113  1.00  0.00    -0.047 OA 
ENDBRANCH  22  25
ENDBRANCH  20  21
ENDBRANCH  19  20
ENDBRANCH  14  19
ENDBRANCH  13  14
ENDBRANCH   4  13
BRANCH   8  36
HETATM   36  N   UNL     1     -10.924  11.639  69.713  1.00  0.00    -0.462 N  
HETATM   37  H   UNL     1     -10.999  11.862  70.706  1.00  0.00     0.000 HD 
HETATM   38  C   UNL     1     -10.849  10.307  69.337  1.00  0.00    -0.245 C  
HETATM   39  O   UNL     1     -10.925   9.862  68.203  1.00  0.00    -0.251 OA 
BRANCH  38  40
HETATM   40  C   UNL     1     -10.637   9.323  70.458  1.00  0.00    -0.252 C  
BRANCH  40  41
HETATM   41  C   UNL     1      -9.321   8.895  70.883  1.00  0.00    -0.238 A  
HETATM   42  H2  UNL     1      -6.261   7.967  73.648  1.00  0.00     0.000 HD 
HETATM   43  C   UNL     1      -7.815   8.424  72.404  1.00  0.00    -0.099 A  
HETATM   44  C   UNL     1      -8.576   7.963  70.177  1.00  0.00    -0.134 A  
HETATM   45  H1  UNL     1      -7.243   9.324  74.180  1.00  0.00     0.000 HD 
HETATM   46  S   UNL     1      -7.497   7.194  71.258  1.00  0.00    -0.080 SA 
HETATM   47  N   UNL     1      -7.054   8.592  73.496  1.00  0.00    -0.307 NA 
HETATM   48  N   UNL     1      -8.816   9.215  72.130  1.00  0.00    -0.211 NA 
ENDBRANCH  40  41
BRANCH  40  49
HETATM   49  N   UNL     1     -11.566   8.829  71.216  1.00  0.00    -0.277 NA 
HETATM   50  H   UNL     1     -12.542   9.105  71.115  1.00  0.00     0.000 HD 
BRANCH  49  51
HETATM   51  O   UNL     1     -11.167   7.909  72.171  1.00  0.00    -0.266 OA 
HETATM   52  O   UNL     1     -11.375   4.429  72.702  1.00  0.00     0.016 OA 
HETATM   53  C   UNL     1     -11.619   6.205  70.441  1.00  0.00    -0.262 C  
HETATM   54  O   UNL     1     -10.678   6.183  73.941  1.00  0.00    -0.249 OA 
HETATM   55  C   UNL     1     -13.352   6.857  72.174  1.00  0.00    -0.004 C  
HETATM   56  C   UNL     1     -11.291   5.639  72.857  1.00  0.00    -0.273 C  
HETATM   57  C   UNL     1     -11.861   6.671  71.887  1.00  0.00    -0.332 C  
ENDBRANCH  49  51
ENDBRANCH  40  49
ENDBRANCH  38  40
ENDBRANCH   8  36
TORSDOF 11
ENDMDL
MODEL       72
REMARK 921   NORMALIZED FREE ENERGY PREDICTED BY IDOCK:   -0.72 KCAL/MOL
REMARK 922        TOTAL FREE ENERGY PREDICTED BY IDOCK:   -4.62 KCAL/MOL
REMARK 923 INTER-LIGAND FREE ENERGY PREDICTED BY IDOCK:   -4.00 KCAL/MOL
REMARK 924 INTRA-LIGAND FREE ENERGY PREDICTED BY IDOCK:   -0.61 KCAL/MOL
REMARK 927      BINDING AFFINITY PREDICTED BY RF-SCORE:    0.00 PKD
ROOT
HETATM    1  C   UNL     1     -10.053   6.408  67.629  1.00  0.00    -0.151 C  
HETATM    2  S   UNL     1     -10.926   6.248  69.194  1.00  0.00    -0.390 SA 
HETATM    3  C   UNL     1     -11.995   7.656  68.912  1.00  0.00     1.939 C  
HETATM    4  C   UNL     1     -11.362   8.936  68.420  1.00  0.00     0.612 C  
HETATM    5  CA  UNL     1     -10.249   8.917  67.622  1.00  0.00    -0.237 C  
HETATM    6  O   UNL     1      -7.267   8.012  66.835  1.00  0.00    -0.079 OA 
HETATM    7  C   UNL     1      -9.745  10.212  66.820  1.00  0.00    -0.187 C  
HETATM    8  CA  UNL     1      -8.565   5.950  67.631  1.00  0.00    -0.102 C  
HETATM    9  N   UNL     1      -9.567   7.744  67.427  1.00  0.00    -0.145 N  
HETATM   10  C   UNL     1      -8.287   7.416  67.148  1.00  0.00    -0.118 C  
HETATM   11  O   UNL     1      -9.315   9.961  65.660  1.00  0.00    -0.179 OA 
HETATM   12  OXT UNL     1     -10.050  11.327  67.335  1.00  0.00    -0.184 OA 
ENDROOT
BRANCH   4  13
HETATM   13  C   UNL     1     -12.031  10.262  68.781  1.00  0.00     0.347 C  
BRANCH  13  14
HETATM   14  N   UNL     1     -12.054  10.794  70.292  1.00  0.00    -0.319 N  
HETATM   15  C   UNL     1     -10.610   9.256  71.447  1.00  0.00    -0.417 C  
HETATM   16  C   UNL     1     -12.932   9.785  71.105  1.00  0.00    -0.348 C  
HETATM   17  C   UNL     1     -11.978   9.049  72.039  1.00  0.00    -0.433 C  
HETATM   18  C   UNL     1     -10.681  10.683  70.937  1.00  0.00     0.887 C  
BRANCH  14  19
HETATM   19  C   UNL     1     -12.781  12.180  70.227  1.00  0.00     0.171 C  
BRANCH  19  20
HETATM   20  C   UNL     1     -11.884  13.436  70.391  1.00  0.00    -0.208 C  
BRANCH  20  21
HETATM   21  N   UNL     1     -11.518  14.196  69.178  1.00  0.00    -0.277 N  
HETATM   22  C   UNL     1     -10.254  14.667  68.882  1.00  0.00    -0.241 C  
HETATM   23  O   UNL     1      -9.281  14.288  69.522  1.00  0.00     0.282 OA 
HETATM   24  H   UNL     1     -12.260  14.389  68.504  1.00  0.00     0.000 HD 
BRANCH  22  25
HETATM   25  C   UNL     1     -10.060  15.718  67.813  1.00  0.00    -0.238 A  
HETATM   26  C   UNL     1     -10.710  15.754  66.565  1.00  0.00    -0.283 A  
HETATM   27  C   UNL     1      -9.326  16.863  68.211  1.00  0.00    -0.248 A  
HETATM   28  H   UNL     1      -9.536  19.975  65.810  1.00  0.00     0.000 HD 
HETATM   29  C   UNL     1      -9.266  18.015  67.416  1.00  0.00    -0.253 A  
HETATM   30  O   UNL     1     -10.022  19.213  65.517  1.00  0.00    -0.324 OA 
HETATM   31  H   UNL     1     -11.371  17.873  64.109  1.00  0.00     0.000 HD 
HETATM   32  C   UNL     1     -10.671  16.928  65.790  1.00  0.00    -0.160 A  
HETATM   33 CL   UNL     1     -11.704  14.466  65.962  1.00  0.00    -0.372 Cl 
HETATM   34  C   UNL     1      -9.960  18.045  66.220  1.00  0.00    -0.337 A  
HETATM   35  O   UNL     1     -11.398  17.081  64.632  1.00  0.00    -0.889 OA 
ENDBRANCH  22  25
ENDBRANCH  20  21
ENDBRANCH  19  20
ENDBRANCH  14  19
ENDBRANCH  13  14
ENDBRANCH   4  13
BRANCH   8  36
HETATM   36  N   UNL     1      -7.976   5.524  68.955  1.00  0.00    -0.094 N  
HETATM   37  H   UNL     1      -8.561   5.575  69.789  1.00  0.00     0.000 HD 
HETATM   38  C   UNL     1      -6.674   5.066  69.085  1.00  0.00    -0.049 C  
HETATM   39  O   UNL     1      -5.904   4.785  68.182  1.00  0.00    -0.020 OA 
BRANCH  38  40
HETATM   40  C   UNL     1      -6.172   4.920  70.499  1.00  0.00    -0.019 C  
BRANCH  40  41
HETATM   41  C   UNL     1      -5.932   6.056  71.364  1.00  0.00    -0.031 A  
HETATM   42  H2  UNL     1      -6.774   9.775  73.188  1.00  0.00     0.000 HD 
HETATM   43  C   UNL     1      -6.478   7.978  72.264  1.00  0.00    -0.066 A  
HETATM   44  C   UNL     1      -5.233   5.950  72.557  1.00  0.00    -0.022 A  
HETATM   45  H1  UNL     1      -7.339   9.711  71.525  1.00  0.00     0.000 HD 
HETATM   46  S   UNL     1      -5.739   7.207  73.599  1.00  0.00    -0.054 SA 
HETATM   47  N   UNL     1      -6.899   9.251  72.321  1.00  0.00    -0.261 NA 
HETATM   48  N   UNL     1      -6.569   7.268  71.173  1.00  0.00    -0.043 NA 
ENDBRANCH  40  41
BRANCH  40  49
HETATM   49  N   UNL     1      -5.991   3.799  71.125  1.00  0.00    -0.013 NA 
HETATM   50  H   UNL     1      -5.426   3.049  70.727  1.00  0.00     0.000 HD 
BRANCH  49  51
HETATM   51  O   UNL     1      -6.603   3.670  72.360  1.00  0.00    -0.017 OA 
HETATM   52  O   UNL     1      -9.154   1.726  73.828  1.00  0.00    -0.064 OA 
HETATM   53  C   UNL     1      -7.473   1.528  71.491  1.00  0.00    -0.036 C  
HETATM   54  O   UNL     1      -7.927   3.498  74.499  1.00  0.00    -0.068 OA 
HETATM   55  C   UNL     1      -8.808   3.680  71.349  1.00  0.00    -0.143 C  
HETATM   56  C   UNL     1      -8.364   2.621  73.558  1.00  0.00    -0.068 C  
HETATM   57  C   UNL     1      -7.795   2.873  72.164  1.00  0.00    -0.054 C  
ENDBRANCH  49  51
ENDBRANCH  40  49
ENDBRANCH  38  40
ENDBRANCH   8  36
TORSDOF 11
ENDMDL
MODEL       73
REMARK 921   NORMALIZED FREE ENERGY PREDICTED BY IDOCK:   -0.64 KCAL/MOL
REMARK 922        TOTAL FREE ENERGY PREDICTED BY IDOCK:   -4.47 KCAL/MOL
REMARK 923 INTER-LIGAND FREE ENERGY PREDICTED BY IDOCK:   -7.81 KCAL/MOL
REMARK 924 INTRA-LIGAND FREE ENERGY PREDICTED BY IDOCK:    3.34 KCAL/MOL
REMARK 927      BINDING AFFINITY PREDICTED BY RF-SCORE:    0.00 PKD
ROOT
HETATM    1  C   UNL     1     -10.812  10.357  67.420  1.00  0.00    -0.286 C  
HETATM    2  S   UNL     1      -9.052  10.501  67.077  1.00  0.00    -0.143 SA 
HETATM    3  C   UNL     1      -8.568   9.243  68.256  1.00  0.00    -0.125 C  
HETATM    4  C   UNL     1      -9.171   9.302  69.639  1.00  0.00    -0.182 C  
HETATM    5  CA  UNL     1     -10.431   9.797  69.844  1.00  0.00    -0.261 C  
HETATM    6  O   UNL     1     -12.766  11.986  69.539  1.00  0.00     0.240 OA 
HETATM    7  C   UNL     1     -11.227   9.580  71.221  1.00  0.00    -0.382 C  
HETATM    8  CA  UNL     1     -11.645  11.662  67.257  1.00  0.00    -0.238 C  
HETATM    9  N   UNL     1     -11.087  10.442  68.827  1.00  0.00    -0.244 N  
HETATM   10  C   UNL     1     -12.032  11.403  68.755  1.00  0.00    -0.287 C  
HETATM   11  O   UNL     1     -12.459   9.352  71.069  1.00  0.00    -0.297 OA 
HETATM   12  OXT UNL     1     -10.507   9.430  72.250  1.00  0.00     0.184 OA 
ENDROOT
BRANCH   4  13
HETATM   13  C   UNL     1      -8.365   8.733  70.807  1.00  0.00    -0.160 C  
BRANCH  13  14
HETATM   14  N   UNL     1      -8.787   7.358  71.511  1.00  0.00    -0.125 N  
HETATM   15  C   UNL     1      -8.969   7.951  73.834  1.00  0.00    -0.287 C  
HETATM   16  C   UNL     1      -7.519   6.840  72.270  1.00  0.00    -0.092 C  
HETATM   17  C   UNL     1      -7.831   6.970  73.756  1.00  0.00    -0.120 C  
HETATM   18  C   UNL     1      -9.802   7.592  72.619  1.00  0.00    -0.206 C  
BRANCH  14  19
HETATM   19  C   UNL     1      -9.121   6.381  70.333  1.00  0.00    -0.155 C  
BRANCH  19  20
HETATM   20  C   UNL     1      -7.926   5.596  69.730  1.00  0.00    -0.098 C  
BRANCH  20  21
HETATM   21  N   UNL     1      -7.752   5.607  68.263  1.00  0.00    -0.088 N  
HETATM   22  C   UNL     1      -8.506   4.878  67.364  1.00  0.00    -0.105 C  
HETATM   23  O   UNL     1      -9.537   4.322  67.721  1.00  0.00    -0.164 OA 
HETATM   24  H   UNL     1      -7.015   6.203  67.882  1.00  0.00     0.000 HD 
BRANCH  22  25
HETATM   25  C   UNL     1      -8.028   4.687  65.942  1.00  0.00    -0.099 A  
HETATM   26  C   UNL     1      -7.634   5.712  65.061  1.00  0.00    -0.082 A  
HETATM   27  C   UNL     1      -7.757   3.348  65.565  1.00  0.00    -0.081 A  
HETATM   28  H   UNL     1      -5.704   2.868  62.241  1.00  0.00     0.000 HD 
HETATM   29  C   UNL     1      -7.090   3.037  64.372  1.00  0.00    -0.056 A  
HETATM   30  O   UNL     1      -5.889   3.772  62.467  1.00  0.00    -0.012 OA 
HETATM   31  H   UNL     1      -5.928   6.128  62.256  1.00  0.00     0.000 HD 
HETATM   32  C   UNL     1      -6.936   5.390  63.883  1.00  0.00    -0.047 A  
HETATM   33 CL   UNL     1      -7.829   7.401  65.404  1.00  0.00    -0.110 Cl 
HETATM   34  C   UNL     1      -6.664   4.065  63.551  1.00  0.00    -0.042 A  
HETATM   35  O   UNL     1      -6.399   6.346  63.051  1.00  0.00    -0.032 OA 
ENDBRANCH  22  25
ENDBRANCH  20  21
ENDBRANCH  19  20
ENDBRANCH  14  19
ENDBRANCH  13  14
ENDBRANCH   4  13
BRANCH   8  36
HETATM   36  N   UNL     1     -10.886  12.930  66.939  1.00  0.00    -0.254 N  
HETATM   37  H   UNL     1     -10.322  12.961  66.090  1.00  0.00     0.000 HD 
HETATM   38  C   UNL     1     -10.924  14.052  67.751  1.00  0.00    -0.258 C  
HETATM   39  O   UNL     1     -11.669  14.245  68.697  1.00  0.00    -0.306 OA 
BRANCH  38  40
HETATM   40  C   UNL     1      -9.925  15.131  67.421  1.00  0.00    -0.226 C  
BRANCH  40  41
HETATM   41  C   UNL     1     -10.302  16.516  67.241  1.00  0.00    -0.296 A  
HETATM   42  H2  UNL     1     -10.570  20.615  68.241  1.00  0.00     0.000 HD 
HETATM   43  C   UNL     1     -10.365  18.621  67.848  1.00  0.00    -0.398 A  
HETATM   44  C   UNL     1     -10.395  17.107  65.989  1.00  0.00    -0.309 A  
HETATM   45  H1  UNL     1     -10.685  19.580  69.657  1.00  0.00     0.000 HD 
HETATM   46  S   UNL     1     -10.148  18.790  66.161  1.00  0.00    -0.336 SA 
HETATM   47  N   UNL     1     -10.555  19.681  68.651  1.00  0.00    -0.130 NA 
HETATM   48  N   UNL     1     -10.378  17.398  68.303  1.00  0.00    -0.353 NA 
ENDBRANCH  40  41
BRANCH  40  49
HETATM   49  N   UNL     1      -8.639  14.976  67.356  1.00  0.00    -0.180 NA 
HETATM   50  H   UNL     1      -8.175  14.714  66.486  1.00  0.00     0.000 HD 
BRANCH  49  51
HETATM   51  O   UNL     1      -7.927  15.183  68.524  1.00  0.00    -0.130 OA 
HETATM   52  O   UNL     1      -5.275  17.218  69.650  1.00  0.00    -0.154 OA 
HETATM   53  C   UNL     1      -7.146  17.268  67.454  1.00  0.00    -0.184 C  
HETATM   54  O   UNL     1      -6.430  15.489  70.530  1.00  0.00     0.041 OA 
HETATM   55  C   UNL     1      -5.815  15.112  67.335  1.00  0.00     0.154 C  
HETATM   56  C   UNL     1      -6.078  16.307  69.503  1.00  0.00    -0.179 C  
HETATM   57  C   UNL     1      -6.761  15.967  68.180  1.00  0.00    -0.124 C  
ENDBRANCH  49  51
ENDBRANCH  40  49
ENDBRANCH  38  40
ENDBRANCH   8  36
TORSDOF 11
ENDMDL
MODEL       74
REMARK 921   NORMALIZED FREE ENERGY PREDICTED BY IDOCK:   -0.58 KCAL/MOL
REMARK 922        TOTAL FREE ENERGY PREDICTED BY IDOCK:   -4.38 KCAL/MOL
REMARK 923 INTER-LIGAND FREE ENERGY PREDICTED BY IDOCK:   -4.66 KCAL/MOL
REMARK 924 INTRA-LIGAND FREE ENERGY PREDICTED BY IDOCK:    0.29 KCAL/MOL
REMARK 927      BINDING AFFINITY PREDICTED BY RF-SCORE:    0.00 PKD
ROOT
HETATM    1  C   UNL     1      -5.589  12.410  68.079  1.00  0.00    -0.073 C  
HETATM    2  S   UNL     1      -6.873  12.761  66.869  1.00  0.00     0.670 SA 
HETATM    3  C   UNL     1      -7.015  14.493  67.302  1.00  0.00     0.087 C  
HETATM    4  C   UNL     1      -7.109  14.849  68.766  1.00  0.00    -0.115 C  
HETATM    5  CA  UNL     1      -6.492  14.087  69.724  1.00  0.00    -0.115 C  
HETATM    6  O   UNL     1      -5.768  11.327  71.203  1.00  0.00    -0.344 OA 
HETATM    7  C   UNL     1      -6.291  14.600  71.231  1.00  0.00     0.334 C  
HETATM    8  CA  UNL     1      -5.589  10.970  68.671  1.00  0.00    -0.043 C  
HETATM    9  N   UNL     1      -5.954  12.872  69.389  1.00  0.00    -0.096 N  
HETATM   10  C   UNL     1      -5.720  11.715  70.045  1.00  0.00    -0.128 C  
HETATM   11  O   UNL     1      -5.177  14.284  71.734  1.00  0.00    -0.149 OA 
HETATM   12  OXT UNL     1      -7.145  15.437  71.642  1.00  0.00     2.052 OA 
ENDROOT
BRANCH   4  13
HETATM   13  C   UNL     1      -7.858  16.123  69.158  1.00  0.00    -0.232 C  
BRANCH  13  14
HETATM   14  N   UNL     1      -8.176  17.261  68.076  1.00  0.00    -0.216 N  
HETATM   15  C   UNL     1      -7.446  19.280  69.159  1.00  0.00    -0.324 C  
HETATM   16  C   UNL     1      -9.429  18.038  68.604  1.00  0.00    -0.309 C  
HETATM   17  C   UNL     1      -8.935  19.426  68.995  1.00  0.00    -0.270 C  
HETATM   18  C   UNL     1      -7.081  18.316  68.047  1.00  0.00    -0.227 C  
BRANCH  14  19
HETATM   19  C   UNL     1      -8.558  16.488  66.768  1.00  0.00    -0.230 C  
BRANCH  19  20
HETATM   20  C   UNL     1      -9.872  15.665  66.815  1.00  0.00    -0.244 C  
BRANCH  20  21
HETATM   21  N   UNL     1     -10.396  15.259  68.135  1.00  0.00    -0.239 N  
HETATM   22  C   UNL     1     -11.715  15.353  68.535  1.00  0.00    -0.338 C  
HETATM   23  O   UNL     1     -12.598  15.587  67.720  1.00  0.00     0.845 OA 
HETATM   24  H   UNL     1      -9.729  14.877  68.807  1.00  0.00     0.000 HD 
BRANCH  22  25
HETATM   25  C   UNL     1     -12.081  15.247  69.998  1.00  0.00    -0.386 A  
HETATM   26  C   UNL     1     -12.511  14.080  70.656  1.00  0.00    -0.365 A  
HETATM   27  C   UNL     1     -11.747  16.373  70.792  1.00  0.00    -0.077 A  
HETATM   28  H   UNL     1     -11.851  15.831  74.690  1.00  0.00     0.000 HD 
HETATM   29  C   UNL     1     -11.806  16.332  72.192  1.00  0.00    -0.585 A  
HETATM   30  O   UNL     1     -12.094  15.070  74.176  1.00  0.00    -0.579 OA 
HETATM   31  H   UNL     1     -12.821  12.865  73.720  1.00  0.00     0.000 HD 
HETATM   32  C   UNL     1     -12.534  14.040  72.063  1.00  0.00    -0.160 A  
HETATM   33 CL   UNL     1     -12.889  12.598  69.837  1.00  0.00     0.410 Cl 
HETATM   34  C   UNL     1     -12.177  15.155  72.816  1.00  0.00    -0.382 A  
HETATM   35  O   UNL     1     -12.806  12.892  72.771  1.00  0.00    -0.068 OA 
ENDBRANCH  22  25
ENDBRANCH  20  21
ENDBRANCH  19  20
ENDBRANCH  14  19
ENDBRANCH  13  14
ENDBRANCH   4  13
BRANCH   8  36
HETATM   36  N   UNL     1      -6.718  10.055  68.259  1.00  0.00    -0.055 N  
HETATM   37  H   UNL     1      -6.498   9.228  67.704  1.00  0.00     0.000 HD 
HETATM   38  C   UNL     1      -8.040  10.290  68.604  1.00  0.00    -0.114 C  
HETATM   39  O   UNL     1      -8.452  11.123  69.394  1.00  0.00     0.050 OA 
BRANCH  38  40
HETATM   40  C   UNL     1      -9.059   9.424  67.910  1.00  0.00    -0.129 C  
BRANCH  40  41
HETATM   41  C   UNL     1      -9.693   9.808  66.667  1.00  0.00    -0.201 A  
HETATM   42  H2  UNL     1     -12.143  12.142  64.132  1.00  0.00     0.000 HD 
HETATM   43  C   UNL     1     -10.973  11.097  65.441  1.00  0.00    -0.081 A  
HETATM   44  C   UNL     1      -9.096   9.605  65.432  1.00  0.00    -0.215 A  
HETATM   45  H1  UNL     1     -12.808  12.007  65.754  1.00  0.00     0.000 HD 
HETATM   46  S   UNL     1      -9.720  10.753  64.328  1.00  0.00    -0.329 SA 
HETATM   47  N   UNL     1     -12.061  11.801  65.091  1.00  0.00    -0.199 NA 
HETATM   48  N   UNL     1     -10.827  10.598  66.637  1.00  0.00    -0.181 NA 
ENDBRANCH  40  41
BRANCH  40  49
HETATM   49  N   UNL     1      -9.411   8.230  68.274  1.00  0.00    -0.135 NA 
HETATM   50  H   UNL     1     -10.162   7.726  67.802  1.00  0.00     0.000 HD 
BRANCH  49  51
HETATM   51  O   UNL     1      -8.717   7.672  69.334  1.00  0.00    -0.135 OA 
HETATM   52  O   UNL     1      -9.145   5.052  71.656  1.00  0.00    -0.137 OA 
HETATM   53  C   UNL     1     -10.263   5.761  69.092  1.00  0.00    -0.289 C  
HETATM   54  O   UNL     1      -7.643   6.719  71.406  1.00  0.00    -0.089 OA 
HETATM   55  C   UNL     1     -10.706   7.654  70.721  1.00  0.00    -0.231 C  
HETATM   56  C   UNL     1      -8.808   6.089  71.101  1.00  0.00    -0.139 C  
HETATM   57  C   UNL     1      -9.636   6.802  70.035  1.00  0.00    -0.157 C  
ENDBRANCH  49  51
ENDBRANCH  40  49
ENDBRANCH  38  40
ENDBRANCH   8  36
TORSDOF 11
ENDMDL
MODEL       75
REMARK 921   NORMALIZED FREE ENERGY PREDICTED BY IDOCK:   -0.51 KCAL/MOL
REMARK 922        TOTAL FREE ENERGY PREDICTED BY IDOCK:   -4.27 KCAL/MOL
REMARK 923 INTER-LIGAND FREE ENERGY PREDICTED BY IDOCK:   -3.99 KCAL/MOL
REMARK 924 INTRA-LIGAND FREE ENERGY PREDICTED BY IDOCK:   -0.28 KCAL/MOL
REMARK 927      BINDING AFFINITY PREDICTED BY RF-SCORE:    0.00 PKD
ROOT
HETATM    1  C   UNL     1     -11.843  11.585  67.465  1.00  0.00    -0.078 C  
HETATM    2  S   UNL     1     -12.320  10.759  68.991  1.00  0.00     0.457 SA 
HETATM    3  C   UNL     1     -12.417  12.267  69.951  1.00  0.00     0.084 C  
HETATM    4  C   UNL     1     -11.276  13.250  69.840  1.00  0.00     0.049 C  
HETATM    5  CA  UNL     1     -10.560  13.378  68.679  1.00  0.00    -0.241 C  
HETATM    6  O   UNL     1      -8.866  12.262  66.185  1.00  0.00    -0.089 OA 
HETATM    7  C   UNL     1      -9.574  14.615  68.409  1.00  0.00    -0.217 C  
HETATM    8  CA  UNL     1     -10.924  10.770  66.510  1.00  0.00    -0.075 C  
HETATM    9  N   UNL     1     -10.730  12.469  67.666  1.00  0.00    -0.214 N  
HETATM   10  C   UNL     1      -9.956  11.994  66.667  1.00  0.00    -0.201 C  
HETATM   11  O   UNL     1      -9.606  15.046  67.223  1.00  0.00    -0.204 OA 
HETATM   12  OXT UNL     1      -9.075  15.150  69.441  1.00  0.00    -0.227 OA 
ENDROOT
BRANCH   4  13
HETATM   13  C   UNL     1     -10.975  14.153  71.036  1.00  0.00     1.192 C  
BRANCH  13  14
HETATM   14  N   UNL     1     -12.030  15.253  71.528  1.00  0.00    -0.331 N  
HETATM   15  C   UNL     1     -13.863  13.938  72.359  1.00  0.00    -0.668 C  
HETATM   16  C   UNL     1     -13.185  15.266  70.472  1.00  0.00    -0.236 C  
HETATM   17  C   UNL     1     -14.408  14.687  71.173  1.00  0.00    -0.204 C  
HETATM   18  C   UNL     1     -12.718  14.822  72.814  1.00  0.00    -0.399 C  
BRANCH  14  19
HETATM   19  C   UNL     1     -11.257  16.615  71.470  1.00  0.00     0.374 C  
BRANCH  19  20
HETATM   20  C   UNL     1     -11.443  17.456  70.179  1.00  0.00     1.969 C  
BRANCH  20  21
HETATM   21  N   UNL     1     -10.239  18.009  69.526  1.00  0.00    -0.207 N  
HETATM   22  C   UNL     1     -10.039  18.098  68.162  1.00  0.00    -0.378 C  
HETATM   23  O   UNL     1     -10.966  17.915  67.383  1.00  0.00    -0.281 OA 
HETATM   24  H   UNL     1      -9.493  18.353  70.133  1.00  0.00     0.000 HD 
BRANCH  22  25
HETATM   25  C   UNL     1      -8.655  18.345  67.606  1.00  0.00    -0.268 A  
HETATM   26  C   UNL     1      -7.467  17.735  68.052  1.00  0.00    -0.226 A  
HETATM   27  C   UNL     1      -8.608  19.085  66.398  1.00  0.00    -0.320 A  
HETATM   28  H   UNL     1      -5.187  19.006  64.452  1.00  0.00     0.000 HD 
HETATM   29  C   UNL     1      -7.433  19.190  65.642  1.00  0.00    -0.102 A  
HETATM   30  O   UNL     1      -5.192  18.517  65.267  1.00  0.00    -0.147 OA 
HETATM   31  H   UNL     1      -4.362  17.192  67.042  1.00  0.00     0.000 HD 
HETATM   32  C   UNL     1      -6.301  17.821  67.268  1.00  0.00    -0.155 A  
HETATM   33 CL   UNL     1      -7.372  16.740  69.469  1.00  0.00    -0.052 Cl 
HETATM   34  C   UNL     1      -6.293  18.536  66.073  1.00  0.00    -0.221 A  
HETATM   35  O   UNL     1      -5.148  17.134  67.572  1.00  0.00    -0.104 OA 
ENDBRANCH  22  25
ENDBRANCH  20  21
ENDBRANCH  19  20
ENDBRANCH  14  19
ENDBRANCH  13  14
ENDBRANCH   4  13
BRANCH   8  36
HETATM   36  N   UNL     1     -10.439   9.425  66.999  1.00  0.00    -0.248 N  
HETATM   37  H   UNL     1     -11.014   8.912  67.667  1.00  0.00     0.000 HD 
HETATM   38  C   UNL     1      -9.245   8.859  66.580  1.00  0.00    -0.183 C  
HETATM   39  O   UNL     1      -8.529   9.250  65.673  1.00  0.00    -0.126 OA 
BRANCH  38  40
HETATM   40  C   UNL     1      -8.795   7.642  67.346  1.00  0.00    -0.124 C  
BRANCH  40  41
HETATM   41  C   UNL     1      -8.262   7.718  68.690  1.00  0.00    -0.128 A  
HETATM   42  H2  UNL     1      -7.917   6.701  72.778  1.00  0.00     0.000 HD 
HETATM   43  C   UNL     1      -8.155   7.098  70.789  1.00  0.00    -0.109 A  
HETATM   44  C   UNL     1      -6.938   8.037  68.949  1.00  0.00    -0.062 A  
HETATM   45  H1  UNL     1      -9.581   6.629  72.218  1.00  0.00     0.000 HD 
HETATM   46  S   UNL     1      -6.498   7.361  70.457  1.00  0.00    -0.039 SA 
HETATM   47  N   UNL     1      -8.593   6.785  72.019  1.00  0.00    -0.122 NA 
HETATM   48  N   UNL     1      -8.972   7.264  69.785  1.00  0.00    -0.142 NA 
ENDBRANCH  40  41
BRANCH  40  49
HETATM   49  N   UNL     1      -8.915   6.412  66.951  1.00  0.00    -0.121 NA 
HETATM   50  H   UNL     1      -9.054   5.649  67.613  1.00  0.00     0.000 HD 
BRANCH  49  51
HETATM   51  O   UNL     1      -8.844   6.187  65.587  1.00  0.00    -0.153 OA 
HETATM   52  O   UNL     1      -8.983   3.443  63.376  1.00  0.00    -0.093 OA 
HETATM   53  C   UNL     1      -9.780   3.959  66.100  1.00  0.00    -0.173 C  
HETATM   54  O   UNL     1      -8.517   5.640  63.148  1.00  0.00    -0.097 OA 
HETATM   55  C   UNL     1      -7.283   4.357  65.897  1.00  0.00    -0.075 C  
HETATM   56  C   UNL     1      -8.749   4.527  63.892  1.00  0.00    -0.139 C  
HETATM   57  C   UNL     1      -8.671   4.763  65.398  1.00  0.00    -0.138 C  
ENDBRANCH  49  51
ENDBRANCH  40  49
ENDBRANCH  38  40
ENDBRANCH   8  36
TORSDOF 11
ENDMDL
MODEL       76
REMARK 921   NORMALIZED FREE ENERGY PREDICTED BY IDOCK:   -0.46 KCAL/MOL
REMARK 922        TOTAL FREE ENERGY PREDICTED BY IDOCK:   -4.18 KCAL/MOL
REMARK 923 INTER-LIGAND FREE ENERGY PREDICTED BY IDOCK:   -4.97 KCAL/MOL
REMARK 924 INTRA-LIGAND FREE ENERGY PREDICTED BY IDOCK:    0.79 KCAL/MOL
REMARK 927      BINDING AFFINITY PREDICTED BY RF-SCORE:    0.00 PKD
ROOT
HETATM    1  C   UNL     1     -11.843  11.585  67.465  1.00  0.00    -0.078 C  
HETATM    2  S   UNL     1     -12.314  10.766  68.996  1.00  0.00     0.457 SA 
HETATM    3  C   UNL     1     -12.401  12.278  69.952  1.00  0.00    -0.052 C  
HETATM    4  C   UNL     1     -11.258  13.257  69.830  1.00  0.00    -0.029 C  
HETATM    5  CA  UNL     1     -10.548  13.378  68.665  1.00  0.00    -0.241 C  
HETATM    6  O   UNL     1      -8.871  12.248  66.166  1.00  0.00    -0.089 OA 
HETATM    7  C   UNL     1      -9.560  14.611  68.385  1.00  0.00    -0.217 C  
HETATM    8  CA  UNL     1     -10.932  10.763  66.508  1.00  0.00    -0.075 C  
HETATM    9  N   UNL     1     -10.726  12.466  67.657  1.00  0.00    -0.216 N  
HETATM   10  C   UNL     1      -9.960  11.985  66.655  1.00  0.00    -0.201 C  
HETATM   11  O   UNL     1      -9.597  15.038  67.197  1.00  0.00    -0.210 OA 
HETATM   12  OXT UNL     1      -9.053  15.149  69.411  1.00  0.00    -0.227 OA 
ENDROOT
BRANCH   4  13
HETATM   13  C   UNL     1     -10.947  14.163  71.021  1.00  0.00     1.192 C  
BRANCH  13  14
HETATM   14  N   UNL     1     -11.996  15.269  71.515  1.00  0.00    -0.331 N  
HETATM   15  C   UNL     1     -13.829  13.963  72.361  1.00  0.00    -0.668 C  
HETATM   16  C   UNL     1     -13.157  15.281  70.465  1.00  0.00    -0.289 C  
HETATM   17  C   UNL     1     -14.378  14.709  71.175  1.00  0.00    -0.204 C  
HETATM   18  C   UNL     1     -12.678  14.845  72.806  1.00  0.00    -0.407 C  
BRANCH  14  19
HETATM   19  C   UNL     1     -11.220  16.628  71.447  1.00  0.00     0.321 C  
BRANCH  19  20
HETATM   20  C   UNL     1     -11.410  17.465  70.154  1.00  0.00     1.640 C  
BRANCH  20  21
HETATM   21  N   UNL     1     -10.207  18.012  69.493  1.00  0.00    -0.207 N  
HETATM   22  C   UNL     1     -10.015  18.095  68.127  1.00  0.00    -0.359 C  
HETATM   23  O   UNL     1     -10.946  17.912  67.354  1.00  0.00    -0.281 OA 
HETATM   24  H   UNL     1      -9.458  18.356  70.094  1.00  0.00     0.000 HD 
BRANCH  22  25
HETATM   25  C   UNL     1      -8.634  18.335  67.562  1.00  0.00    -0.253 A  
HETATM   26  C   UNL     1      -7.445  17.724  68.004  1.00  0.00    -0.226 A  
HETATM   27  C   UNL     1      -8.591  19.071  66.351  1.00  0.00    -0.320 A  
HETATM   28  H   UNL     1      -5.181  18.973  64.387  1.00  0.00     0.000 HD 
HETATM   29  C   UNL     1      -7.419  19.170  65.589  1.00  0.00    -0.102 A  
HETATM   30  O   UNL     1      -5.183  18.488  65.204  1.00  0.00    -0.149 OA 
HETATM   31  H   UNL     1      -4.347  17.167  66.979  1.00  0.00     0.000 HD 
HETATM   32  C   UNL     1      -6.283  17.803  67.214  1.00  0.00    -0.151 A  
HETATM   33 CL   UNL     1      -7.345  16.734  69.425  1.00  0.00    -0.157 Cl 
HETATM   34  C   UNL     1      -6.280  18.514  66.016  1.00  0.00    -0.206 A  
HETATM   35  O   UNL     1      -5.131  17.114  67.513  1.00  0.00    -0.104 OA 
ENDBRANCH  22  25
ENDBRANCH  20  21
ENDBRANCH  19  20
ENDBRANCH  14  19
ENDBRANCH  13  14
ENDBRANCH   4  13
BRANCH   8  36
HETATM   36  N   UNL     1     -10.448   9.419  67.000  1.00  0.00    -0.248 N  
HETATM   37  H   UNL     1     -10.978   8.585  66.744  1.00  0.00     0.000 HD 
HETATM   38  C   UNL     1      -9.315   9.269  67.784  1.00  0.00    -0.128 C  
HETATM   39  O   UNL     1      -8.483  10.125  68.037  1.00  0.00    -0.116 OA 
BRANCH  38  40
HETATM   40  C   UNL     1      -9.116   7.904  68.389  1.00  0.00    -0.135 C  
BRANCH  40  41
HETATM   41  C   UNL     1      -9.917   7.413  69.491  1.00  0.00    -0.179 A  
HETATM   42  H2  UNL     1     -12.080   7.664  73.114  1.00  0.00     0.000 HD 
HETATM   43  C   UNL     1     -11.028   7.661  71.363  1.00  0.00    -0.231 A  
HETATM   44  C   UNL     1     -10.831   6.381  69.345  1.00  0.00    -0.321 A  
HETATM   45  H1  UNL     1     -10.670   8.712  73.112  1.00  0.00     0.000 HD 
HETATM   46  S   UNL     1     -12.036   6.546  70.548  1.00  0.00    -0.099 SA 
HETATM   47  N   UNL     1     -11.270   8.047  72.626  1.00  0.00    -0.385 NA 
HETATM   48  N   UNL     1      -9.986   8.081  70.699  1.00  0.00    -0.189 NA 
ENDBRANCH  40  41
BRANCH  40  49
HETATM   49  N   UNL     1      -8.299   6.995  67.954  1.00  0.00    -0.117 NA 
HETATM   50  H   UNL     1      -7.691   7.163  67.153  1.00  0.00     0.000 HD 
BRANCH  49  51
HETATM   51  O   UNL     1      -8.294   5.787  68.629  1.00  0.00    -0.106 OA 
HETATM   52  O   UNL     1      -6.035   3.156  69.274  1.00  0.00    -0.022 OA 
HETATM   53  C   UNL     1      -5.834   5.913  68.447  1.00  0.00    -0.016 C  
HETATM   54  O   UNL     1      -8.239   3.480  69.643  1.00  0.00    -0.052 OA 
HETATM   55  C   UNL     1      -7.247   4.661  66.754  1.00  0.00    -0.080 C  
HETATM   56  C   UNL     1      -7.046   3.820  69.088  1.00  0.00    -0.046 C  
HETATM   57  C   UNL     1      -7.104   5.074  68.220  1.00  0.00    -0.062 C  
ENDBRANCH  49  51
ENDBRANCH  40  49
ENDBRANCH  38  40
ENDBRANCH   8  36
TORSDOF 11
ENDMDL
MODEL       77
REMARK 921   NORMALIZED FREE ENERGY PREDICTED BY IDOCK:   -0.44 KCAL/MOL
REMARK 922        TOTAL FREE ENERGY PREDICTED BY IDOCK:   -4.16 KCAL/MOL
REMARK 923 INTER-LIGAND FREE ENERGY PREDICTED BY IDOCK:   -3.77 KCAL/MOL
REMARK 924 INTRA-LIGAND FREE ENERGY PREDICTED BY IDOCK:   -0.38 KCAL/MOL
REMARK 927      BINDING AFFINITY PREDICTED BY RF-SCORE:    0.00 PKD
ROOT
HETATM    1  C   UNL     1      -5.589  12.410  68.079  1.00  0.00    -0.073 C  
HETATM    2  S   UNL     1      -6.873  12.761  66.869  1.00  0.00     0.670 SA 
HETATM    3  C   UNL     1      -7.015  14.493  67.302  1.00  0.00     0.087 C  
HETATM    4  C   UNL     1      -7.109  14.849  68.766  1.00  0.00    -0.115 C  
HETATM    5  CA  UNL     1      -6.492  14.087  69.724  1.00  0.00    -0.115 C  
HETATM    6  O   UNL     1      -5.768  11.327  71.203  1.00  0.00    -0.344 OA 
HETATM    7  C   UNL     1      -6.291  14.600  71.231  1.00  0.00     0.334 C  
HETATM    8  CA  UNL     1      -5.589  10.970  68.671  1.00  0.00    -0.043 C  
HETATM    9  N   UNL     1      -5.954  12.872  69.389  1.00  0.00    -0.096 N  
HETATM   10  C   UNL     1      -5.720  11.715  70.045  1.00  0.00    -0.128 C  
HETATM   11  O   UNL     1      -5.177  14.284  71.734  1.00  0.00    -0.149 OA 
HETATM   12  OXT UNL     1      -7.145  15.437  71.642  1.00  0.00     2.052 OA 
ENDROOT
BRANCH   4  13
HETATM   13  C   UNL     1      -7.858  16.123  69.158  1.00  0.00    -0.232 C  
BRANCH  13  14
HETATM   14  N   UNL     1      -8.176  17.261  68.076  1.00  0.00    -0.216 N  
HETATM   15  C   UNL     1      -7.446  19.280  69.159  1.00  0.00    -0.324 C  
HETATM   16  C   UNL     1      -9.429  18.038  68.604  1.00  0.00    -0.309 C  
HETATM   17  C   UNL     1      -8.935  19.426  68.995  1.00  0.00    -0.270 C  
HETATM   18  C   UNL     1      -7.081  18.316  68.047  1.00  0.00    -0.227 C  
BRANCH  14  19
HETATM   19  C   UNL     1      -8.558  16.488  66.768  1.00  0.00    -0.230 C  
BRANCH  19  20
HETATM   20  C   UNL     1      -9.872  15.665  66.815  1.00  0.00    -0.244 C  
BRANCH  20  21
HETATM   21  N   UNL     1     -10.396  15.259  68.135  1.00  0.00    -0.239 N  
HETATM   22  C   UNL     1     -11.715  15.353  68.535  1.00  0.00    -0.338 C  
HETATM   23  O   UNL     1     -12.598  15.587  67.720  1.00  0.00     0.845 OA 
HETATM   24  H   UNL     1      -9.729  14.877  68.807  1.00  0.00     0.000 HD 
BRANCH  22  25
HETATM   25  C   UNL     1     -12.081  15.247  69.998  1.00  0.00    -0.386 A  
HETATM   26  C   UNL     1     -12.511  14.080  70.656  1.00  0.00    -0.365 A  
HETATM   27  C   UNL     1     -11.747  16.373  70.792  1.00  0.00    -0.077 A  
HETATM   28  H   UNL     1     -11.851  15.831  74.690  1.00  0.00     0.000 HD 
HETATM   29  C   UNL     1     -11.806  16.332  72.192  1.00  0.00    -0.585 A  
HETATM   30  O   UNL     1     -12.094  15.070  74.176  1.00  0.00    -0.579 OA 
HETATM   31  H   UNL     1     -12.821  12.865  73.720  1.00  0.00     0.000 HD 
HETATM   32  C   UNL     1     -12.534  14.040  72.063  1.00  0.00    -0.160 A  
HETATM   33 CL   UNL     1     -12.889  12.598  69.837  1.00  0.00     0.410 Cl 
HETATM   34  C   UNL     1     -12.177  15.155  72.816  1.00  0.00    -0.382 A  
HETATM   35  O   UNL     1     -12.806  12.892  72.771  1.00  0.00    -0.068 OA 
ENDBRANCH  22  25
ENDBRANCH  20  21
ENDBRANCH  19  20
ENDBRANCH  14  19
ENDBRANCH  13  14
ENDBRANCH   4  13
BRANCH   8  36
HETATM   36  N   UNL     1      -6.718  10.055  68.259  1.00  0.00    -0.055 N  
HETATM   37  H   UNL     1      -7.455  10.427  67.660  1.00  0.00     0.000 HD 
HETATM   38  C   UNL     1      -6.795   8.730  68.661  1.00  0.00    -0.063 C  
HETATM   39  O   UNL     1      -5.928   8.086  69.228  1.00  0.00    -0.033 OA 
BRANCH  38  40
HETATM   40  C   UNL     1      -8.100   8.035  68.369  1.00  0.00    -0.122 C  
BRANCH  40  41
HETATM   41  C   UNL     1      -9.198   8.007  69.312  1.00  0.00    -0.152 A  
HETATM   42  H2  UNL     1     -11.186   7.014  72.907  1.00  0.00     0.000 HD 
HETATM   43  C   UNL     1     -10.125   7.453  71.218  1.00  0.00    -0.188 A  
HETATM   44  C   UNL     1     -10.105   9.050  69.430  1.00  0.00    -0.198 A  
HETATM   45  H1  UNL     1     -10.124   5.725  72.362  1.00  0.00     0.000 HD 
HETATM   46  S   UNL     1     -10.759   9.027  71.010  1.00  0.00    -0.298 SA 
HETATM   47  N   UNL     1     -10.501   6.664  72.237  1.00  0.00    -0.202 NA 
HETATM   48  N   UNL     1      -9.287   7.049  70.304  1.00  0.00    -0.159 NA 
ENDBRANCH  40  41
BRANCH  40  49
HETATM   49  N   UNL     1      -8.426   7.479  67.244  1.00  0.00    -0.118 NA 
HETATM   50  H   UNL     1      -8.836   6.546  67.207  1.00  0.00     0.000 HD 
BRANCH  49  51
HETATM   51  O   UNL     1      -8.189   8.214  66.095  1.00  0.00    -0.106 OA 
HETATM   52  O   UNL     1      -7.883   7.631  62.629  1.00  0.00    -0.119 OA 
HETATM   53  C   UNL     1      -9.011   6.225  64.883  1.00  0.00     0.364 C  
HETATM   54  O   UNL     1      -7.556   9.417  63.972  1.00  0.00    -0.107 OA 
HETATM   55  C   UNL     1      -6.543   6.610  65.321  1.00  0.00    -0.050 C  
HETATM   56  C   UNL     1      -7.786   8.095  63.758  1.00  0.00    -0.147 C  
HETATM   57  C   UNL     1      -7.893   7.270  65.038  1.00  0.00    -0.125 C  
ENDBRANCH  49  51
ENDBRANCH  40  49
ENDBRANCH  38  40
ENDBRANCH   8  36
TORSDOF 11
ENDMDL
MODEL       78
REMARK 921   NORMALIZED FREE ENERGY PREDICTED BY IDOCK:   -0.37 KCAL/MOL
REMARK 922        TOTAL FREE ENERGY PREDICTED BY IDOCK:   -4.04 KCAL/MOL
REMARK 923 INTER-LIGAND FREE ENERGY PREDICTED BY IDOCK:   -5.12 KCAL/MOL
REMARK 924 INTRA-LIGAND FREE ENERGY PREDICTED BY IDOCK:    1.08 KCAL/MOL
REMARK 927      BINDING AFFINITY PREDICTED BY RF-SCORE:    0.00 PKD
ROOT
HETATM    1  C   UNL     1      -8.979  12.454  69.223  1.00  0.00     0.945 C  
HETATM    2  S   UNL     1     -10.481  12.298  68.246  1.00  0.00    -0.231 SA 
HETATM    3  C   UNL     1      -9.930  10.843  67.359  1.00  0.00    -0.186 C  
HETATM    4  C   UNL     1      -8.537  10.857  66.776  1.00  0.00    -0.137 C  
HETATM    5  CA  UNL     1      -7.524  11.558  67.376  1.00  0.00    -0.127 C  
HETATM    6  O   UNL     1      -6.197  14.171  68.696  1.00  0.00    -0.080 OA 
HETATM    7  C   UNL     1      -5.982  11.340  66.987  1.00  0.00    -0.100 C  
HETATM    8  CA  UNL     1      -8.573  13.904  69.619  1.00  0.00     1.117 C  
HETATM    9  N   UNL     1      -7.804  12.427  68.398  1.00  0.00    -0.143 N  
HETATM   10  C   UNL     1      -7.236  13.553  68.880  1.00  0.00    -0.070 C  
HETATM   11  O   UNL     1      -5.196  11.369  67.975  1.00  0.00    -0.043 OA 
HETATM   12  OXT UNL     1      -5.767  10.938  65.807  1.00  0.00    -0.138 OA 
ENDROOT
BRANCH   4  13
HETATM   13  C   UNL     1      -8.262  10.016  65.530  1.00  0.00    -0.146 C  
BRANCH  13  14
HETATM   14  N   UNL     1      -7.800   8.487  65.650  1.00  0.00    -0.098 N  
HETATM   15  C   UNL     1      -6.437   8.160  63.696  1.00  0.00    -0.072 C  
HETATM   16  C   UNL     1      -8.623   7.689  64.583  1.00  0.00     0.207 C  
HETATM   17  C   UNL     1      -7.625   7.254  63.516  1.00  0.00    -0.117 C  
HETATM   18  C   UNL     1      -6.358   8.309  65.203  1.00  0.00    -0.048 C  
BRANCH  14  19
HETATM   19  C   UNL     1      -8.239   8.038  67.085  1.00  0.00    -0.117 C  
BRANCH  19  20
HETATM   20  C   UNL     1      -9.716   7.591  67.244  1.00  0.00    -0.167 C  
BRANCH  20  21
HETATM   21  N   UNL     1     -10.020   6.512  68.207  1.00  0.00    -0.138 N  
HETATM   22  C   UNL     1      -9.780   6.564  69.566  1.00  0.00    -0.151 C  
HETATM   23  O   UNL     1      -9.490   7.623  70.108  1.00  0.00    -0.161 OA 
HETATM   24  H   UNL     1     -10.440   5.658  67.837  1.00  0.00     0.000 HD 
BRANCH  22  25
HETATM   25  C   UNL     1      -9.795   5.300  70.395  1.00  0.00    -0.281 A  
HETATM   26  C   UNL     1      -9.799   3.985  69.892  1.00  0.00    -0.115 A  
HETATM   27  C   UNL     1      -9.566   5.479  71.783  1.00  0.00    -0.183 A  
HETATM   28  H   UNL     1      -8.719   2.226  73.830  1.00  0.00     0.000 HD 
HETATM   29  C   UNL     1      -9.317   4.395  72.636  1.00  0.00    -0.157 A  
HETATM   30  O   UNL     1      -8.885   2.082  72.906  1.00  0.00    -0.062 OA 
HETATM   31  H   UNL     1      -9.171   0.890  70.882  1.00  0.00     0.000 HD 
HETATM   32  C   UNL     1      -9.515   2.908  70.752  1.00  0.00    -0.153 A  
HETATM   33 CL   UNL     1      -9.994   3.600  68.212  1.00  0.00     0.069 Cl 
HETATM   34  C   UNL     1      -9.270   3.118  72.107  1.00  0.00    -0.107 A  
HETATM   35  O   UNL     1      -9.362   1.616  70.302  1.00  0.00    -0.093 OA 
ENDBRANCH  22  25
ENDBRANCH  20  21
ENDBRANCH  19  20
ENDBRANCH  14  19
ENDBRANCH  13  14
ENDBRANCH   4  13
BRANCH   8  36
HETATM   36  N   UNL     1      -9.409  15.031  69.060  1.00  0.00    -0.207 N  
HETATM   37  H   UNL     1     -10.425  14.973  69.141  1.00  0.00     0.000 HD 
HETATM   38  C   UNL     1      -8.856  16.141  68.441  1.00  0.00    -0.188 C  
HETATM   39  O   UNL     1      -7.676  16.448  68.410  1.00  0.00    -0.162 OA 
BRANCH  38  40
HETATM   40  C   UNL     1      -9.829  17.043  67.726  1.00  0.00    -0.271 C  
BRANCH  40  41
HETATM   41  C   UNL     1      -9.460  18.350  67.227  1.00  0.00    -0.278 A  
HETATM   42  H2  UNL     1      -7.571  21.113  64.646  1.00  0.00     0.000 HD 
HETATM   43  C   UNL     1      -8.453  19.692  65.817  1.00  0.00     0.016 A  
HETATM   44  C   UNL     1     -10.297  19.451  67.332  1.00  0.00    -0.446 A  
HETATM   45  H1  UNL     1      -6.591  19.679  64.909  1.00  0.00     0.000 HD 
HETATM   46  S   UNL     1      -9.906  20.554  66.084  1.00  0.00     0.144 SA 
HETATM   47  N   UNL     1      -7.457  20.192  65.069  1.00  0.00    -0.153 NA 
HETATM   48  N   UNL     1      -8.354  18.539  66.420  1.00  0.00    -0.339 NA 
ENDBRANCH  40  41
BRANCH  40  49
HETATM   49  N   UNL     1     -11.045  16.733  67.396  1.00  0.00    -0.076 NA 
HETATM   50  H   UNL     1     -11.755  16.529  68.100  1.00  0.00     0.000 HD 
BRANCH  49  51
HETATM   51  O   UNL     1     -11.331  16.693  66.043  1.00  0.00     0.321 OA 
HETATM   52  O   UNL     1     -12.420  14.327  63.665  1.00  0.00    -0.816 OA 
HETATM   53  C   UNL     1     -12.466  14.557  66.541  1.00  0.00    -0.036 C  
HETATM   54  O   UNL     1     -11.675  16.456  63.557  1.00  0.00    -0.637 OA 
HETATM   55  C   UNL     1     -10.055  14.651  65.758  1.00  0.00    -0.364 C  
HETATM   56  C   UNL     1     -11.901  15.289  64.215  1.00  0.00    -0.225 C  
HETATM   57  C   UNL     1     -11.438  15.299  65.670  1.00  0.00    -0.123 C  
ENDBRANCH  49  51
ENDBRANCH  40  49
ENDBRANCH  38  40
ENDBRANCH   8  36
TORSDOF 11
ENDMDL
MODEL       79
REMARK 921   NORMALIZED FREE ENERGY PREDICTED BY IDOCK:   -0.26 KCAL/MOL
REMARK 922        TOTAL FREE ENERGY PREDICTED BY IDOCK:   -3.85 KCAL/MOL
REMARK 923 INTER-LIGAND FREE ENERGY PREDICTED BY IDOCK:   -6.66 KCAL/MOL
REMARK 924 INTRA-LIGAND FREE ENERGY PREDICTED BY IDOCK:    2.81 KCAL/MOL
REMARK 927      BINDING AFFINITY PREDICTED BY RF-SCORE:    0.00 PKD
ROOT
HETATM    1  C   UNL     1      -6.448  15.260  69.287  1.00  0.00    -0.131 C  
HETATM    2  S   UNL     1      -5.732  14.911  67.674  1.00  0.00     0.088 SA 
HETATM    3  C   UNL     1      -6.215  16.478  66.955  1.00  0.00    -0.158 C  
HETATM    4  C   UNL     1      -7.634  16.946  67.170  1.00  0.00    -0.210 C  
HETATM    5  CA  UNL     1      -8.324  16.623  68.309  1.00  0.00    -0.198 C  
HETATM    6  O   UNL     1      -9.440  14.596  70.541  1.00  0.00     0.964 OA 
HETATM    7  C   UNL     1      -9.689  17.357  68.724  1.00  0.00    -0.282 C  
HETATM    8  CA  UNL     1      -6.984  14.028  70.074  1.00  0.00     0.214 C  
HETATM    9  N   UNL     1      -7.812  15.695  69.179  1.00  0.00    -0.203 N  
HETATM   10  C   UNL     1      -8.337  14.822  70.066  1.00  0.00     0.587 C  
HETATM   11  O   UNL     1      -9.794  17.581  69.962  1.00  0.00     0.608 OA 
HETATM   12  OXT UNL     1     -10.371  17.824  67.766  1.00  0.00    -0.346 OA 
ENDROOT
BRANCH   4  13
HETATM   13  C   UNL     1      -8.270  17.849  66.113  1.00  0.00    -0.150 C  
BRANCH  13  14
HETATM   14  N   UNL     1      -8.238  19.444  66.258  1.00  0.00    -0.323 N  
HETATM   15  C   UNL     1      -5.892  19.966  66.172  1.00  0.00    -0.183 C  
HETATM   16  C   UNL     1      -7.730  19.747  67.708  1.00  0.00    -0.288 C  
HETATM   17  C   UNL     1      -6.343  20.360  67.553  1.00  0.00    -0.276 C  
HETATM   18  C   UNL     1      -7.172  20.058  65.364  1.00  0.00    -0.230 C  
BRANCH  14  19
HETATM   19  C   UNL     1      -9.732  19.896  66.126  1.00  0.00    -0.427 C  
BRANCH  19  20
HETATM   20  C   UNL     1     -10.689  18.908  65.409  1.00  0.00     0.219 C  
BRANCH  20  21
HETATM   21  N   UNL     1     -10.393  17.463  65.495  1.00  0.00    -0.160 N  
HETATM   22  C   UNL     1     -11.042  16.471  64.785  1.00  0.00    -0.186 C  
HETATM   23  O   UNL     1     -11.780  16.755  63.851  1.00  0.00    -1.076 OA 
HETATM   24  H   UNL     1      -9.649  17.174  66.132  1.00  0.00     0.000 HD 
BRANCH  22  25
HETATM   25  C   UNL     1     -10.912  15.023  65.200  1.00  0.00    -0.417 A  
HETATM   26  C   UNL     1     -11.266  14.491  66.454  1.00  0.00    -0.341 A  
HETATM   27  C   UNL     1     -10.615  14.114  64.153  1.00  0.00     0.385 A  
HETATM   28  H   UNL     1     -11.133  10.300  64.974  1.00  0.00     0.000 HD 
HETATM   29  C   UNL     1     -10.697  12.727  64.334  1.00  0.00    -0.398 A  
HETATM   30  O   UNL     1     -11.322  10.891  65.694  1.00  0.00     0.142 OA 
HETATM   31  H   UNL     1     -11.929  11.576  67.875  1.00  0.00     0.000 HD 
HETATM   32  C   UNL     1     -11.377  13.097  66.615  1.00  0.00    -0.325 A  
HETATM   33 CL   UNL     1     -11.725  15.462  67.815  1.00  0.00    -0.247 Cl 
HETATM   34  C   UNL     1     -11.101  12.231  65.560  1.00  0.00    -0.307 A  
HETATM   35  O   UNL     1     -11.854  12.516  67.767  1.00  0.00    -0.351 OA 
ENDBRANCH  22  25
ENDBRANCH  20  21
ENDBRANCH  19  20
ENDBRANCH  14  19
ENDBRANCH  13  14
ENDBRANCH   4  13
BRANCH   8  36
HETATM   36  N   UNL     1      -6.951  12.692  69.369  1.00  0.00    -0.315 N  
HETATM   37  H   UNL     1      -7.229  12.650  68.389  1.00  0.00     0.000 HD 
HETATM   38  C   UNL     1      -6.560  11.521  69.998  1.00  0.00     0.004 C  
HETATM   39  O   UNL     1      -6.043  11.419  71.099  1.00  0.00    -0.324 OA 
BRANCH  38  40
HETATM   40  C   UNL     1      -6.820  10.250  69.232  1.00  0.00    -0.068 C  
BRANCH  40  41
HETATM   41  C   UNL     1      -6.467  10.093  67.837  1.00  0.00    -0.062 A  
HETATM   42  H2  UNL     1      -5.438   7.986  64.320  1.00  0.00     0.000 HD 
HETATM   43  C   UNL     1      -5.960   8.899  66.070  1.00  0.00    -0.051 A  
HETATM   44  C   UNL     1      -6.936  10.947  66.849  1.00  0.00    -0.119 A  
HETATM   45  H1  UNL     1      -4.745   7.251  65.757  1.00  0.00     0.000 HD 
HETATM   46  S   UNL     1      -6.940  10.107  65.360  1.00  0.00    -0.141 SA 
HETATM   47  N   UNL     1      -5.329   7.971  65.334  1.00  0.00    -0.029 NA 
HETATM   48  N   UNL     1      -5.827   8.961  67.367  1.00  0.00    -0.043 NA 
ENDBRANCH  40  41
BRANCH  40  49
HETATM   49  N   UNL     1      -7.285   9.147  69.731  1.00  0.00    -0.058 NA 
HETATM   50  H   UNL     1      -6.791   8.261  69.626  1.00  0.00     0.000 HD 
BRANCH  49  51
HETATM   51  O   UNL     1      -8.486   9.231  70.415  1.00  0.00    -0.167 OA 
HETATM   52  O   UNL     1     -11.378   7.266  70.878  1.00  0.00    -0.264 OA 
HETATM   53  C   UNL     1      -8.666   6.801  70.010  1.00  0.00    -0.141 C  
HETATM   54  O   UNL     1     -10.784   9.370  71.442  1.00  0.00    -0.332 OA 
HETATM   55  C   UNL     1      -9.730   8.506  68.464  1.00  0.00    -0.174 C  
HETATM   56  C   UNL     1     -10.594   8.199  70.778  1.00  0.00    -0.214 C  
HETATM   57  C   UNL     1      -9.341   8.179  69.906  1.00  0.00    -0.159 C  
ENDBRANCH  49  51
ENDBRANCH  40  49
ENDBRANCH  38  40
ENDBRANCH   8  36
TORSDOF 11
ENDMDL
MODEL       80
REMARK 921   NORMALIZED FREE ENERGY PREDICTED BY IDOCK:    0.07 KCAL/MOL
REMARK 922        TOTAL FREE ENERGY PREDICTED BY IDOCK:   -3.32 KCAL/MOL
REMARK 923 INTER-LIGAND FREE ENERGY PREDICTED BY IDOCK:   -2.91 KCAL/MOL
REMARK 924 INTRA-LIGAND FREE ENERGY PREDICTED BY IDOCK:   -0.41 KCAL/MOL
REMARK 927      BINDING AFFINITY PREDICTED BY RF-SCORE:    0.00 PKD
ROOT
HETATM    1  C   UNL     1     -11.551   8.059  69.783  1.00  0.00     0.385 C  
HETATM    2  S   UNL     1     -11.017   7.180  68.306  1.00  0.00     0.041 SA 
HETATM    3  C   UNL     1     -10.359   5.775  69.200  1.00  0.00    -0.248 C  
HETATM    4  C   UNL     1      -9.473   6.048  70.392  1.00  0.00    -0.187 C  
HETATM    5  CA  UNL     1      -9.649   7.164  71.166  1.00  0.00    -0.164 C  
HETATM    6  O   UNL     1     -10.019  10.320  71.655  1.00  0.00     1.549 OA 
HETATM    7  C   UNL     1      -8.961   7.327  72.607  1.00  0.00    -0.131 C  
HETATM    8  CA  UNL     1     -11.517   9.613  69.699  1.00  0.00    -0.001 C  
HETATM    9  N   UNL     1     -10.495   8.159  70.751  1.00  0.00    -0.200 N  
HETATM   10  C   UNL     1     -10.574   9.493  70.946  1.00  0.00    -0.325 C  
HETATM   11  O   UNL     1      -9.703   7.875  73.470  1.00  0.00    -0.290 OA 
HETATM   12  OXT UNL     1      -7.879   6.693  72.771  1.00  0.00    -0.100 OA 
ENDROOT
BRANCH   4  13
HETATM   13  C   UNL     1      -8.409   5.013  70.758  1.00  0.00    -0.107 C  
BRANCH  13  14
HETATM   14  N   UNL     1      -8.780   3.714  71.619  1.00  0.00    -0.088 N  
HETATM   15  C   UNL     1     -10.904   4.278  72.595  1.00  0.00    -0.129 C  
HETATM   16  C   UNL     1      -8.564   4.100  73.121  1.00  0.00    -0.093 C  
HETATM   17  C   UNL     1      -9.951   4.145  73.752  1.00  0.00    -0.172 C  
HETATM   18  C   UNL     1     -10.266   3.402  71.535  1.00  0.00     0.147 C  
BRANCH  14  19
HETATM   19  C   UNL     1      -7.725   2.633  71.204  1.00  0.00    -0.043 C  
BRANCH  19  20
HETATM   20  C   UNL     1      -6.640   3.085  70.190  1.00  0.00    -0.033 C  
BRANCH  20  21
HETATM   21  N   UNL     1      -7.010   3.163  68.761  1.00  0.00    -0.048 N  
HETATM   22  C   UNL     1      -6.422   3.996  67.829  1.00  0.00    -0.038 C  
HETATM   23  O   UNL     1      -5.382   4.587  68.088  1.00  0.00    -0.010 OA 
HETATM   24  H   UNL     1      -7.760   2.551  68.437  1.00  0.00     0.000 HD 
BRANCH  22  25
HETATM   25  C   UNL     1      -7.096   4.253  66.500  1.00  0.00    -0.067 A  
HETATM   26  C   UNL     1      -6.753   5.267  65.586  1.00  0.00    -0.052 A  
HETATM   27  C   UNL     1      -7.994   3.245  66.067  1.00  0.00    -0.088 A  
HETATM   28  H   UNL     1      -9.085   3.406  62.289  1.00  0.00     0.000 HD 
HETATM   29  C   UNL     1      -8.509   3.225  64.764  1.00  0.00    -0.098 A  
HETATM   30  O   UNL     1      -8.496   4.100  62.563  1.00  0.00    -0.079 OA 
HETATM   31  H   UNL     1      -7.180   6.059  62.400  1.00  0.00     0.000 HD 
HETATM   32  C   UNL     1      -7.250   5.218  64.270  1.00  0.00    -0.054 A  
HETATM   33 CL   UNL     1      -5.617   6.530  65.934  1.00  0.00    -0.020 Cl 
HETATM   34  C   UNL     1      -8.112   4.201  63.868  1.00  0.00    -0.091 A  
HETATM   35  O   UNL     1      -6.845   6.093  63.288  1.00  0.00    -0.041 OA 
ENDBRANCH  22  25
ENDBRANCH  20  21
ENDBRANCH  19  20
ENDBRANCH  14  19
ENDBRANCH  13  14
ENDBRANCH   4  13
BRANCH   8  36
HETATM   36  N   UNL     1     -10.943  10.223  68.441  1.00  0.00    -0.270 N  
HETATM   37  H   UNL     1     -10.933   9.665  67.588  1.00  0.00     0.000 HD 
HETATM   38  C   UNL     1     -10.429  11.510  68.398  1.00  0.00    -0.207 C  
HETATM   39  O   UNL     1     -10.515  12.361  69.267  1.00  0.00     0.015 OA 
BRANCH  38  40
HETATM   40  C   UNL     1      -9.677  11.871  67.143  1.00  0.00    -0.185 C  
BRANCH  40  41
HETATM   41  C   UNL     1     -10.321  11.977  65.851  1.00  0.00    -0.244 A  
HETATM   42  H2  UNL     1     -10.835  11.271  61.715  1.00  0.00     0.000 HD 
HETATM   43  C   UNL     1     -10.501  11.530  63.713  1.00  0.00    -0.405 A  
HETATM   44  C   UNL     1     -11.695  12.108  65.711  1.00  0.00    -0.327 A  
HETATM   45  H1  UNL     1      -9.140  11.412  62.155  1.00  0.00     0.000 HD 
HETATM   46  S   UNL     1     -12.147  11.502  64.177  1.00  0.00     0.240 SA 
HETATM   47  N   UNL     1     -10.121  11.395  62.432  1.00  0.00     0.368 NA 
HETATM   48  N   UNL     1      -9.641  11.734  64.672  1.00  0.00    -0.140 NA 
ENDBRANCH  40  41
BRANCH  40  49
HETATM   49  N   UNL     1      -8.428  12.212  67.081  1.00  0.00    -0.177 NA 
HETATM   50  H   UNL     1      -7.964  12.384  66.189  1.00  0.00     0.000 HD 
BRANCH  49  51
HETATM   51  O   UNL     1      -7.755  12.333  68.285  1.00  0.00    -0.127 OA 
HETATM   52  O   UNL     1      -5.133  14.266  69.637  1.00  0.00    -0.091 OA 
HETATM   53  C   UNL     1      -6.928  14.481  67.388  1.00  0.00    -0.106 C  
HETATM   54  O   UNL     1      -6.327  12.489  70.356  1.00  0.00    -0.074 OA 
HETATM   55  C   UNL     1      -5.604  12.329  67.166  1.00  0.00    -0.085 C  
HETATM   56  C   UNL     1      -5.936  13.373  69.401  1.00  0.00    -0.099 C  
HETATM   57  C   UNL     1      -6.574  13.131  68.035  1.00  0.00    -0.124 C  
ENDBRANCH  49  51
ENDBRANCH  40  49
ENDBRANCH  38  40
ENDBRANCH   8  36
TORSDOF 11
ENDMDL
MODEL       81
REMARK 921   NORMALIZED FREE ENERGY PREDICTED BY IDOCK:    0.13 KCAL/MOL
REMARK 922        TOTAL FREE ENERGY PREDICTED BY IDOCK:   -3.21 KCAL/MOL
REMARK 923 INTER-LIGAND FREE ENERGY PREDICTED BY IDOCK:   -2.17 KCAL/MOL
REMARK 924 INTRA-LIGAND FREE ENERGY PREDICTED BY IDOCK:   -1.04 KCAL/MOL
REMARK 927      BINDING AFFINITY PREDICTED BY RF-SCORE:    0.00 PKD
ROOT
HETATM    1  C   UNL     1     -11.735   8.116  69.870  1.00  0.00     0.421 C  
HETATM    2  S   UNL     1     -11.275   7.376  68.296  1.00  0.00     0.500 SA 
HETATM    3  C   UNL     1     -10.613   5.880  69.025  1.00  0.00    -0.290 C  
HETATM    4  C   UNL     1      -9.677   6.022  70.201  1.00  0.00    -0.204 C  
HETATM    5  CA  UNL     1      -9.800   7.061  71.085  1.00  0.00    -0.176 C  
HETATM    6  O   UNL     1     -10.088  10.160  71.888  1.00  0.00     1.565 OA 
HETATM    7  C   UNL     1      -9.056   7.072  72.507  1.00  0.00    -0.128 C  
HETATM    8  CA  UNL     1     -11.672   9.670  69.934  1.00  0.00     0.040 C  
HETATM    9  N   UNL     1     -10.642   8.105  70.801  1.00  0.00    -0.210 N  
HETATM   10  C   UNL     1     -10.685   9.415  71.126  1.00  0.00    -0.347 C  
HETATM   11  O   UNL     1      -9.753   7.546  73.446  1.00  0.00    -0.240 OA 
HETATM   12  OXT UNL     1      -7.981   6.407  72.566  1.00  0.00    -0.102 OA 
ENDROOT
BRANCH   4  13
HETATM   13  C   UNL     1      -8.621   4.939  70.424  1.00  0.00    -0.099 C  
BRANCH  13  14
HETATM   14  N   UNL     1      -8.970   3.596  71.224  1.00  0.00    -0.095 N  
HETATM   15  C   UNL     1     -10.990   4.156  72.403  1.00  0.00     0.129 C  
HETATM   16  C   UNL     1      -8.623   3.870  72.726  1.00  0.00    -0.099 C  
HETATM   17  C   UNL     1      -9.954   3.913  73.468  1.00  0.00    -0.173 C  
HETATM   18  C   UNL     1     -10.468   3.335  71.239  1.00  0.00     0.802 C  
BRANCH  14  19
HETATM   19  C   UNL     1      -7.991   2.514  70.654  1.00  0.00    -0.042 C  
BRANCH  19  20
HETATM   20  C   UNL     1      -6.820   3.039  69.782  1.00  0.00    -0.034 C  
BRANCH  20  21
HETATM   21  N   UNL     1      -7.125   4.016  68.717  1.00  0.00    -0.053 N  
HETATM   22  C   UNL     1      -6.318   5.075  68.349  1.00  0.00    -0.036 C  
HETATM   23  O   UNL     1      -5.163   5.147  68.749  1.00  0.00     0.000 OA 
HETATM   24  H   UNL     1      -8.005   3.899  68.212  1.00  0.00     0.000 HD 
BRANCH  22  25
HETATM   25  C   UNL     1      -6.871   6.204  67.510  1.00  0.00    -0.063 A  
HETATM   26  C   UNL     1      -7.533   6.064  66.275  1.00  0.00    -0.086 A  
HETATM   27  C   UNL     1      -6.908   7.472  68.143  1.00  0.00    -0.063 A  
HETATM   28  H   UNL     1      -9.111  10.220  66.384  1.00  0.00     0.000 HD 
HETATM   29  C   UNL     1      -7.604   8.554  67.587  1.00  0.00    -0.098 A  
HETATM   30  O   UNL     1      -9.086   9.383  65.936  1.00  0.00    -0.166 OA 
HETATM   31  H   UNL     1      -9.526   7.773  64.259  1.00  0.00     0.000 HD 
HETATM   32  C   UNL     1      -8.255   7.149  65.743  1.00  0.00    -0.132 A  
HETATM   33 CL   UNL     1      -7.642   4.566  65.407  1.00  0.00    -0.081 Cl 
HETATM   34  C   UNL     1      -8.292   8.376  66.401  1.00  0.00    -0.116 A  
HETATM   35  O   UNL     1      -9.039   7.041  64.617  1.00  0.00     0.635 OA 
ENDBRANCH  22  25
ENDBRANCH  20  21
ENDBRANCH  19  20
ENDBRANCH  14  19
ENDBRANCH  13  14
ENDBRANCH   4  13
BRANCH   8  36
HETATM   36  N   UNL     1     -11.134  10.390  68.719  1.00  0.00    -0.249 N  
HETATM   37  H   UNL     1     -10.590   9.860  68.039  1.00  0.00     0.000 HD 
HETATM   38  C   UNL     1     -11.347  11.740  68.490  1.00  0.00    -0.273 C  
HETATM   39  O   UNL     1     -12.105  12.475  69.102  1.00  0.00    -0.247 OA 
BRANCH  38  40
HETATM   40  C   UNL     1     -10.540  12.348  67.372  1.00  0.00    -0.216 C  
BRANCH  40  41
HETATM   41  C   UNL     1     -11.149  12.911  66.186  1.00  0.00    -0.286 A  
HETATM   42  H2  UNL     1     -13.943  13.171  63.024  1.00  0.00     0.000 HD 
HETATM   43  C   UNL     1     -12.660  12.960  64.599  1.00  0.00    -0.391 A  
HETATM   44  C   UNL     1     -11.153  14.272  65.924  1.00  0.00    -0.310 A  
HETATM   45  H1  UNL     1     -13.540  11.506  63.414  1.00  0.00     0.000 HD 
HETATM   46  S   UNL     1     -12.489  14.631  64.919  1.00  0.00    -0.141 SA 
HETATM   47  N   UNL     1     -13.438  12.502  63.605  1.00  0.00     0.204 NA 
HETATM   48  N   UNL     1     -11.956  12.159  65.351  1.00  0.00    -0.444 NA 
ENDBRANCH  40  41
BRANCH  40  49
HETATM   49  N   UNL     1      -9.255  12.524  67.376  1.00  0.00    -0.179 NA 
HETATM   50  H   UNL     1      -8.776  12.984  66.602  1.00  0.00     0.000 HD 
BRANCH  49  51
HETATM   51  O   UNL     1      -8.566  12.058  68.482  1.00  0.00    -0.157 OA 
HETATM   52  O   UNL     1      -5.634  12.860  70.271  1.00  0.00    -0.120 OA 
HETATM   53  C   UNL     1      -7.372  14.219  68.410  1.00  0.00    -0.119 C  
HETATM   54  O   UNL     1      -7.123  11.165  70.346  1.00  0.00     0.028 OA 
HETATM   55  C   UNL     1      -6.456  12.136  67.290  1.00  0.00    -0.152 C  
HETATM   56  C   UNL     1      -6.584  12.273  69.772  1.00  0.00     0.032 C  
HETATM   57  C   UNL     1      -7.262  12.685  68.468  1.00  0.00    -0.113 C  
ENDBRANCH  49  51
ENDBRANCH  40  49
ENDBRANCH  38  40
ENDBRANCH   8  36
TORSDOF 11
ENDMDL
MODEL       82
REMARK 921   NORMALIZED FREE ENERGY PREDICTED BY IDOCK:    0.44 KCAL/MOL
REMARK 922        TOTAL FREE ENERGY PREDICTED BY IDOCK:   -2.70 KCAL/MOL
REMARK 923 INTER-LIGAND FREE ENERGY PREDICTED BY IDOCK:   -4.97 KCAL/MOL
REMARK 924 INTRA-LIGAND FREE ENERGY PREDICTED BY IDOCK:    2.27 KCAL/MOL
REMARK 927      BINDING AFFINITY PREDICTED BY RF-SCORE:    0.00 PKD
ROOT
HETATM    1  C   UNL     1     -12.348   9.813  69.057  1.00  0.00     1.586 C  
HETATM    2  S   UNL     1     -10.824   9.413  68.190  1.00  0.00    -0.052 SA 
HETATM    3  C   UNL     1     -10.589   7.844  69.021  1.00  0.00    -0.162 C  
HETATM    4  C   UNL     1     -10.745   7.809  70.522  1.00  0.00    -0.238 C  
HETATM    5  CA  UNL     1     -11.612   8.652  71.166  1.00  0.00    -0.281 C  
HETATM    6  O   UNL     1     -12.895  11.522  71.840  1.00  0.00    -0.384 OA 
HETATM    7  C   UNL     1     -12.049   8.433  72.694  1.00  0.00    -0.257 C  
HETATM    8  CA  UNL     1     -12.614  11.328  69.300  1.00  0.00     0.278 C  
HETATM    9  N   UNL     1     -12.199   9.684  70.480  1.00  0.00    -0.151 N  
HETATM   10  C   UNL     1     -12.676  10.904  70.809  1.00  0.00    -0.340 C  
HETATM   11  O   UNL     1     -13.266   8.681  72.919  1.00  0.00    -0.248 OA 
HETATM   12  OXT UNL     1     -11.209   7.829  73.421  1.00  0.00    -0.315 OA 
ENDROOT
BRANCH   4  13
HETATM   13  C   UNL     1      -9.958   6.763  71.311  1.00  0.00    -0.176 C  
BRANCH  13  14
HETATM   14  N   UNL     1      -8.356   6.749  71.297  1.00  0.00    -0.119 N  
HETATM   15  C   UNL     1      -7.779   9.067  71.029  1.00  0.00    -0.153 C  
HETATM   16  C   UNL     1      -7.922   6.997  69.813  1.00  0.00    -0.124 C  
HETATM   17  C   UNL     1      -7.287   8.382  69.783  1.00  0.00    -0.060 C  
HETATM   18  C   UNL     1      -7.787   7.943  72.047  1.00  0.00    -0.104 C  
BRANCH  14  19
HETATM   19  C   UNL     1      -7.956   5.294  71.718  1.00  0.00    -0.112 C  
BRANCH  19  20
HETATM   20  C   UNL     1      -7.884   4.243  70.578  1.00  0.00    -0.052 C  
BRANCH  20  21
HETATM   21  N   UNL     1      -7.978   4.719  69.183  1.00  0.00    -0.071 N  
HETATM   22  C   UNL     1      -7.402   4.103  68.089  1.00  0.00    -0.064 C  
HETATM   23  O   UNL     1      -6.944   2.972  68.180  1.00  0.00    -0.048 OA 
HETATM   24  H   UNL     1      -8.511   5.573  69.014  1.00  0.00     0.000 HD 
BRANCH  22  25
HETATM   25  C   UNL     1      -7.258   4.846  66.780  1.00  0.00    -0.080 A  
HETATM   26  C   UNL     1      -8.143   5.823  66.286  1.00  0.00    -0.107 A  
HETATM   27  C   UNL     1      -6.013   4.685  66.122  1.00  0.00    -0.023 A  
HETATM   28  H   UNL     1      -5.243   7.237  63.226  1.00  0.00     0.000 HD 
HETATM   29  C   UNL     1      -5.643   5.487  65.034  1.00  0.00    -0.017 A  
HETATM   30  O   UNL     1      -6.089   7.352  63.643  1.00  0.00    -0.047 OA 
HETATM   31  H   UNL     1      -8.234   8.263  64.051  1.00  0.00     0.000 HD 
HETATM   32  C   UNL     1      -7.748   6.645  65.214  1.00  0.00    -0.099 A  
HETATM   33 CL   UNL     1      -9.672   6.192  67.017  1.00  0.00    -0.154 Cl 
HETATM   34  C   UNL     1      -6.507   6.478  64.604  1.00  0.00    -0.041 A  
HETATM   35  O   UNL     1      -8.501   7.709  64.774  1.00  0.00    -0.080 OA 
ENDBRANCH  22  25
ENDBRANCH  20  21
ENDBRANCH  19  20
ENDBRANCH  14  19
ENDBRANCH  13  14
ENDBRANCH   4  13
BRANCH   8  36
HETATM   36  N   UNL     1     -11.528  12.294  68.887  1.00  0.00    -0.280 N  
HETATM   37  H   UNL     1     -10.641  12.276  69.390  1.00  0.00     0.000 HD 
HETATM   38  C   UNL     1     -11.686  13.203  67.853  1.00  0.00    -0.357 C  
HETATM   39  O   UNL     1     -12.602  13.245  67.049  1.00  0.00    -0.152 OA 
BRANCH  38  40
HETATM   40  C   UNL     1     -10.609  14.251  67.735  1.00  0.00    -0.253 C  
BRANCH  40  41
HETATM   41  C   UNL     1     -10.601  15.247  66.685  1.00  0.00    -0.304 A  
HETATM   42  H2  UNL     1     -11.856  17.099  63.099  1.00  0.00     0.000 HD 
HETATM   43  C   UNL     1     -11.344  16.133  64.824  1.00  0.00    -0.249 A  
HETATM   44  C   UNL     1     -10.261  16.572  66.918  1.00  0.00    -0.296 A  
HETATM   45  H1  UNL     1     -11.939  15.347  63.002  1.00  0.00     0.000 HD 
HETATM   46  S   UNL     1     -11.017  17.545  65.732  1.00  0.00     0.407 SA 
HETATM   47  N   UNL     1     -11.744  16.188  63.543  1.00  0.00    -0.331 NA 
HETATM   48  N   UNL     1     -11.140  15.000  65.437  1.00  0.00    -0.359 NA 
ENDBRANCH  40  41
BRANCH  40  49
HETATM   49  N   UNL     1      -9.646  14.444  68.581  1.00  0.00    -0.216 NA 
HETATM   50  H   UNL     1      -9.816  14.482  69.586  1.00  0.00     0.000 HD 
BRANCH  49  51
HETATM   51  O   UNL     1      -8.375  14.597  68.055  1.00  0.00    -0.133 OA 
HETATM   52  O   UNL     1      -5.217  15.747  69.124  1.00  0.00    -0.100 OA 
HETATM   53  C   UNL     1      -7.638  14.833  70.400  1.00  0.00     0.735 C  
HETATM   54  O   UNL     1      -6.084  15.114  67.138  1.00  0.00    -0.276 OA 
HETATM   55  C   UNL     1      -8.193  16.841  68.954  1.00  0.00    -0.224 C  
HETATM   56  C   UNL     1      -6.193  15.446  68.451  1.00  0.00    -0.109 C  
HETATM   57  C   UNL     1      -7.626  15.421  68.979  1.00  0.00    -0.177 C  
ENDBRANCH  49  51
ENDBRANCH  40  49
ENDBRANCH  38  40
ENDBRANCH   8  36
TORSDOF 11
ENDMDL
MODEL       83
REMARK 921   NORMALIZED FREE ENERGY PREDICTED BY IDOCK:    0.48 KCAL/MOL
REMARK 922        TOTAL FREE ENERGY PREDICTED BY IDOCK:   -2.64 KCAL/MOL
REMARK 923 INTER-LIGAND FREE ENERGY PREDICTED BY IDOCK:   -4.05 KCAL/MOL
REMARK 924 INTRA-LIGAND FREE ENERGY PREDICTED BY IDOCK:    1.41 KCAL/MOL
REMARK 927      BINDING AFFINITY PREDICTED BY RF-SCORE:    0.00 PKD
ROOT
HETATM    1  C   UNL     1      -9.962  15.442  70.196  1.00  0.00    -0.063 C  
HETATM    2  S   UNL     1      -8.259  14.875  70.077  1.00  0.00     0.676 SA 
HETATM    3  C   UNL     1      -7.599  16.481  69.641  1.00  0.00     0.273 C  
HETATM    4  C   UNL     1      -8.308  17.268  68.566  1.00  0.00    -0.267 C  
HETATM    5  CA  UNL     1      -9.661  17.156  68.379  1.00  0.00    -0.281 C  
HETATM    6  O   UNL     1     -12.400  15.528  67.957  1.00  0.00     0.248 OA 
HETATM    7  C   UNL     1     -10.494  18.198  67.486  1.00  0.00    -0.410 C  
HETATM    8  CA  UNL     1     -11.055  14.398  69.823  1.00  0.00    -0.159 C  
HETATM    9  N   UNL     1     -10.362  16.172  69.026  1.00  0.00    -0.241 N  
HETATM   10  C   UNL     1     -11.492  15.478  68.774  1.00  0.00    -0.355 C  
HETATM   11  O   UNL     1     -11.625  18.490  67.963  1.00  0.00     0.751 OA 
HETATM   12  OXT UNL     1      -9.844  18.770  66.564  1.00  0.00    -0.331 OA 
ENDROOT
BRANCH   4  13
HETATM   13  C   UNL     1      -7.491  18.249  67.724  1.00  0.00    -0.221 C  
BRANCH  13  14
HETATM   14  N   UNL     1      -6.568  17.736  66.519  1.00  0.00    -0.198 N  
HETATM   15  C   UNL     1      -5.282  19.681  65.933  1.00  0.00    -0.163 C  
HETATM   16  C   UNL     1      -7.159  18.361  65.211  1.00  0.00     0.300 C  
HETATM   17  C   UNL     1      -6.135  19.384  64.730  1.00  0.00    -0.310 C  
HETATM   18  C   UNL     1      -5.170  18.326  66.605  1.00  0.00    -0.138 C  
BRANCH  14  19
HETATM   19  C   UNL     1      -6.765  16.182  66.486  1.00  0.00     0.456 C  
BRANCH  19  20
HETATM   20  C   UNL     1      -8.161  15.656  66.914  1.00  0.00    -0.255 C  
BRANCH  20  21
HETATM   21  N   UNL     1      -8.890  14.771  65.983  1.00  0.00    -0.413 N  
HETATM   22  C   UNL     1      -9.938  15.158  65.170  1.00  0.00    -0.231 C  
HETATM   23  O   UNL     1     -10.198  16.343  65.008  1.00  0.00    -0.566 OA 
HETATM   24  H   UNL     1      -8.595  13.795  65.935  1.00  0.00     0.000 HD 
BRANCH  22  25
HETATM   25  C   UNL     1     -10.832  14.121  64.529  1.00  0.00    -0.336 A  
HETATM   26  C   UNL     1     -10.417  12.873  64.027  1.00  0.00    -0.368 A  
HETATM   27  C   UNL     1     -12.224  14.356  64.654  1.00  0.00    -0.479 A  
HETATM   28  H   UNL     1     -14.575  11.313  63.810  1.00  0.00     0.000 HD 
HETATM   29  C   UNL     1     -13.171  13.376  64.324  1.00  0.00     0.858 A  
HETATM   30  O   UNL     1     -13.647  11.140  63.704  1.00  0.00     0.731 OA 
HETATM   31  H   UNL     1     -11.682   9.935  63.173  1.00  0.00     0.000 HD 
HETATM   32  C   UNL     1     -11.375  11.885  63.730  1.00  0.00    -0.448 A  
HETATM   33 CL   UNL     1      -8.754  12.402  63.878  1.00  0.00     1.644 Cl 
HETATM   34  C   UNL     1     -12.736  12.139  63.886  1.00  0.00    -0.377 A  
HETATM   35  O   UNL     1     -11.035  10.601  63.373  1.00  0.00     0.268 OA 
ENDBRANCH  22  25
ENDBRANCH  20  21
ENDBRANCH  19  20
ENDBRANCH  14  19
ENDBRANCH  13  14
ENDBRANCH   4  13
BRANCH   8  36
HETATM   36  N   UNL     1     -10.581  13.062  69.299  1.00  0.00    -0.439 N  
HETATM   37  H   UNL     1      -9.847  13.047  68.591  1.00  0.00     0.000 HD 
HETATM   38  C   UNL     1     -11.102  11.855  69.739  1.00  0.00     0.048 C  
HETATM   39  O   UNL     1     -11.852  11.684  70.686  1.00  0.00    -0.321 OA 
BRANCH  38  40
HETATM   40  C   UNL     1     -10.699  10.641  68.942  1.00  0.00    -0.219 C  
BRANCH  40  41
HETATM   41  C   UNL     1      -9.756  10.704  67.846  1.00  0.00    -0.161 A  
HETATM   42  H2  UNL     1      -6.012  11.368  65.998  1.00  0.00     0.000 HD 
HETATM   43  C   UNL     1      -7.767  11.058  66.996  1.00  0.00    -0.134 A  
HETATM   44  C   UNL     1      -9.827   9.857  66.751  1.00  0.00    -0.201 A  
HETATM   45  H1  UNL     1      -6.315  12.503  67.305  1.00  0.00     0.000 HD 
HETATM   46  S   UNL     1      -8.264   9.708  66.073  1.00  0.00    -0.121 SA 
HETATM   47  N   UNL     1      -6.612  11.698  66.755  1.00  0.00    -0.126 NA 
HETATM   48  N   UNL     1      -8.598  11.456  67.920  1.00  0.00    -0.135 NA 
ENDBRANCH  40  41
BRANCH  40  49
HETATM   49  N   UNL     1     -11.059   9.420  69.190  1.00  0.00    -0.433 NA 
HETATM   50  H   UNL     1     -11.969   9.061  68.901  1.00  0.00     0.000 HD 
BRANCH  49  51
HETATM   51  O   UNL     1     -10.148   8.628  69.866  1.00  0.00    -0.186 OA 
HETATM   52  O   UNL     1      -9.263   5.218  70.039  1.00  0.00    -0.130 OA 
HETATM   53  C   UNL     1     -10.681   6.906  68.177  1.00  0.00    -0.260 C  
HETATM   54  O   UNL     1      -8.679   7.068  71.195  1.00  0.00    -0.135 OA 
HETATM   55  C   UNL     1     -11.861   7.003  70.420  1.00  0.00    -0.295 C  
HETATM   56  C   UNL     1      -9.449   6.399  70.296  1.00  0.00    -0.161 C  
HETATM   57  C   UNL     1     -10.551   7.252  69.671  1.00  0.00    -0.235 C  
ENDBRANCH  49  51
ENDBRANCH  40  49
ENDBRANCH  38  40
ENDBRANCH   8  36
TORSDOF 11
ENDMDL
MODEL       84
REMARK 921   NORMALIZED FREE ENERGY PREDICTED BY IDOCK:    0.83 KCAL/MOL
REMARK 922        TOTAL FREE ENERGY PREDICTED BY IDOCK:   -2.06 KCAL/MOL
REMARK 923 INTER-LIGAND FREE ENERGY PREDICTED BY IDOCK:   -3.54 KCAL/MOL
REMARK 924 INTRA-LIGAND FREE ENERGY PREDICTED BY IDOCK:    1.48 KCAL/MOL
REMARK 927      BINDING AFFINITY PREDICTED BY RF-SCORE:    0.00 PKD
ROOT
HETATM    1  C   UNL     1      -5.798  15.969  69.313  1.00  0.00    -0.123 C  
HETATM    2  S   UNL     1      -5.170  15.515  67.689  1.00  0.00     0.026 SA 
HETATM    3  C   UNL     1      -5.907  16.914  66.849  1.00  0.00    -0.172 C  
HETATM    4  C   UNL     1      -7.354  17.231  67.141  1.00  0.00    -0.200 C  
HETATM    5  CA  UNL     1      -7.905  16.968  68.368  1.00  0.00    -0.233 C  
HETATM    6  O   UNL     1      -8.571  15.108  70.903  1.00  0.00     1.520 OA 
HETATM    7  C   UNL     1      -9.318  17.577  68.823  1.00  0.00    -0.239 C  
HETATM    8  CA  UNL     1      -6.106  14.787  70.277  1.00  0.00    -0.167 C  
HETATM    9  N   UNL     1      -7.211  16.221  69.284  1.00  0.00    -0.220 N  
HETATM   10  C   UNL     1      -7.547  15.406  70.306  1.00  0.00     0.544 C  
HETATM   11  O   UNL     1      -9.355  17.936  70.033  1.00  0.00     1.154 OA 
HETATM   12  OXT UNL     1     -10.128  17.840  67.887  1.00  0.00    -0.308 OA 
ENDROOT
BRANCH   4  13
HETATM   13  C   UNL     1      -8.182  17.916  66.054  1.00  0.00    -0.068 C  
BRANCH  13  14
HETATM   14  N   UNL     1      -8.262  19.513  65.956  1.00  0.00    -0.324 N  
HETATM   15  C   UNL     1      -5.980  20.206  66.263  1.00  0.00    -0.193 C  
HETATM   16  C   UNL     1      -8.087  20.056  67.414  1.00  0.00    -0.323 C  
HETATM   17  C   UNL     1      -6.730  20.751  67.448  1.00  0.00    -0.400 C  
HETATM   18  C   UNL     1      -7.065  20.081  65.211  1.00  0.00    -0.219 C  
BRANCH  14  19
HETATM   19  C   UNL     1      -9.715  19.820  65.459  1.00  0.00     0.244 C  
BRANCH  19  20
HETATM   20  C   UNL     1     -10.825  18.843  65.930  1.00  0.00    -0.156 C  
BRANCH  20  21
HETATM   21  N   UNL     1     -11.016  17.587  65.175  1.00  0.00     0.005 N  
HETATM   22  C   UNL     1     -11.361  16.369  65.726  1.00  0.00     0.423 C  
HETATM   23  O   UNL     1     -11.751  16.296  66.884  1.00  0.00     0.528 OA 
HETATM   24  H   UNL     1     -10.882  17.624  64.164  1.00  0.00     0.000 HD 
BRANCH  22  25
HETATM   25  C   UNL     1     -11.187  15.093  64.933  1.00  0.00    -0.424 A  
HETATM   26  C   UNL     1     -10.230  14.092  65.184  1.00  0.00    -0.371 A  
HETATM   27  C   UNL     1     -12.222  14.805  64.008  1.00  0.00    -0.185 A  
HETATM   28  H   UNL     1     -12.296  11.138  62.580  1.00  0.00     0.000 HD 
HETATM   29  C   UNL     1     -12.323  13.558  63.379  1.00  0.00    -0.264 A  
HETATM   30  O   UNL     1     -11.585  11.315  63.185  1.00  0.00    -0.035 OA 
HETATM   31  H   UNL     1      -9.634  10.916  64.464  1.00  0.00     0.000 HD 
HETATM   32  C   UNL     1     -10.360  12.832  64.570  1.00  0.00    -0.349 A  
HETATM   33 CL   UNL     1      -8.944  14.258  66.335  1.00  0.00    -0.165 Cl 
HETATM   34  C   UNL     1     -11.403  12.572  63.684  1.00  0.00    -0.485 A  
HETATM   35  O   UNL     1      -9.546  11.766  64.877  1.00  0.00    -0.210 OA 
ENDBRANCH  22  25
ENDBRANCH  20  21
ENDBRANCH  19  20
ENDBRANCH  14  19
ENDBRANCH  13  14
ENDBRANCH   4  13
BRANCH   8  36
HETATM   36  N   UNL     1      -5.955  13.389  69.724  1.00  0.00    -0.118 N  
HETATM   37  H   UNL     1      -6.081  13.242  68.723  1.00  0.00     0.000 HD 
HETATM   38  C   UNL     1      -5.652  12.295  70.520  1.00  0.00    -0.168 C  
HETATM   39  O   UNL     1      -5.306  12.316  71.690  1.00  0.00    -0.365 OA 
BRANCH  38  40
HETATM   40  C   UNL     1      -5.781  10.948  69.857  1.00  0.00    -0.067 C  
BRANCH  40  41
HETATM   41  C   UNL     1      -6.124   9.747  70.588  1.00  0.00    -0.088 A  
HETATM   42  H2  UNL     1      -8.688   6.799  72.201  1.00  0.00     0.000 HD 
HETATM   43  C   UNL     1      -7.542   8.266  71.361  1.00  0.00    -0.088 A  
HETATM   44  C   UNL     1      -5.286   8.644  70.644  1.00  0.00    -0.021 A  
HETATM   45  H1  UNL     1      -9.415   8.399  72.238  1.00  0.00     0.000 HD 
HETATM   46  S   UNL     1      -6.235   7.251  70.931  1.00  0.00    -0.036 SA 
HETATM   47  N   UNL     1      -8.635   7.794  71.981  1.00  0.00    -0.110 NA 
HETATM   48  N   UNL     1      -7.394   9.534  71.090  1.00  0.00    -0.332 NA 
ENDBRANCH  40  41
BRANCH  40  49
HETATM   49  N   UNL     1      -5.701  10.722  68.582  1.00  0.00    -0.040 NA 
HETATM   50  H   UNL     1      -5.188  11.347  67.960  1.00  0.00     0.000 HD 
BRANCH  49  51
HETATM   51  O   UNL     1      -6.345   9.592  68.108  1.00  0.00    -0.055 OA 
HETATM   52  O   UNL     1      -8.395   8.696  65.382  1.00  0.00    -0.138 OA 
HETATM   53  C   UNL     1      -6.558  10.838  65.986  1.00  0.00    -0.113 C  
HETATM   54  O   UNL     1      -7.727   7.657  67.272  1.00  0.00    -0.108 OA 
HETATM   55  C   UNL     1      -8.396  10.830  67.734  1.00  0.00    -0.113 C  
HETATM   56  C   UNL     1      -7.851   8.752  66.476  1.00  0.00    -0.103 C  
HETATM   57  C   UNL     1      -7.269  10.026  67.083  1.00  0.00    -0.090 C  
ENDBRANCH  49  51
ENDBRANCH  40  49
ENDBRANCH  38  40
ENDBRANCH   8  36
TORSDOF 11
ENDMDL
MODEL       85
REMARK 921   NORMALIZED FREE ENERGY PREDICTED BY IDOCK:    0.94 KCAL/MOL
REMARK 922        TOTAL FREE ENERGY PREDICTED BY IDOCK:   -1.88 KCAL/MOL
REMARK 923 INTER-LIGAND FREE ENERGY PREDICTED BY IDOCK:   -0.75 KCAL/MOL
REMARK 924 INTRA-LIGAND FREE ENERGY PREDICTED BY IDOCK:   -1.13 KCAL/MOL
REMARK 927      BINDING AFFINITY PREDICTED BY RF-SCORE:    0.00 PKD
ROOT
HETATM    1  C   UNL     1      -5.555  12.376  68.060  1.00  0.00    -0.073 C  
HETATM    2  S   UNL     1      -6.831  12.668  66.825  1.00  0.00     0.834 SA 
HETATM    3  C   UNL     1      -7.083  14.382  67.275  1.00  0.00     0.055 C  
HETATM    4  C   UNL     1      -7.230  14.714  68.741  1.00  0.00    -0.124 C  
HETATM    5  CA  UNL     1      -6.591  13.977  69.703  1.00  0.00    -0.099 C  
HETATM    6  O   UNL     1      -5.738  11.244  71.166  1.00  0.00    -0.344 OA 
HETATM    7  C   UNL     1      -6.453  14.480  71.220  1.00  0.00     0.449 C  
HETATM    8  CA  UNL     1      -5.484  10.931  68.635  1.00  0.00    -0.040 C  
HETATM    9  N   UNL     1      -5.975  12.799  69.366  1.00  0.00    -0.096 N  
HETATM   10  C   UNL     1      -5.688  11.649  70.014  1.00  0.00    -0.128 C  
HETATM   11  O   UNL     1      -5.334  14.223  71.745  1.00  0.00    -0.167 OA 
HETATM   12  OXT UNL     1      -7.363  15.261  71.622  1.00  0.00     2.266 OA 
ENDROOT
BRANCH   4  13
HETATM   13  C   UNL     1      -8.060  15.936  69.130  1.00  0.00    -0.239 C  
BRANCH  13  14
HETATM   14  N   UNL     1      -8.471  17.038  68.042  1.00  0.00    -0.210 N  
HETATM   15  C   UNL     1      -7.671  19.094  68.999  1.00  0.00    -0.316 C  
HETATM   16  C   UNL     1      -9.683  17.825  68.643  1.00  0.00    -0.346 C  
HETATM   17  C   UNL     1      -9.169  19.227  68.950  1.00  0.00    -0.383 C  
HETATM   18  C   UNL     1      -7.389  18.096  67.892  1.00  0.00    -0.225 C  
BRANCH  14  19
HETATM   19  C   UNL     1      -8.949  16.222  66.794  1.00  0.00    -0.231 C  
BRANCH  19  20
HETATM   20  C   UNL     1     -10.297  15.466  66.941  1.00  0.00    -0.277 C  
BRANCH  20  21
HETATM   21  N   UNL     1     -10.789  15.176  68.304  1.00  0.00    -0.254 N  
HETATM   22  C   UNL     1     -12.077  15.396  68.751  1.00  0.00    -0.155 C  
HETATM   23  O   UNL     1     -12.976  15.654  67.961  1.00  0.00     1.714 OA 
HETATM   24  H   UNL     1     -10.123  14.780  68.969  1.00  0.00     0.000 HD 
BRANCH  22  25
HETATM   25  C   UNL     1     -12.383  15.400  70.232  1.00  0.00    -0.425 A  
HETATM   26  C   UNL     1     -12.923  14.326  70.964  1.00  0.00    -0.342 A  
HETATM   27  C   UNL     1     -11.873  16.507  70.956  1.00  0.00     0.171 A  
HETATM   28  H   UNL     1     -11.856  16.150  74.876  1.00  0.00     0.000 HD 
HETATM   29  C   UNL     1     -11.869  16.533  72.357  1.00  0.00    -0.425 A  
HETATM   30  O   UNL     1     -12.218  15.404  74.410  1.00  0.00    -0.642 OA 
HETATM   31  H   UNL     1     -13.236  13.293  74.093  1.00  0.00     0.000 HD 
HETATM   32  C   UNL     1     -12.884  14.349  72.370  1.00  0.00    -0.354 A  
HETATM   33 CL   UNL     1     -13.523  12.871  70.234  1.00  0.00     1.136 Cl 
HETATM   34  C   UNL     1     -12.354  15.442  73.053  1.00  0.00    -0.425 A  
HETATM   35  O   UNL     1     -13.263  13.277  73.144  1.00  0.00    -0.279 OA 
ENDBRANCH  22  25
ENDBRANCH  20  21
ENDBRANCH  19  20
ENDBRANCH  14  19
ENDBRANCH  13  14
ENDBRANCH   4  13
BRANCH   8  36
HETATM   36  N   UNL     1      -6.548   9.957  68.187  1.00  0.00    -0.056 N  
HETATM   37  H   UNL     1      -7.252  10.274  67.520  1.00  0.00     0.000 HD 
HETATM   38  C   UNL     1      -6.609   8.649  68.643  1.00  0.00    -0.055 C  
HETATM   39  O   UNL     1      -5.764   8.064  69.299  1.00  0.00    -0.032 OA 
BRANCH  38  40
HETATM   40  C   UNL     1      -7.865   7.894  68.292  1.00  0.00    -0.120 C  
BRANCH  40  41
HETATM   41  C   UNL     1      -7.899   6.452  68.166  1.00  0.00    -0.105 A  
HETATM   42  H2  UNL     1      -6.945   2.692  66.488  1.00  0.00     0.000 HD 
HETATM   43  C   UNL     1      -7.323   4.557  67.229  1.00  0.00    -0.074 A  
HETATM   44  C   UNL     1      -8.039   5.611  69.260  1.00  0.00    -0.096 A  
HETATM   45  H1  UNL     1      -7.090   3.944  65.264  1.00  0.00     0.000 HD 
HETATM   46  S   UNL     1      -7.345   4.097  68.876  1.00  0.00    -0.055 SA 
HETATM   47  N   UNL     1      -7.103   3.670  66.246  1.00  0.00    -0.062 NA 
HETATM   48  N   UNL     1      -7.575   5.813  66.984  1.00  0.00    -0.098 NA 
ENDBRANCH  40  41
BRANCH  40  49
HETATM   49  N   UNL     1      -9.047   8.411  68.159  1.00  0.00    -0.138 NA 
HETATM   50  H   UNL     1      -9.814   7.891  67.733  1.00  0.00     0.000 HD 
BRANCH  49  51
HETATM   51  O   UNL     1      -9.217   9.703  68.625  1.00  0.00    -0.133 OA 
HETATM   52  O   UNL     1     -11.470  12.378  68.164  1.00  0.00    -0.271 OA 
HETATM   53  C   UNL     1     -11.504   9.529  67.707  1.00  0.00     0.754 C  
HETATM   54  O   UNL     1      -9.501  12.131  69.241  1.00  0.00     0.387 OA 
HETATM   55  C   UNL     1      -9.593  10.540  66.380  1.00  0.00    -0.220 C  
HETATM   56  C   UNL     1     -10.475  11.704  68.396  1.00  0.00    -0.213 C  
HETATM   57  C   UNL     1     -10.197  10.339  67.771  1.00  0.00    -0.187 C  
ENDBRANCH  49  51
ENDBRANCH  40  49
ENDBRANCH  38  40
ENDBRANCH   8  36
TORSDOF 11
ENDMDL
MODEL       86
REMARK 921   NORMALIZED FREE ENERGY PREDICTED BY IDOCK:    0.95 KCAL/MOL
REMARK 922        TOTAL FREE ENERGY PREDICTED BY IDOCK:   -1.87 KCAL/MOL
REMARK 923 INTER-LIGAND FREE ENERGY PREDICTED BY IDOCK:   -2.24 KCAL/MOL
REMARK 924 INTRA-LIGAND FREE ENERGY PREDICTED BY IDOCK:    0.38 KCAL/MOL
REMARK 927      BINDING AFFINITY PREDICTED BY RF-SCORE:    0.00 PKD
ROOT
HETATM    1  C   UNL     1      -9.696  14.065  68.635  1.00  0.00    -0.179 C  
HETATM    2  S   UNL     1      -8.675  12.651  68.194  1.00  0.00    -0.179 SA 
HETATM    3  C   UNL     1      -8.523  13.111  66.470  1.00  0.00     0.265 C  
HETATM    4  C   UNL     1      -9.778  13.515  65.733  1.00  0.00    -0.156 C  
HETATM    5  CA  UNL     1     -10.815  14.132  66.382  1.00  0.00    -0.304 C  
HETATM    6  O   UNL     1     -12.984  14.442  68.733  1.00  0.00     0.729 OA 
HETATM    7  C   UNL     1     -12.007  14.863  65.595  1.00  0.00    -0.068 C  
HETATM    8  CA  UNL     1     -10.726  13.830  69.779  1.00  0.00     0.329 C  
HETATM    9  N   UNL     1     -10.819  14.206  67.751  1.00  0.00    -0.250 N  
HETATM   10  C   UNL     1     -11.773  14.281  68.703  1.00  0.00    -0.345 C  
HETATM   11  O   UNL     1     -12.389  15.940  66.131  1.00  0.00     1.297 OA 
HETATM   12  OXT UNL     1     -12.254  14.415  64.438  1.00  0.00    -0.483 OA 
ENDROOT
BRANCH   4  13
HETATM   13  C   UNL     1      -9.843  13.277  64.224  1.00  0.00     0.330 C  
BRANCH  13  14
HETATM   14  N   UNL     1     -10.340  11.876  63.628  1.00  0.00    -0.399 N  
HETATM   15  C   UNL     1     -12.657  12.273  63.124  1.00  0.00    -0.270 C  
HETATM   16  C   UNL     1     -11.223  11.210  64.736  1.00  0.00     0.030 C  
HETATM   17  C   UNL     1     -12.653  11.228  64.207  1.00  0.00     1.110 C  
HETATM   18  C   UNL     1     -11.303  12.079  62.469  1.00  0.00     1.534 C  
BRANCH  14  19
HETATM   19  C   UNL     1      -9.035  11.032  63.427  1.00  0.00    -0.139 C  
BRANCH  19  20
HETATM   20  C   UNL     1      -8.486  10.304  64.683  1.00  0.00    -0.175 C  
BRANCH  20  21
HETATM   21  N   UNL     1      -8.779   8.864  64.839  1.00  0.00    -0.290 N  
HETATM   22  C   UNL     1      -7.946   7.941  65.440  1.00  0.00    -0.123 C  
HETATM   23  O   UNL     1      -6.976   8.307  66.092  1.00  0.00    -0.060 OA 
HETATM   24  H   UNL     1      -9.669   8.524  64.473  1.00  0.00     0.000 HD 
BRANCH  22  25
HETATM   25  C   UNL     1      -8.172   6.460  65.238  1.00  0.00    -0.137 A  
HETATM   26  C   UNL     1      -8.246   5.801  63.996  1.00  0.00    -0.084 A  
HETATM   27  C   UNL     1      -8.078   5.664  66.407  1.00  0.00    -0.106 A  
HETATM   28  H   UNL     1      -7.773   1.781  65.837  1.00  0.00     0.000 HD 
HETATM   29  C   UNL     1      -8.028   4.265  66.345  1.00  0.00    -0.098 A  
HETATM   30  O   UNL     1      -7.851   2.295  65.042  1.00  0.00    -0.075 OA 
HETATM   31  H   UNL     1      -8.029   2.751  62.727  1.00  0.00     0.000 HD 
HETATM   32  C   UNL     1      -8.162   4.396  63.944  1.00  0.00    -0.099 A  
HETATM   33 CL   UNL     1      -8.295   6.626  62.471  1.00  0.00    -0.024 Cl 
HETATM   34  C   UNL     1      -8.046   3.643  65.110  1.00  0.00    -0.097 A  
HETATM   35  O   UNL     1      -8.086   3.698  62.762  1.00  0.00    -0.070 OA 
ENDBRANCH  22  25
ENDBRANCH  20  21
ENDBRANCH  19  20
ENDBRANCH  14  19
ENDBRANCH  13  14
ENDBRANCH   4  13
BRANCH   8  36
HETATM   36  N   UNL     1     -10.842  12.426  70.324  1.00  0.00     0.535 N  
HETATM   37  H   UNL     1     -10.527  12.244  71.278  1.00  0.00     0.000 HD 
HETATM   38  C   UNL     1     -11.357  11.372  69.585  1.00  0.00    -0.275 C  
HETATM   39  O   UNL     1     -11.926  11.445  68.508  1.00  0.00    -0.498 OA 
BRANCH  38  40
HETATM   40  C   UNL     1     -11.173  10.002  70.184  1.00  0.00    -0.304 C  
BRANCH  40  41
HETATM   41  C   UNL     1      -9.880   9.359  70.280  1.00  0.00    -0.243 A  
HETATM   42  H2  UNL     1      -6.801   7.116  72.112  1.00  0.00     0.000 HD 
HETATM   43  C   UNL     1      -8.359   8.169  71.317  1.00  0.00    -0.121 A  
HETATM   44  C   UNL     1      -9.236   8.812  69.180  1.00  0.00    -0.149 A  
HETATM   45  H1  UNL     1      -7.652   8.133  73.264  1.00  0.00     0.000 HD 
HETATM   46  S   UNL     1      -8.181   7.580  69.722  1.00  0.00    -0.130 SA 
HETATM   47  N   UNL     1      -7.547   7.782  72.313  1.00  0.00    -0.078 NA 
HETATM   48  N   UNL     1      -9.304   9.050  71.499  1.00  0.00    -0.285 NA 
ENDBRANCH  40  41
BRANCH  40  49
HETATM   49  N   UNL     1     -12.098   9.296  70.756  1.00  0.00    -0.443 NA 
HETATM   50  H   UNL     1     -13.067   9.327  70.439  1.00  0.00     0.000 HD 
BRANCH  49  51
HETATM   51  O   UNL     1     -11.707   8.498  71.817  1.00  0.00    -0.286 OA 
HETATM   52  O   UNL     1     -11.708   5.072  72.657  1.00  0.00    -0.129 OA 
HETATM   53  C   UNL     1     -11.909   6.617  70.228  1.00  0.00    -0.378 C  
HETATM   54  O   UNL     1     -11.229   6.978  73.770  1.00  0.00     0.034 OA 
HETATM   55  C   UNL     1     -13.807   7.285  71.773  1.00  0.00    -0.420 C  
HETATM   56  C   UNL     1     -11.721   6.295  72.703  1.00  0.00    -0.125 C  
HETATM   57  C   UNL     1     -12.289   7.190  71.605  1.00  0.00    -0.362 C  
ENDBRANCH  49  51
ENDBRANCH  40  49
ENDBRANCH  38  40
ENDBRANCH   8  36
TORSDOF 11
ENDMDL
MODEL       87
REMARK 921   NORMALIZED FREE ENERGY PREDICTED BY IDOCK:    1.10 KCAL/MOL
REMARK 922        TOTAL FREE ENERGY PREDICTED BY IDOCK:   -1.62 KCAL/MOL
REMARK 923 INTER-LIGAND FREE ENERGY PREDICTED BY IDOCK:   -3.22 KCAL/MOL
REMARK 924 INTRA-LIGAND FREE ENERGY PREDICTED BY IDOCK:    1.60 KCAL/MOL
REMARK 927      BINDING AFFINITY PREDICTED BY RF-SCORE:    0.00 PKD
ROOT
HETATM    1  C   UNL     1      -5.125  12.574  68.571  1.00  0.00    -0.057 C  
HETATM    2  S   UNL     1      -5.945  12.929  67.010  1.00  0.00     0.710 SA 
HETATM    3  C   UNL     1      -6.365  14.615  67.444  1.00  0.00     0.133 C  
HETATM    4  C   UNL     1      -6.980  14.863  68.800  1.00  0.00    -0.109 C  
HETATM    5  CA  UNL     1      -6.666  14.075  69.877  1.00  0.00     0.001 C  
HETATM    6  O   UNL     1      -6.267  11.269  71.392  1.00  0.00     0.060 OA 
HETATM    7  C   UNL     1      -7.031  14.494  71.382  1.00  0.00     1.582 C  
HETATM    8  CA  UNL     1      -5.210  11.099  69.063  1.00  0.00    -0.040 C  
HETATM    9  N   UNL     1      -5.950  12.921  69.694  1.00  0.00    -0.111 N  
HETATM   10  C   UNL     1      -5.860  11.738  70.340  1.00  0.00    -0.156 C  
HETATM   11  O   UNL     1      -6.133  14.212  72.224  1.00  0.00    -0.216 OA 
HETATM   12  OXT UNL     1      -8.039  15.248  71.511  1.00  0.00     2.999 OA 
ENDROOT
BRANCH   4  13
HETATM   13  C   UNL     1      -7.918  16.058  68.966  1.00  0.00    -0.224 C  
BRANCH  13  14
HETATM   14  N   UNL     1      -7.999  17.206  67.851  1.00  0.00    -0.188 N  
HETATM   15  C   UNL     1      -7.881  19.238  69.132  1.00  0.00    -0.250 C  
HETATM   16  C   UNL     1      -9.433  17.826  67.956  1.00  0.00    -0.281 C  
HETATM   17  C   UNL     1      -9.247  19.238  68.500  1.00  0.00    -0.434 C  
HETATM   18  C   UNL     1      -7.076  18.367  68.186  1.00  0.00    -0.248 C  
BRANCH  14  19
HETATM   19  C   UNL     1      -7.855  16.458  66.482  1.00  0.00    -0.288 C  
BRANCH  19  20
HETATM   20  C   UNL     1      -8.919  15.370  66.178  1.00  0.00    -0.259 C  
BRANCH  20  21
HETATM   21  N   UNL     1      -9.653  14.775  67.313  1.00  0.00    -0.219 N  
HETATM   22  C   UNL     1     -11.008  14.508  67.336  1.00  0.00    -0.303 C  
HETATM   23  O   UNL     1     -11.670  14.551  66.307  1.00  0.00    -0.371 OA 
HETATM   24  H   UNL     1      -9.115  14.542  68.149  1.00  0.00     0.000 HD 
BRANCH  22  25
HETATM   25  C   UNL     1     -11.713  14.234  68.646  1.00  0.00    -0.380 A  
HETATM   26  C   UNL     1     -11.820  12.980  69.277  1.00  0.00    -0.316 A  
HETATM   27  C   UNL     1     -12.096  15.383  69.383  1.00  0.00    -0.308 A  
HETATM   28  H   UNL     1     -13.111  14.771  73.136  1.00  0.00     0.000 HD 
HETATM   29  C   UNL     1     -12.540  15.295  70.709  1.00  0.00    -0.474 A  
HETATM   30  O   UNL     1     -12.873  13.987  72.656  1.00  0.00    -0.366 OA 
HETATM   31  H   UNL     1     -12.506  11.686  72.245  1.00  0.00     0.000 HD 
HETATM   32  C   UNL     1     -12.235  12.907  70.620  1.00  0.00    -0.302 A  
HETATM   33 CL   UNL     1     -11.328  11.489  68.541  1.00  0.00    -0.306 Cl 
HETATM   34  C   UNL     1     -12.583  14.057  71.325  1.00  0.00    -0.367 A  
HETATM   35  O   UNL     1     -12.227  11.735  71.339  1.00  0.00    -0.134 OA 
ENDBRANCH  22  25
ENDBRANCH  20  21
ENDBRANCH  19  20
ENDBRANCH  14  19
ENDBRANCH  13  14
ENDBRANCH   4  13
BRANCH   8  36
HETATM   36  N   UNL     1      -6.054  10.147  68.248  1.00  0.00    -0.045 N  
HETATM   37  H   UNL     1      -5.625   9.289  67.901  1.00  0.00     0.000 HD 
HETATM   38  C   UNL     1      -7.386  10.390  67.951  1.00  0.00    -0.086 C  
HETATM   39  O   UNL     1      -8.091  11.267  68.421  1.00  0.00    -0.128 OA 
BRANCH  38  40
HETATM   40  C   UNL     1      -8.005   9.471  66.930  1.00  0.00    -0.109 C  
BRANCH  40  41
HETATM   41  C   UNL     1      -8.025   9.776  65.515  1.00  0.00    -0.123 A  
HETATM   42  H2  UNL     1      -6.422  10.201  61.627  1.00  0.00     0.000 HD 
HETATM   43  C   UNL     1      -7.095   9.943  63.538  1.00  0.00    -0.120 A  
HETATM   44  C   UNL     1      -9.145   9.571  64.724  1.00  0.00    -0.218 A  
HETATM   45  H1  UNL     1      -5.266  10.652  62.871  1.00  0.00     0.000 HD 
HETATM   46  S   UNL     1      -8.638   9.344  63.107  1.00  0.00    -0.209 SA 
HETATM   47  N   UNL     1      -6.186  10.294  62.615  1.00  0.00    -0.129 NA 
HETATM   48  N   UNL     1      -6.871  10.078  64.816  1.00  0.00    -0.129 NA 
ENDBRANCH  40  41
BRANCH  40  49
HETATM   49  N   UNL     1      -8.492   8.293  67.169  1.00  0.00    -0.122 NA 
HETATM   50  H   UNL     1      -9.394   8.170  67.629  1.00  0.00     0.000 HD 
BRANCH  49  51
HETATM   51  O   UNL     1      -7.728   7.210  66.770  1.00  0.00    -0.094 OA 
HETATM   52  O   UNL     1      -7.490   3.765  67.489  1.00  0.00    -0.066 OA 
HETATM   53  C   UNL     1      -9.480   5.827  67.828  1.00  0.00    -0.116 C  
HETATM   54  O   UNL     1      -6.261   5.220  66.276  1.00  0.00    -0.029 OA 
HETATM   55  C   UNL     1      -7.378   6.518  69.068  1.00  0.00    -0.093 C  
HETATM   56  C   UNL     1      -7.245   4.919  67.165  1.00  0.00    -0.077 C  
HETATM   57  C   UNL     1      -7.978   6.141  67.712  1.00  0.00    -0.106 C  
ENDBRANCH  49  51
ENDBRANCH  40  49
ENDBRANCH  38  40
ENDBRANCH   8  36
TORSDOF 11
ENDMDL
MODEL       88
REMARK 921   NORMALIZED FREE ENERGY PREDICTED BY IDOCK:    1.14 KCAL/MOL
REMARK 922        TOTAL FREE ENERGY PREDICTED BY IDOCK:   -1.56 KCAL/MOL
REMARK 923 INTER-LIGAND FREE ENERGY PREDICTED BY IDOCK:   -0.58 KCAL/MOL
REMARK 924 INTRA-LIGAND FREE ENERGY PREDICTED BY IDOCK:   -0.98 KCAL/MOL
REMARK 927      BINDING AFFINITY PREDICTED BY RF-SCORE:    0.00 PKD
ROOT
HETATM    1  C   UNL     1     -11.608   8.069  69.789  1.00  0.00     0.385 C  
HETATM    2  S   UNL     1     -10.991   7.167  68.360  1.00  0.00     0.050 SA 
HETATM    3  C   UNL     1     -10.475   5.734  69.302  1.00  0.00    -0.287 C  
HETATM    4  C   UNL     1      -9.681   5.967  70.565  1.00  0.00    -0.210 C  
HETATM    5  CA  UNL     1      -9.871   7.091  71.325  1.00  0.00    -0.175 C  
HETATM    6  O   UNL     1     -10.139  10.260  71.790  1.00  0.00     1.719 OA 
HETATM    7  C   UNL     1      -9.301   7.224  72.820  1.00  0.00    -0.149 C  
HETATM    8  CA  UNL     1     -11.497   9.620  69.713  1.00  0.00    -0.052 C  
HETATM    9  N   UNL     1     -10.634   8.122  70.843  1.00  0.00    -0.207 N  
HETATM   10  C   UNL     1     -10.669   9.459  71.035  1.00  0.00    -0.337 C  
HETATM   11  O   UNL     1     -10.088   7.804  73.618  1.00  0.00    -0.294 OA 
HETATM   12  OXT UNL     1      -8.266   6.541  73.072  1.00  0.00    -0.111 OA 
ENDROOT
BRANCH   4  13
HETATM   13  C   UNL     1      -8.700   4.886  71.017  1.00  0.00    -0.125 C  
BRANCH  13  14
HETATM   14  N   UNL     1      -9.212   3.557  71.750  1.00  0.00    -0.112 N  
HETATM   15  C   UNL     1     -11.503   4.059  72.278  1.00  0.00     0.937 C  
HETATM   16  C   UNL     1      -9.319   3.903  73.273  1.00  0.00    -0.108 C  
HETATM   17  C   UNL     1     -10.807   3.907  73.604  1.00  0.00    -0.331 C  
HETATM   18  C   UNL     1     -10.641   3.223  71.352  1.00  0.00     0.960 C  
BRANCH  14  19
HETATM   19  C   UNL     1      -8.071   2.505  71.535  1.00  0.00    -0.051 C  
BRANCH  19  20
HETATM   20  C   UNL     1      -6.799   3.011  70.804  1.00  0.00    -0.033 C  
BRANCH  20  21
HETATM   21  N   UNL     1      -6.847   3.151  69.335  1.00  0.00    -0.037 N  
HETATM   22  C   UNL     1      -6.080   4.027  68.590  1.00  0.00    -0.031 C  
HETATM   23  O   UNL     1      -5.129   4.609  69.097  1.00  0.00     0.000 OA 
HETATM   24  H   UNL     1      -7.499   2.552  68.827  1.00  0.00     0.000 HD 
BRANCH  22  25
HETATM   25  C   UNL     1      -6.449   4.341  67.158  1.00  0.00    -0.042 A  
HETATM   26  C   UNL     1      -6.683   3.396  66.142  1.00  0.00    -0.048 A  
HETATM   27  C   UNL     1      -6.795   5.691  66.901  1.00  0.00    -0.063 A  
HETATM   28  H   UNL     1      -8.592   6.393  63.470  1.00  0.00     0.000 HD 
HETATM   29  C   UNL     1      -7.382   6.085  65.691  1.00  0.00    -0.076 A  
HETATM   30  O   UNL     1      -8.354   5.485  63.616  1.00  0.00    -0.122 OA 
HETATM   31  H   UNL     1      -8.107   3.176  63.162  1.00  0.00     0.000 HD 
HETATM   32  C   UNL     1      -7.303   3.797  64.944  1.00  0.00    -0.068 A  
HETATM   33 CL   UNL     1      -6.382   1.697  66.322  1.00  0.00    -0.023 Cl 
HETATM   34  C   UNL     1      -7.652   5.128  64.730  1.00  0.00    -0.078 A  
HETATM   35  O   UNL     1      -7.689   2.905  63.970  1.00  0.00    -0.073 OA 
ENDBRANCH  22  25
ENDBRANCH  20  21
ENDBRANCH  19  20
ENDBRANCH  14  19
ENDBRANCH  13  14
ENDBRANCH   4  13
BRANCH   8  36
HETATM   36  N   UNL     1     -10.792  10.203  68.510  1.00  0.00    -0.229 N  
HETATM   37  H   UNL     1     -10.112   9.626  68.015  1.00  0.00     0.000 HD 
HETATM   38  C   UNL     1     -11.029  11.489  68.051  1.00  0.00    -0.231 C  
HETATM   39  O   UNL     1     -11.918  12.243  68.414  1.00  0.00    -0.326 OA 
BRANCH  38  40
HETATM   40  C   UNL     1     -10.072  11.995  67.004  1.00  0.00    -0.203 C  
BRANCH  40  41
HETATM   41  C   UNL     1      -9.896  11.341  65.725  1.00  0.00    -0.232 A  
HETATM   42  H2  UNL     1      -9.537   8.072  63.068  1.00  0.00     0.000 HD 
HETATM   43  C   UNL     1      -9.742   9.575  64.436  1.00  0.00     0.355 A  
HETATM   44  C   UNL     1     -10.353  11.891  64.537  1.00  0.00    -0.292 A  
HETATM   45  H1  UNL     1      -8.793   7.743  64.626  1.00  0.00     0.000 HD 
HETATM   46  S   UNL     1     -10.628  10.626  63.419  1.00  0.00     0.578 SA 
HETATM   47  N   UNL     1      -9.321   8.370  64.020  1.00  0.00     1.215 NA 
HETATM   48  N   UNL     1      -9.463  10.032  65.626  1.00  0.00    -0.201 NA 
ENDBRANCH  40  41
BRANCH  40  49
HETATM   49  N   UNL     1      -9.384  13.092  67.075  1.00  0.00    -0.230 NA 
HETATM   50  H   UNL     1      -8.695  13.339  66.364  1.00  0.00     0.000 HD 
BRANCH  49  51
HETATM   51  O   UNL     1      -9.629  13.912  68.163  1.00  0.00    -0.206 OA 
HETATM   52  O   UNL     1      -9.581  17.359  68.909  1.00  0.00    -0.271 OA 
HETATM   53  C   UNL     1      -9.710  15.751  66.516  1.00  0.00    -0.285 C  
HETATM   54  O   UNL     1      -9.844  15.477  70.128  1.00  0.00    -0.239 OA 
HETATM   55  C   UNL     1      -7.588  15.162  67.774  1.00  0.00    -0.171 C  
HETATM   56  C   UNL     1      -9.533  16.139  68.982  1.00  0.00    -0.246 C  
HETATM   57  C   UNL     1      -9.116  15.224  67.834  1.00  0.00    -0.175 C  
ENDBRANCH  49  51
ENDBRANCH  40  49
ENDBRANCH  38  40
ENDBRANCH   8  36
TORSDOF 11
ENDMDL
MODEL       89
REMARK 921   NORMALIZED FREE ENERGY PREDICTED BY IDOCK:    1.29 KCAL/MOL
REMARK 922        TOTAL FREE ENERGY PREDICTED BY IDOCK:   -1.30 KCAL/MOL
REMARK 923 INTER-LIGAND FREE ENERGY PREDICTED BY IDOCK:   -6.98 KCAL/MOL
REMARK 924 INTRA-LIGAND FREE ENERGY PREDICTED BY IDOCK:    5.68 KCAL/MOL
REMARK 927      BINDING AFFINITY PREDICTED BY RF-SCORE:    0.00 PKD
ROOT
HETATM    1  C   UNL     1      -6.750   8.659  69.691  1.00  0.00    -0.039 C  
HETATM    2  S   UNL     1      -8.475   8.621  70.202  1.00  0.00    -0.145 SA 
HETATM    3  C   UNL     1      -8.738   6.921  69.707  1.00  0.00    -0.141 C  
HETATM    4  C   UNL     1      -8.248   6.498  68.344  1.00  0.00    -0.114 C  
HETATM    5  CA  UNL     1      -7.143   7.075  67.776  1.00  0.00    -0.085 C  
HETATM    6  O   UNL     1      -5.336   9.562  66.837  1.00  0.00    -0.044 OA 
HETATM    7  C   UNL     1      -6.404   6.443  66.499  1.00  0.00    -0.042 C  
HETATM    8  CA  UNL     1      -6.218  10.036  69.196  1.00  0.00    -0.040 C  
HETATM    9  N   UNL     1      -6.586   8.191  68.344  1.00  0.00    -0.058 N  
HETATM   10  C   UNL     1      -5.874   9.244  67.887  1.00  0.00    -0.041 C  
HETATM   11  O   UNL     1      -5.145   6.520  66.546  1.00  0.00    -0.012 OA 
HETATM   12  OXT UNL     1      -7.134   5.750  65.732  1.00  0.00    -0.066 OA 
ENDROOT
BRANCH   4  13
HETATM   13  C   UNL     1      -8.977   5.359  67.630  1.00  0.00    -0.108 C  
BRANCH  13  14
HETATM   14  N   UNL     1      -9.980   5.652  66.416  1.00  0.00    -0.164 N  
HETATM   15  C   UNL     1     -10.068   3.553  65.246  1.00  0.00     0.079 C  
HETATM   16  C   UNL     1      -9.099   5.751  65.126  1.00  0.00     0.143 C  
HETATM   17  C   UNL     1      -9.436   4.524  64.286  1.00  0.00    -0.055 C  
HETATM   18  C   UNL     1     -10.884   4.459  66.147  1.00  0.00     0.566 C  
BRANCH  14  19
HETATM   19  C   UNL     1     -10.603   7.055  66.728  1.00  0.00    -0.227 C  
BRANCH  19  20
HETATM   20  C   UNL     1     -10.361   7.612  68.156  1.00  0.00    -0.204 C  
BRANCH  20  21
HETATM   21  N   UNL     1     -11.327   8.589  68.697  1.00  0.00    -0.019 N  
HETATM   22  C   UNL     1     -11.019   9.869  69.118  1.00  0.00    -0.200 C  
HETATM   23  O   UNL     1      -9.928  10.363  68.862  1.00  0.00    -0.180 OA 
HETATM   24  H   UNL     1     -12.303   8.296  68.766  1.00  0.00     0.000 HD 
BRANCH  22  25
HETATM   25  C   UNL     1     -11.993  10.651  69.970  1.00  0.00    -0.408 A  
HETATM   26  C   UNL     1     -12.841  10.112  70.956  1.00  0.00    -0.382 A  
HETATM   27  C   UNL     1     -11.864  12.061  69.904  1.00  0.00    -0.405 A  
HETATM   28  H   UNL     1     -13.724  14.102  72.708  1.00  0.00     0.000 HD 
HETATM   29  C   UNL     1     -12.527  12.905  70.804  1.00  0.00    -0.370 A  
HETATM   30  O   UNL     1     -13.837  13.160  72.761  1.00  0.00    -0.648 OA 
HETATM   31  H   UNL     1     -14.630  11.081  73.567  1.00  0.00     0.000 HD 
HETATM   32  C   UNL     1     -13.476  10.968  71.875  1.00  0.00    -0.195 A  
HETATM   33 CL   UNL     1     -13.054   8.410  71.215  1.00  0.00    -0.218 Cl 
HETATM   34  C   UNL     1     -13.310  12.349  71.798  1.00  0.00    -0.270 A  
HETATM   35  O   UNL     1     -14.202  10.503  72.947  1.00  0.00     0.836 OA 
ENDBRANCH  22  25
ENDBRANCH  20  21
ENDBRANCH  19  20
ENDBRANCH  14  19
ENDBRANCH  13  14
ENDBRANCH   4  13
BRANCH   8  36
HETATM   36  N   UNL     1      -7.217  11.164  69.091  1.00  0.00    -0.118 N  
HETATM   37  H   UNL     1      -8.095  11.089  69.605  1.00  0.00     0.000 HD 
HETATM   38  C   UNL     1      -6.992  12.298  68.326  1.00  0.00    -0.082 C  
HETATM   39  O   UNL     1      -5.944  12.624  67.793  1.00  0.00    -0.096 OA 
BRANCH  38  40
HETATM   40  C   UNL     1      -8.182  13.203  68.134  1.00  0.00    -0.160 C  
BRANCH  40  41
HETATM   41  C   UNL     1      -8.148  14.614  68.453  1.00  0.00    -0.147 A  
HETATM   42  H2  UNL     1      -7.187  18.690  67.874  1.00  0.00     0.000 HD 
HETATM   43  C   UNL     1      -7.613  16.700  68.043  1.00  0.00    -0.166 A  
HETATM   44  C   UNL     1      -9.171  15.247  69.144  1.00  0.00    -0.234 A  
HETATM   45  H1  UNL     1      -5.912  17.622  67.304  1.00  0.00     0.000 HD 
HETATM   46  S   UNL     1      -9.167  16.905  68.727  1.00  0.00    -0.237 SA 
HETATM   47  N   UNL     1      -6.838  17.744  67.712  1.00  0.00    -0.180 NA 
HETATM   48  N   UNL     1      -7.210  15.467  67.902  1.00  0.00    -0.132 NA 
ENDBRANCH  40  41
BRANCH  40  49
HETATM   49  N   UNL     1      -9.309  12.865  67.590  1.00  0.00    -0.187 NA 
HETATM   50  H   UNL     1     -10.186  12.902  68.109  1.00  0.00     0.000 HD 
BRANCH  49  51
HETATM   51  O   UNL     1      -9.264  12.451  66.270  1.00  0.00    -0.219 OA 
HETATM   52  O   UNL     1     -11.196  12.820  63.342  1.00  0.00    -0.439 OA 
HETATM   53  C   UNL     1     -10.955  14.205  65.863  1.00  0.00    -0.297 C  
HETATM   54  O   UNL     1      -9.394  11.583  63.907  1.00  0.00    -0.142 OA 
HETATM   55  C   UNL     1     -11.598  11.794  66.320  1.00  0.00    -0.223 C  
HETATM   56  C   UNL     1     -10.435  12.403  64.205  1.00  0.00    -0.389 C  
HETATM   57  C   UNL     1     -10.561  12.727  65.691  1.00  0.00    -0.275 C  
ENDBRANCH  49  51
ENDBRANCH  40  49
ENDBRANCH  38  40
ENDBRANCH   8  36
TORSDOF 11
ENDMDL
MODEL       90
REMARK 921   NORMALIZED FREE ENERGY PREDICTED BY IDOCK:    1.73 KCAL/MOL
REMARK 922        TOTAL FREE ENERGY PREDICTED BY IDOCK:   -0.58 KCAL/MOL
REMARK 923 INTER-LIGAND FREE ENERGY PREDICTED BY IDOCK:   -2.02 KCAL/MOL
REMARK 924 INTRA-LIGAND FREE ENERGY PREDICTED BY IDOCK:    1.44 KCAL/MOL
REMARK 927      BINDING AFFINITY PREDICTED BY RF-SCORE:    0.00 PKD
ROOT
HETATM    1  C   UNL     1     -10.605  14.555  69.771  1.00  0.00     0.014 C  
HETATM    2  S   UNL     1      -8.906  13.983  69.917  1.00  0.00     1.886 SA 
HETATM    3  C   UNL     1      -8.210  15.625  70.080  1.00  0.00     0.466 C  
HETATM    4  C   UNL     1      -8.667  16.685  69.107  1.00  0.00    -0.127 C  
HETATM    5  CA  UNL     1      -9.933  16.669  68.583  1.00  0.00    -0.261 C  
HETATM    6  O   UNL     1     -12.442  15.295  67.118  1.00  0.00     0.540 OA 
HETATM    7  C   UNL     1     -10.562  17.932  67.818  1.00  0.00    -0.389 C  
HETATM    8  CA  UNL     1     -11.545  13.679  68.893  1.00  0.00    -0.322 C  
HETATM    9  N   UNL     1     -10.737  15.575  68.769  1.00  0.00    -0.239 N  
HETATM   10  C   UNL     1     -11.753  15.006  68.085  1.00  0.00    -0.312 C  
HETATM   11  O   UNL     1     -11.783  18.128  68.071  1.00  0.00     0.977 OA 
HETATM   12  OXT UNL     1      -9.729  18.701  67.256  1.00  0.00    -0.291 OA 
ENDROOT
BRANCH   4  13
HETATM   13  C   UNL     1      -7.704  17.822  68.766  1.00  0.00    -0.252 C  
BRANCH  13  14
HETATM   14  N   UNL     1      -6.547  17.627  67.675  1.00  0.00    -0.171 N  
HETATM   15  C   UNL     1      -7.453  18.669  65.707  1.00  0.00    -0.139 C  
HETATM   16  C   UNL     1      -7.045  16.514  66.694  1.00  0.00    -0.185 C  
HETATM   17  C   UNL     1      -7.316  17.210  65.365  1.00  0.00     1.548 C  
HETATM   18  C   UNL     1      -6.409  18.856  66.791  1.00  0.00    -0.186 C  
BRANCH  14  19
HETATM   19  C   UNL     1      -5.312  17.096  68.480  1.00  0.00    -0.136 C  
BRANCH  19  20
HETATM   20  C   UNL     1      -5.612  16.479  69.872  1.00  0.00    -0.193 C  
BRANCH  20  21
HETATM   21  N   UNL     1      -5.520  15.012  70.021  1.00  0.00    -0.110 N  
HETATM   22  C   UNL     1      -5.502  14.104  68.980  1.00  0.00    -0.084 C  
HETATM   23  O   UNL     1      -5.341  14.481  67.826  1.00  0.00    -0.254 OA 
HETATM   24  H   UNL     1      -5.465  14.639  70.969  1.00  0.00     0.000 HD 
BRANCH  22  25
HETATM   25  C   UNL     1      -5.760  12.637  69.239  1.00  0.00    -0.081 A  
HETATM   26  C   UNL     1      -5.550  11.590  68.323  1.00  0.00    -0.045 A  
HETATM   27  C   UNL     1      -6.024  12.294  70.589  1.00  0.00     0.042 A  
HETATM   28  H   UNL     1      -5.826   8.464  71.473  1.00  0.00     0.000 HD 
HETATM   29  C   UNL     1      -6.048  10.962  71.022  1.00  0.00     0.206 A  
HETATM   30  O   UNL     1      -5.662   8.670  70.560  1.00  0.00    -0.027 OA 
HETATM   31  H   UNL     1      -5.202   8.298  68.270  1.00  0.00     0.000 HD 
HETATM   32  C   UNL     1      -5.544  10.257  68.775  1.00  0.00    -0.037 A  
HETATM   33 CL   UNL     1      -5.148  11.839  66.654  1.00  0.00    -0.085 Cl 
HETATM   34  C   UNL     1      -5.783   9.954  70.113  1.00  0.00    -0.047 A  
HETATM   35  O   UNL     1      -5.207   9.197  67.964  1.00  0.00    -0.034 OA 
ENDBRANCH  22  25
ENDBRANCH  20  21
ENDBRANCH  19  20
ENDBRANCH  14  19
ENDBRANCH  13  14
ENDBRANCH   4  13
BRANCH   8  36
HETATM   36  N   UNL     1     -10.920  12.508  68.170  1.00  0.00    -0.217 N  
HETATM   37  H   UNL     1     -10.121  12.681  67.559  1.00  0.00     0.000 HD 
HETATM   38  C   UNL     1     -11.386  11.209  68.300  1.00  0.00    -0.297 C  
HETATM   39  O   UNL     1     -12.208  10.805  69.105  1.00  0.00    -0.387 OA 
BRANCH  38  40
HETATM   40  C   UNL     1     -10.814  10.210  67.328  1.00  0.00    -0.230 C  
BRANCH  40  41
HETATM   41  C   UNL     1      -9.999  10.600  66.197  1.00  0.00    -0.228 A  
HETATM   42  H2  UNL     1      -6.513  10.751  63.810  1.00  0.00     0.000 HD 
HETATM   43  C   UNL     1      -8.145  10.594  65.028  1.00  0.00    -0.038 A  
HETATM   44  C   UNL     1     -10.530  10.817  64.935  1.00  0.00    -0.254 A  
HETATM   45  H1  UNL     1      -6.138  10.725  65.527  1.00  0.00     0.000 HD 
HETATM   46  S   UNL     1      -9.305  10.549  63.773  1.00  0.00    -0.305 SA 
HETATM   47  N   UNL     1      -6.830  10.698  64.778  1.00  0.00     0.066 NA 
HETATM   48  N   UNL     1      -8.617  10.565  66.244  1.00  0.00    -0.142 NA 
ENDBRANCH  40  41
BRANCH  40  49
HETATM   49  N   UNL     1     -10.895   8.920  67.433  1.00  0.00    -0.439 NA 
HETATM   50  H   UNL     1     -11.670   8.398  67.024  1.00  0.00     0.000 HD 
BRANCH  49  51
HETATM   51  O   UNL     1      -9.880   8.287  68.129  1.00  0.00    -0.161 OA 
HETATM   52  O   UNL     1      -8.903   4.989  68.911  1.00  0.00    -0.092 OA 
HETATM   53  C   UNL     1     -10.607   6.242  66.948  1.00  0.00    -0.374 C  
HETATM   54  O   UNL     1      -8.204   7.041  69.541  1.00  0.00    -0.128 OA 
HETATM   55  C   UNL     1     -11.461   6.838  69.261  1.00  0.00    -0.162 C  
HETATM   56  C   UNL     1      -9.077   6.200  68.929  1.00  0.00    -0.123 C  
HETATM   57  C   UNL     1     -10.275   6.905  68.297  1.00  0.00    -0.180 C  
ENDBRANCH  49  51
ENDBRANCH  40  49
ENDBRANCH  38  40
ENDBRANCH   8  36
TORSDOF 11
ENDMDL
MODEL       91
REMARK 921   NORMALIZED FREE ENERGY PREDICTED BY IDOCK:    1.94 KCAL/MOL
REMARK 922        TOTAL FREE ENERGY PREDICTED BY IDOCK:   -0.23 KCAL/MOL
REMARK 923 INTER-LIGAND FREE ENERGY PREDICTED BY IDOCK:   -4.54 KCAL/MOL
REMARK 924 INTRA-LIGAND FREE ENERGY PREDICTED BY IDOCK:    4.31 KCAL/MOL
REMARK 927      BINDING AFFINITY PREDICTED BY RF-SCORE:    0.00 PKD
ROOT
HETATM    1  C   UNL     1      -8.062  13.819  69.418  1.00  0.00     0.578 C  
HETATM    2  S   UNL     1      -9.740  13.959  68.783  1.00  0.00    -0.019 SA 
HETATM    3  C   UNL     1      -9.842  12.249  68.259  1.00  0.00    -0.217 C  
HETATM    4  C   UNL     1      -8.683  11.680  67.477  1.00  0.00    -0.156 C  
HETATM    5  CA  UNL     1      -7.402  12.120  67.683  1.00  0.00    -0.122 C  
HETATM    6  O   UNL     1      -5.129  14.373  67.986  1.00  0.00    -0.113 OA 
HETATM    7  C   UNL     1      -6.122  11.330  67.125  1.00  0.00    -0.091 C  
HETATM    8  CA  UNL     1      -7.190  15.105  69.322  1.00  0.00    -0.182 C  
HETATM    9  N   UNL     1      -7.176  13.231  68.453  1.00  0.00    -0.101 N  
HETATM   10  C   UNL     1      -6.221  14.184  68.502  1.00  0.00    -0.093 C  
HETATM   11  O   UNL     1      -5.144  11.312  67.923  1.00  0.00    -0.043 OA 
HETATM   12  OXT UNL     1      -6.318  10.636  66.086  1.00  0.00    -0.107 OA 
ENDROOT
BRANCH   4  13
HETATM   13  C   UNL     1      -8.960  10.547  66.488  1.00  0.00    -0.157 C  
BRANCH  13  14
HETATM   14  N   UNL     1      -8.524   9.040  66.812  1.00  0.00    -0.118 N  
HETATM   15  C   UNL     1      -8.026   8.124  64.646  1.00  0.00    -0.149 C  
HETATM   16  C   UNL     1      -9.713   8.127  66.360  1.00  0.00    -0.205 C  
HETATM   17  C   UNL     1      -9.213   7.348  65.149  1.00  0.00     0.676 C  
HETATM   18  C   UNL     1      -7.369   8.597  65.928  1.00  0.00    -0.084 C  
BRANCH  14  19
HETATM   19  C   UNL     1      -8.388   8.981  68.372  1.00  0.00    -0.124 C  
BRANCH  19  20
HETATM   20  C   UNL     1      -9.710   8.844  69.173  1.00  0.00    -0.168 C  
BRANCH  20  21
HETATM   21  N   UNL     1      -9.734   7.923  70.328  1.00  0.00    -0.182 N  
HETATM   22  C   UNL     1      -9.114   6.690  70.379  1.00  0.00    -0.152 C  
HETATM   23  O   UNL     1      -8.300   6.366  69.524  1.00  0.00    -0.123 OA 
HETATM   24  H   UNL     1     -10.252   8.222  71.156  1.00  0.00     0.000 HD 
BRANCH  22  25
HETATM   25  C   UNL     1      -9.486   5.689  71.450  1.00  0.00    -0.176 A  
HETATM   26  C   UNL     1     -10.695   5.667  72.170  1.00  0.00    -0.234 A  
HETATM   27  C   UNL     1      -8.626   4.569  71.561  1.00  0.00    -0.126 A  
HETATM   28  H   UNL     1      -9.995   1.539  73.668  1.00  0.00     0.000 HD 
HETATM   29  C   UNL     1      -8.966   3.451  72.335  1.00  0.00    -0.123 A  
HETATM   30  O   UNL     1     -10.580   2.286  73.620  1.00  0.00    -0.118 OA 
HETATM   31  H   UNL     1     -12.499   3.607  74.031  1.00  0.00     0.000 HD 
HETATM   32  C   UNL     1     -11.042   4.525  72.917  1.00  0.00    -0.153 A  
HETATM   33 CL   UNL     1     -11.887   6.924  72.088  1.00  0.00    -0.325 Cl 
HETATM   34  C   UNL     1     -10.185   3.429  72.988  1.00  0.00    -0.160 A  
HETATM   35  O   UNL     1     -12.266   4.378  73.528  1.00  0.00     0.072 OA 
ENDBRANCH  22  25
ENDBRANCH  20  21
ENDBRANCH  19  20
ENDBRANCH  14  19
ENDBRANCH  13  14
ENDBRANCH   4  13
BRANCH   8  36
HETATM   36  N   UNL     1      -7.793  16.296  68.615  1.00  0.00    -0.189 N  
HETATM   37  H   UNL     1      -8.694  16.650  68.935  1.00  0.00     0.000 HD 
HETATM   38  C   UNL     1      -7.173  16.928  67.548  1.00  0.00    -0.149 C  
HETATM   39  O   UNL     1      -6.034  16.745  67.151  1.00  0.00    -0.145 OA 
BRANCH  38  40
HETATM   40  C   UNL     1      -8.017  17.932  66.805  1.00  0.00    -0.233 C  
BRANCH  40  41
HETATM   41  C   UNL     1      -7.454  18.889  65.876  1.00  0.00    -0.210 A  
HETATM   42  H2  UNL     1      -5.514  20.174  62.347  1.00  0.00     0.000 HD 
HETATM   43  C   UNL     1      -6.458  19.444  64.005  1.00  0.00     0.660 A  
HETATM   44  C   UNL     1      -7.967  20.168  65.722  1.00  0.00    -0.097 A  
HETATM   45  H1  UNL     1      -4.871  18.648  62.937  1.00  0.00     0.000 HD 
HETATM   46  S   UNL     1      -7.582  20.725  64.152  1.00  0.00     1.733 SA 
HETATM   47  N   UNL     1      -5.541  19.412  63.025  1.00  0.00    -0.353 NA 
HETATM   48  N   UNL     1      -6.517  18.524  64.927  1.00  0.00    -0.425 NA 
ENDBRANCH  40  41
BRANCH  40  49
HETATM   49  N   UNL     1      -9.311  17.999  66.831  1.00  0.00    -0.268 NA 
HETATM   50  H   UNL     1      -9.812  18.363  67.642  1.00  0.00     0.000 HD 
BRANCH  49  51
HETATM   51  O   UNL     1      -9.981  17.553  65.705  1.00  0.00    -0.546 OA 
HETATM   52  O   UNL     1     -12.131  14.902  64.815  1.00  0.00    -0.393 OA 
HETATM   53  C   UNL     1     -11.296  16.167  67.271  1.00  0.00     0.111 C  
HETATM   54  O   UNL     1     -11.069  16.534  63.672  1.00  0.00    -0.246 OA 
HETATM   55  C   UNL     1      -9.242  15.274  66.081  1.00  0.00    -0.345 C  
HETATM   56  C   UNL     1     -11.306  15.805  64.794  1.00  0.00    -0.314 C  
HETATM   57  C   UNL     1     -10.446  16.212  65.989  1.00  0.00    -0.338 C  
ENDBRANCH  49  51
ENDBRANCH  40  49
ENDBRANCH  38  40
ENDBRANCH   8  36
TORSDOF 11
ENDMDL
MODEL       92
REMARK 921   NORMALIZED FREE ENERGY PREDICTED BY IDOCK:    3.27 KCAL/MOL
REMARK 922        TOTAL FREE ENERGY PREDICTED BY IDOCK:    1.95 KCAL/MOL
REMARK 923 INTER-LIGAND FREE ENERGY PREDICTED BY IDOCK:   -0.42 KCAL/MOL
REMARK 924 INTRA-LIGAND FREE ENERGY PREDICTED BY IDOCK:    2.37 KCAL/MOL
REMARK 927      BINDING AFFINITY PREDICTED BY RF-SCORE:    0.00 PKD
ROOT
HETATM    1  C   UNL     1     -12.027   9.287  69.840  1.00  0.00     0.422 C  
HETATM    2  S   UNL     1     -11.396   8.975  68.184  1.00  0.00     0.963 SA 
HETATM    3  C   UNL     1     -11.322   7.197  68.387  1.00  0.00     0.337 C  
HETATM    4  C   UNL     1     -10.697   6.655  69.649  1.00  0.00    -0.306 C  
HETATM    5  CA  UNL     1     -10.770   7.344  70.831  1.00  0.00    -0.235 C  
HETATM    6  O   UNL     1     -10.467   9.954  72.684  1.00  0.00     2.500 OA 
HETATM    7  C   UNL     1     -10.415   6.669  72.243  1.00  0.00    -0.205 C  
HETATM    8  CA  UNL     1     -11.598  10.636  70.487  1.00  0.00    -0.350 C  
HETATM    9  N   UNL     1     -11.231   8.635  70.842  1.00  0.00    -0.261 N  
HETATM   10  C   UNL     1     -11.026   9.718  71.623  1.00  0.00     0.097 C  
HETATM   11  O   UNL     1     -11.181   7.019  73.184  1.00  0.00    -0.253 OA 
HETATM   12  OXT UNL     1      -9.587   5.714  72.199  1.00  0.00    -0.149 OA 
ENDROOT
BRANCH   4  13
HETATM   13  C   UNL     1     -10.029   5.281  69.597  1.00  0.00    -0.232 C  
BRANCH  13  14
HETATM   14  N   UNL     1      -8.513   5.115  69.109  1.00  0.00    -0.090 N  
HETATM   15  C   UNL     1      -7.500   7.211  69.710  1.00  0.00    -0.097 C  
HETATM   16  C   UNL     1      -8.362   5.995  67.823  1.00  0.00    -0.112 C  
HETATM   17  C   UNL     1      -7.452   7.156  68.207  1.00  0.00    -0.102 C  
HETATM   18  C   UNL     1      -7.543   5.745  70.096  1.00  0.00    -0.086 C  
BRANCH  14  19
HETATM   19  C   UNL     1      -8.370   3.603  68.723  1.00  0.00    -0.073 C  
BRANCH  19  20
HETATM   20  C   UNL     1      -8.012   3.302  67.243  1.00  0.00    -0.078 C  
BRANCH  20  21
HETATM   21  N   UNL     1      -7.954   4.433  66.295  1.00  0.00    -0.098 N  
HETATM   22  C   UNL     1      -6.859   4.774  65.525  1.00  0.00    -0.061 C  
HETATM   23  O   UNL     1      -5.909   4.008  65.418  1.00  0.00    -0.021 OA 
HETATM   24  H   UNL     1      -8.791   5.010  66.200  1.00  0.00     0.000 HD 
BRANCH  22  25
HETATM   25  C   UNL     1      -6.779   6.132  64.864  1.00  0.00    -0.043 A  
HETATM   26  C   UNL     1      -7.867   6.858  64.344  1.00  0.00    -0.112 A  
HETATM   27  C   UNL     1      -5.535   6.798  64.990  1.00  0.00    -0.027 A  
HETATM   28  H   UNL     1      -5.526  10.630  64.091  1.00  0.00     0.000 HD 
HETATM   29  C   UNL     1      -5.381   8.147  64.642  1.00  0.00    -0.036 A  
HETATM   30  O   UNL     1      -6.366  10.199  63.985  1.00  0.00    -0.128 OA 
HETATM   31  H   UNL     1      -8.653   9.943  63.438  1.00  0.00     0.000 HD 
HETATM   32  C   UNL     1      -7.709   8.221  64.028  1.00  0.00    -0.140 A  
HETATM   33 CL   UNL     1      -9.469   6.213  64.191  1.00  0.00     1.429 Cl 
HETATM   34  C   UNL     1      -6.478   8.854  64.185  1.00  0.00    -0.079 A  
HETATM   35  O   UNL     1      -8.760   9.024  63.650  1.00  0.00    -0.179 OA 
ENDBRANCH  22  25
ENDBRANCH  20  21
ENDBRANCH  19  20
ENDBRANCH  14  19
ENDBRANCH  13  14
ENDBRANCH   4  13
BRANCH   8  36
HETATM   36  N   UNL     1     -10.620  11.491  69.717  1.00  0.00    -0.395 N  
HETATM   37  H   UNL     1      -9.621  11.355  69.876  1.00  0.00     0.000 HD 
HETATM   38  C   UNL     1     -11.020  12.453  68.803  1.00  0.00    -0.246 C  
HETATM   39  O   UNL     1     -12.148  12.628  68.372  1.00  0.00    -0.272 OA 
BRANCH  38  40
HETATM   40  C   UNL     1      -9.936  13.378  68.312  1.00  0.00    -0.240 C  
BRANCH  40  41
HETATM   41  C   UNL     1      -9.805  13.758  66.921  1.00  0.00    -0.264 A  
HETATM   42  H2  UNL     1     -10.748  13.743  62.801  1.00  0.00     0.000 HD 
HETATM   43  C   UNL     1     -10.391  13.687  64.811  1.00  0.00    -0.392 A  
HETATM   44  C   UNL     1      -9.380  15.019  66.530  1.00  0.00    -0.281 A  
HETATM   45  H1  UNL     1     -10.954  12.158  63.532  1.00  0.00     0.000 HD 
HETATM   46  S   UNL     1     -10.005  15.346  64.972  1.00  0.00     0.120 SA 
HETATM   47  N   UNL     1     -10.724  13.147  63.628  1.00  0.00    -0.115 NA 
HETATM   48  N   UNL     1     -10.301  12.972  65.898  1.00  0.00    -0.283 NA 
ENDBRANCH  40  41
BRANCH  40  49
HETATM   49  N   UNL     1      -9.079  14.002  69.058  1.00  0.00    -0.392 NA 
HETATM   50  H   UNL     1      -9.161  14.011  70.075  1.00  0.00     0.000 HD 
BRANCH  49  51
HETATM   51  O   UNL     1      -8.046  14.656  68.408  1.00  0.00    -0.133 OA 
HETATM   52  O   UNL     1      -5.508  16.975  69.194  1.00  0.00    -0.134 OA 
HETATM   53  C   UNL     1      -7.194  15.158  70.671  1.00  0.00     0.768 C  
HETATM   54  O   UNL     1      -6.278  16.056  67.282  1.00  0.00    -0.196 OA 
HETATM   55  C   UNL     1      -8.671  16.780  69.398  1.00  0.00     0.188 C  
HETATM   56  C   UNL     1      -6.355  16.310  68.614  1.00  0.00    -0.124 C  
HETATM   57  C   UNL     1      -7.585  15.707  69.289  1.00  0.00    -0.222 C  
ENDBRANCH  49  51
ENDBRANCH  40  49
ENDBRANCH  38  40
ENDBRANCH   8  36
TORSDOF 11
ENDMDL
MODEL       93
REMARK 921   NORMALIZED FREE ENERGY PREDICTED BY IDOCK:    3.31 KCAL/MOL
REMARK 922        TOTAL FREE ENERGY PREDICTED BY IDOCK:    2.01 KCAL/MOL
REMARK 923 INTER-LIGAND FREE ENERGY PREDICTED BY IDOCK:   -5.37 KCAL/MOL
REMARK 924 INTRA-LIGAND FREE ENERGY PREDICTED BY IDOCK:    7.38 KCAL/MOL
REMARK 927      BINDING AFFINITY PREDICTED BY RF-SCORE:    0.00 PKD
ROOT
HETATM    1  C   UNL     1     -11.694   7.496  69.342  1.00  0.00     0.666 C  
HETATM    2  S   UNL     1     -11.026   6.743  67.852  1.00  0.00    -0.191 SA 
HETATM    3  C   UNL     1     -10.401   5.288  68.688  1.00  0.00    -0.122 C  
HETATM    4  C   UNL     1      -9.617   5.488  69.963  1.00  0.00    -0.218 C  
HETATM    5  CA  UNL     1      -9.881   6.539  70.801  1.00  0.00    -0.184 C  
HETATM    6  O   UNL     1     -10.371   9.640  71.490  1.00  0.00    -0.186 OA 
HETATM    7  C   UNL     1      -9.310   6.607  72.300  1.00  0.00    -0.136 C  
HETATM    8  CA  UNL     1     -11.695   9.052  69.376  1.00  0.00     0.727 C  
HETATM    9  N   UNL     1     -10.719   7.544  70.395  1.00  0.00    -0.234 N  
HETATM   10  C   UNL     1     -10.847   8.858  70.681  1.00  0.00    -0.239 C  
HETATM   11  O   UNL     1     -10.130   7.072  73.139  1.00  0.00    -0.185 OA 
HETATM   12  OXT UNL     1      -8.227   5.984  72.501  1.00  0.00    -0.109 OA 
ENDROOT
BRANCH   4  13
HETATM   13  C   UNL     1      -8.557   4.451  70.335  1.00  0.00    -0.077 C  
BRANCH  13  14
HETATM   14  N   UNL     1      -8.569   3.732  71.767  1.00  0.00    -0.092 N  
HETATM   15  C   UNL     1     -10.243   2.024  71.521  1.00  0.00     0.057 C  
HETATM   16  C   UNL     1      -9.880   4.197  72.486  1.00  0.00    -0.155 C  
HETATM   17  C   UNL     1     -10.781   2.969  72.560  1.00  0.00     0.026 C  
HETATM   18  C   UNL     1      -8.744   2.228  71.628  1.00  0.00    -0.064 C  
BRANCH  14  19
HETATM   19  C   UNL     1      -7.327   4.312  72.526  1.00  0.00    -0.072 C  
BRANCH  19  20
HETATM   20  C   UNL     1      -6.271   5.046  71.657  1.00  0.00    -0.029 C  
BRANCH  20  21
HETATM   21  N   UNL     1      -6.037   4.558  70.282  1.00  0.00    -0.017 N  
HETATM   22  C   UNL     1      -5.651   5.341  69.211  1.00  0.00    -0.011 C  
HETATM   23  O   UNL     1      -5.259   6.487  69.387  1.00  0.00    -0.012 OA 
HETATM   24  H   UNL     1      -6.171   3.561  70.109  1.00  0.00     0.000 HD 
BRANCH  22  25
HETATM   25  C   UNL     1      -5.781   4.822  67.797  1.00  0.00    -0.017 A  
HETATM   26  C   UNL     1      -5.784   3.467  67.415  1.00  0.00    -0.022 A  
HETATM   27  C   UNL     1      -6.145   5.787  66.826  1.00  0.00    -0.026 A  
HETATM   28  H   UNL     1      -7.350   4.377  63.354  1.00  0.00     0.000 HD 
HETATM   29  C   UNL     1      -6.532   5.420  65.530  1.00  0.00    -0.040 A  
HETATM   30  O   UNL     1      -7.095   3.714  63.985  1.00  0.00    -0.048 OA 
HETATM   31  H   UNL     1      -6.654   1.558  64.854  1.00  0.00     0.000 HD 
HETATM   32  C   UNL     1      -6.206   3.108  66.121  1.00  0.00    -0.025 A  
HETATM   33 CL   UNL     1      -5.432   2.161  68.500  1.00  0.00    -0.017 Cl 
HETATM   34  C   UNL     1      -6.581   4.079  65.195  1.00  0.00    -0.047 A  
HETATM   35  O   UNL     1      -6.369   1.800  65.727  1.00  0.00    -0.022 OA 
ENDBRANCH  22  25
ENDBRANCH  20  21
ENDBRANCH  19  20
ENDBRANCH  14  19
ENDBRANCH  13  14
ENDBRANCH   4  13
BRANCH   8  36
HETATM   36  N   UNL     1     -11.042   9.767  68.216  1.00  0.00    -0.493 N  
HETATM   37  H   UNL     1     -10.378   9.254  67.636  1.00  0.00     0.000 HD 
HETATM   38  C   UNL     1     -11.307  11.092  67.905  1.00  0.00    -0.309 C  
HETATM   39  O   UNL     1     -12.186  11.793  68.380  1.00  0.00    -0.467 OA 
BRANCH  38  40
HETATM   40  C   UNL     1     -10.395  11.718  66.882  1.00  0.00    -0.217 C  
BRANCH  40  41
HETATM   41  C   UNL     1     -10.893  12.428  65.723  1.00  0.00    -0.276 A  
HETATM   42  H2  UNL     1     -13.474  13.183  62.461  1.00  0.00     0.000 HD 
HETATM   43  C   UNL     1     -12.303  12.734  64.073  1.00  0.00    -0.411 A  
HETATM   44  C   UNL     1     -10.784  13.804  65.589  1.00  0.00    -0.288 A  
HETATM   45  H1  UNL     1     -13.216  11.463  62.716  1.00  0.00     0.000 HD 
HETATM   46  S   UNL     1     -12.030  14.353  64.555  1.00  0.00    -0.461 SA 
HETATM   47  N   UNL     1     -13.053  12.428  63.003  1.00  0.00    -0.237 NA 
HETATM   48  N   UNL     1     -11.702  11.819  64.783  1.00  0.00    -0.201 NA 
ENDBRANCH  40  41
BRANCH  40  49
HETATM   49  N   UNL     1      -9.102  11.779  66.958  1.00  0.00    -0.181 NA 
HETATM   50  H   UNL     1      -8.554  12.336  66.303  1.00  0.00     0.000 HD 
BRANCH  49  51
HETATM   51  O   UNL     1      -8.502  11.051  67.971  1.00  0.00    -0.121 OA 
HETATM   52  O   UNL     1      -5.734  11.363  70.134  1.00  0.00    -0.096 OA 
HETATM   53  C   UNL     1      -7.324  13.151  68.521  1.00  0.00    -0.111 C  
HETATM   54  O   UNL     1      -7.211   9.717  69.676  1.00  0.00    -0.073 OA 
HETATM   55  C   UNL     1      -6.302  11.389  67.010  1.00  0.00    -0.122 C  
HETATM   56  C   UNL     1      -6.636  10.924  69.433  1.00  0.00    -0.095 C  
HETATM   57  C   UNL     1      -7.207  11.648  68.216  1.00  0.00    -0.085 C  
ENDBRANCH  49  51
ENDBRANCH  40  49
ENDBRANCH  38  40
ENDBRANCH   8  36
TORSDOF 11
ENDMDL
MODEL       94
REMARK 921   NORMALIZED FREE ENERGY PREDICTED BY IDOCK:    4.20 KCAL/MOL
REMARK 922        TOTAL FREE ENERGY PREDICTED BY IDOCK:    3.48 KCAL/MOL
REMARK 923 INTER-LIGAND FREE ENERGY PREDICTED BY IDOCK:    2.13 KCAL/MOL
REMARK 924 INTRA-LIGAND FREE ENERGY PREDICTED BY IDOCK:    1.34 KCAL/MOL
REMARK 927      BINDING AFFINITY PREDICTED BY RF-SCORE:    0.00 PKD
ROOT
HETATM    1  C   UNL     1     -10.789   7.595  66.947  1.00  0.00    -0.057 C  
HETATM    2  S   UNL     1     -10.925   6.690  68.497  1.00  0.00    -0.211 SA 
HETATM    3  C   UNL     1     -12.361   7.595  69.070  1.00  0.00     3.002 C  
HETATM    4  C   UNL     1     -12.334   9.101  68.966  1.00  0.00     2.593 C  
HETATM    5  CA  UNL     1     -11.646   9.732  67.963  1.00  0.00     0.734 C  
HETATM    6  O   UNL     1      -9.060  10.301  66.141  1.00  0.00    -0.150 OA 
HETATM    7  C   UNL     1     -11.856  11.286  67.623  1.00  0.00    -0.019 C  
HETATM    8  CA  UNL     1      -9.347   7.766  66.385  1.00  0.00    -0.181 C  
HETATM    9  N   UNL     1     -10.798   9.015  67.159  1.00  0.00    -0.127 N  
HETATM   10  C   UNL     1      -9.682   9.297  66.453  1.00  0.00    -0.258 C  
HETATM   11  O   UNL     1     -11.846  11.546  66.388  1.00  0.00    -0.397 OA 
HETATM   12  OXT UNL     1     -12.233  12.011  68.589  1.00  0.00    -0.299 OA 
ENDROOT
BRANCH   4  13
HETATM   13  C   UNL     1     -13.150   9.913  69.972  1.00  0.00     0.627 C  
BRANCH  13  14
HETATM   14  N   UNL     1     -12.491  10.451  71.329  1.00  0.00    -0.379 N  
HETATM   15  C   UNL     1     -10.761   8.846  71.785  1.00  0.00    -0.432 C  
HETATM   16  C   UNL     1     -12.974   9.492  72.468  1.00  0.00    -0.214 C  
HETATM   17  C   UNL     1     -11.744   8.712  72.916  1.00  0.00     0.218 C  
HETATM   18  C   UNL     1     -10.981  10.272  71.318  1.00  0.00     0.391 C  
BRANCH  14  19
HETATM   19  C   UNL     1     -13.112  11.873  71.549  1.00  0.00    -0.275 C  
BRANCH  19  20
HETATM   20  C   UNL     1     -12.108  13.031  71.792  1.00  0.00     0.896 C  
BRANCH  20  21
HETATM   21  N   UNL     1     -11.469  13.659  70.618  1.00  0.00    -0.444 N  
HETATM   22  C   UNL     1     -11.778  14.908  70.114  1.00  0.00    -0.294 C  
HETATM   23  O   UNL     1     -12.471  15.686  70.756  1.00  0.00    -0.415 OA 
HETATM   24  H   UNL     1     -10.740  13.128  70.140  1.00  0.00     0.000 HD 
BRANCH  22  25
HETATM   25  C   UNL     1     -11.329  15.306  68.726  1.00  0.00    -0.318 A  
HETATM   26  C   UNL     1     -10.037  15.739  68.371  1.00  0.00    -0.222 A  
HETATM   27  C   UNL     1     -12.237  15.000  67.681  1.00  0.00     0.210 A  
HETATM   28  H   UNL     1     -10.793  15.186  64.025  1.00  0.00     0.000 HD 
HETATM   29  C   UNL     1     -11.867  15.090  66.333  1.00  0.00    -0.039 A  
HETATM   30  O   UNL     1     -10.173  15.410  64.709  1.00  0.00    -0.301 OA 
HETATM   31  H   UNL     1      -8.134  16.106  65.687  1.00  0.00     0.000 HD 
HETATM   32  C   UNL     1      -9.667  15.793  67.014  1.00  0.00    -0.228 A  
HETATM   33 CL   UNL     1      -8.789  16.085  69.524  1.00  0.00    -0.152 Cl 
HETATM   34  C   UNL     1     -10.575  15.464  66.011  1.00  0.00    -0.322 A  
HETATM   35  O   UNL     1      -8.384  16.070  66.603  1.00  0.00    -0.239 OA 
ENDBRANCH  22  25
ENDBRANCH  20  21
ENDBRANCH  19  20
ENDBRANCH  14  19
ENDBRANCH  13  14
ENDBRANCH   4  13
BRANCH   8  36
HETATM   36  N   UNL     1      -8.209   7.258  67.239  1.00  0.00    -0.114 N  
HETATM   37  H   UNL     1      -8.427   6.690  68.058  1.00  0.00     0.000 HD 
HETATM   38  C   UNL     1      -6.879   7.532  66.958  1.00  0.00    -0.071 C  
HETATM   39  O   UNL     1      -6.437   8.044  65.943  1.00  0.00    -0.045 OA 
BRANCH  38  40
HETATM   40  C   UNL     1      -5.895   7.163  68.038  1.00  0.00    -0.026 C  
BRANCH  40  41
HETATM   41  C   UNL     1      -5.724   7.950  69.241  1.00  0.00    -0.030 A  
HETATM   42  H2  UNL     1      -6.682  10.928  72.084  1.00  0.00     0.000 HD 
HETATM   43  C   UNL     1      -6.325   9.508  70.660  1.00  0.00    -0.086 A  
HETATM   44  C   UNL     1      -5.150   7.435  70.393  1.00  0.00    -0.023 A  
HETATM   45  H1  UNL     1      -7.077  11.427  70.446  1.00  0.00     0.000 HD 
HETATM   46  S   UNL     1      -5.737   8.316  71.736  1.00  0.00    -0.041 SA 
HETATM   47  N   UNL     1      -6.727  10.716  71.087  1.00  0.00     0.199 NA 
HETATM   48  N   UNL     1      -6.318   9.189  69.395  1.00  0.00    -0.043 NA 
ENDBRANCH  40  41
BRANCH  40  49
HETATM   49  N   UNL     1      -5.175   6.085  68.069  1.00  0.00    -0.004 NA 
HETATM   50  H   UNL     1      -4.367   5.964  67.459  1.00  0.00     0.000 HD 
BRANCH  49  51
HETATM   51  O   UNL     1      -5.557   5.107  68.970  1.00  0.00    -0.010 OA 
HETATM   52  O   UNL     1      -7.415   2.109  68.951  1.00  0.00    -0.043 OA 
HETATM   53  C   UNL     1      -6.097   3.751  66.978  1.00  0.00    -0.025 C  
HETATM   54  O   UNL     1      -6.485   3.387  70.563  1.00  0.00    -0.030 OA 
HETATM   55  C   UNL     1      -7.844   5.156  68.165  1.00  0.00    -0.087 C  
HETATM   56  C   UNL     1      -6.872   3.154  69.281  1.00  0.00    -0.041 C  
HETATM   57  C   UNL     1      -6.580   4.310  68.328  1.00  0.00    -0.046 C  
ENDBRANCH  49  51
ENDBRANCH  40  49
ENDBRANCH  38  40
ENDBRANCH   8  36
TORSDOF 11
ENDMDL
MODEL       95
REMARK 921   NORMALIZED FREE ENERGY PREDICTED BY IDOCK:    5.49 KCAL/MOL
REMARK 922        TOTAL FREE ENERGY PREDICTED BY IDOCK:    5.59 KCAL/MOL
REMARK 923 INTER-LIGAND FREE ENERGY PREDICTED BY IDOCK:    5.01 KCAL/MOL
REMARK 924 INTRA-LIGAND FREE ENERGY PREDICTED BY IDOCK:    0.58 KCAL/MOL
REMARK 927      BINDING AFFINITY PREDICTED BY RF-SCORE:    0.00 PKD
ROOT
HETATM    1  C   UNL     1      -7.149  12.027  66.513  1.00  0.00     0.294 C  
HETATM    2  S   UNL     1      -8.625  11.155  67.059  1.00  0.00    -0.152 SA 
HETATM    3  C   UNL     1      -9.762  12.225  66.182  1.00  0.00    -0.245 C  
HETATM    4  C   UNL     1      -9.564  13.717  66.303  1.00  0.00    -0.254 C  
HETATM    5  CA  UNL     1      -8.317  14.256  66.474  1.00  0.00     0.390 C  
HETATM    6  O   UNL     1      -5.441  14.507  67.888  1.00  0.00    -0.174 OA 
HETATM    7  C   UNL     1      -8.024  15.822  66.281  1.00  0.00     0.203 C  
HETATM    8  CA  UNL     1      -5.951  12.025  67.507  1.00  0.00    -0.110 C  
HETATM    9  N   UNL     1      -7.250  13.440  66.748  1.00  0.00     0.696 N  
HETATM   10  C   UNL     1      -6.077  13.585  67.401  1.00  0.00     0.111 C  
HETATM   11  O   UNL     1      -6.924  16.071  65.714  1.00  0.00     1.394 OA 
HETATM   12  OXT UNL     1      -9.005  16.592  66.496  1.00  0.00    -0.236 OA 
ENDROOT
BRANCH   4  13
HETATM   13  C   UNL     1     -10.786  14.625  66.165  1.00  0.00    -0.321 C  
BRANCH  13  14
HETATM   14  N   UNL     1     -12.152  14.084  65.526  1.00  0.00    -0.389 N  
HETATM   15  C   UNL     1     -11.736  14.173  63.160  1.00  0.00     1.217 C  
HETATM   16  C   UNL     1     -12.886  15.330  64.927  1.00  0.00     0.642 C  
HETATM   17  C   UNL     1     -12.843  15.161  63.413  1.00  0.00     1.864 C  
HETATM   18  C   UNL     1     -11.884  13.203  64.316  1.00  0.00    -0.406 C  
BRANCH  14  19
HETATM   19  C   UNL     1     -12.977  13.527  66.736  1.00  0.00     1.084 C  
BRANCH  19  20
HETATM   20  C   UNL     1     -12.156  12.983  67.936  1.00  0.00    -0.186 C  
BRANCH  20  21
HETATM   21  N   UNL     1     -12.599  11.725  68.571  1.00  0.00     0.796 N  
HETATM   22  C   UNL     1     -12.241  11.300  69.836  1.00  0.00    -0.288 C  
HETATM   23  O   UNL     1     -11.689  12.064  70.618  1.00  0.00    -0.154 OA 
HETATM   24  H   UNL     1     -13.220  11.120  68.032  1.00  0.00     0.000 HD 
BRANCH  22  25
HETATM   25  C   UNL     1     -12.454   9.861  70.249  1.00  0.00    -0.025 A  
HETATM   26  C   UNL     1     -11.439   8.919  70.503  1.00  0.00    -0.200 A  
HETATM   27  C   UNL     1     -13.781   9.523  70.616  1.00  0.00     0.277 A  
HETATM   28  H   UNL     1     -14.232   6.106  72.517  1.00  0.00     0.000 HD 
HETATM   29  C   UNL     1     -14.086   8.306  71.240  1.00  0.00    -0.291 A  
HETATM   30  O   UNL     1     -13.338   6.306  72.266  1.00  0.00     0.040 OA 
HETATM   31  H   UNL     1     -11.006   6.004  72.010  1.00  0.00     0.000 HD 
HETATM   32  C   UNL     1     -11.753   7.715  71.161  1.00  0.00    -0.290 A  
HETATM   33 CL   UNL     1      -9.759   9.205  70.180  1.00  0.00    -0.213 Cl 
HETATM   34  C   UNL     1     -13.064   7.422  71.529  1.00  0.00    -0.374 A  
HETATM   35  O   UNL     1     -10.794   6.816  71.565  1.00  0.00    -0.228 OA 
ENDBRANCH  22  25
ENDBRANCH  20  21
ENDBRANCH  19  20
ENDBRANCH  14  19
ENDBRANCH  13  14
ENDBRANCH   4  13
BRANCH   8  36
HETATM   36  N   UNL     1      -6.179  11.393  68.860  1.00  0.00    -0.050 N  
HETATM   37  H   UNL     1      -6.214  11.997  69.682  1.00  0.00     0.000 HD 
HETATM   38  C   UNL     1      -6.343  10.028  69.034  1.00  0.00    -0.044 C  
HETATM   39  O   UNL     1      -6.497   9.193  68.158  1.00  0.00    -0.058 OA 
BRANCH  38  40
HETATM   40  C   UNL     1      -6.311   9.543  70.460  1.00  0.00    -0.080 C  
BRANCH  40  41
HETATM   41  C   UNL     1      -5.686  10.295  71.527  1.00  0.00     0.118 A  
HETATM   42  H2  UNL     1      -5.048  13.619  74.058  1.00  0.00     0.000 HD 
HETATM   43  C   UNL     1      -5.454  12.067  72.795  1.00  0.00     1.074 A  
HETATM   44  C   UNL     1      -5.173   9.689  72.664  1.00  0.00    -0.026 A  
HETATM   45  H1  UNL     1      -5.476  14.105  72.425  1.00  0.00     0.000 HD 
HETATM   46  S   UNL     1      -5.187  10.826  73.942  1.00  0.00     0.546 SA 
HETATM   47  N   UNL     1      -5.318  13.365  73.108  1.00  0.00    -0.408 NA 
HETATM   48  N   UNL     1      -5.755  11.674  71.588  1.00  0.00    -0.138 NA 
ENDBRANCH  40  41
BRANCH  40  49
HETATM   49  N   UNL     1      -6.902   8.480  70.911  1.00  0.00    -0.046 NA 
HETATM   50  H   UNL     1      -7.595   8.529  71.658  1.00  0.00     0.000 HD 
BRANCH  49  51
HETATM   51  O   UNL     1      -6.547   7.275  70.329  1.00  0.00    -0.045 OA 
HETATM   52  O   UNL     1      -7.070   3.835  70.900  1.00  0.00    -0.033 OA 
HETATM   53  C   UNL     1      -8.338   6.294  71.718  1.00  0.00    -0.121 C  
HETATM   54  O   UNL     1      -5.786   5.028  69.478  1.00  0.00    -0.011 OA 
HETATM   55  C   UNL     1      -5.918   6.340  72.475  1.00  0.00    -0.038 C  
HETATM   56  C   UNL     1      -6.605   4.913  70.555  1.00  0.00    -0.035 C  
HETATM   57  C   UNL     1      -6.865   6.232  71.279  1.00  0.00    -0.067 C  
ENDBRANCH  49  51
ENDBRANCH  40  49
ENDBRANCH  38  40
ENDBRANCH   8  36
TORSDOF 11
ENDMDL
MODEL       96
REMARK 921   NORMALIZED FREE ENERGY PREDICTED BY IDOCK:    5.59 KCAL/MOL
REMARK 922        TOTAL FREE ENERGY PREDICTED BY IDOCK:    5.76 KCAL/MOL
REMARK 923 INTER-LIGAND FREE ENERGY PREDICTED BY IDOCK:   -1.74 KCAL/MOL
REMARK 924 INTRA-LIGAND FREE ENERGY PREDICTED BY IDOCK:    7.50 KCAL/MOL
REMARK 927      BINDING AFFINITY PREDICTED BY RF-SCORE:    0.00 PKD
ROOT
HETATM    1  C   UNL     1      -8.946  10.066  69.998  1.00  0.00    -0.081 C  
HETATM    2  S   UNL     1     -10.244   9.883  68.766  1.00  0.00    -0.200 SA 
HETATM    3  C   UNL     1      -9.686   8.279  68.200  1.00  0.00    -0.158 C  
HETATM    4  C   UNL     1      -8.214   8.103  67.914  1.00  0.00    -0.129 C  
HETATM    5  CA  UNL     1      -7.266   8.805  68.612  1.00  0.00    -0.073 C  
HETATM    6  O   UNL     1      -5.955  11.475  69.830  1.00  0.00    -0.098 OA 
HETATM    7  C   UNL     1      -5.709   8.418  68.574  1.00  0.00    -0.037 C  
HETATM    8  CA  UNL     1      -8.477  11.523  70.281  1.00  0.00     3.256 C  
HETATM    9  N   UNL     1      -7.645   9.832  69.437  1.00  0.00    -0.093 N  
HETATM   10  C   UNL     1      -7.067  10.970  69.877  1.00  0.00     0.016 C  
HETATM   11  O   UNL     1      -5.127   8.531  69.689  1.00  0.00    -0.029 OA 
HETATM   12  OXT UNL     1      -5.317   7.834  67.523  1.00  0.00    -0.029 OA 
ENDROOT
BRANCH   4  13
HETATM   13  C   UNL     1      -7.794   7.072  66.867  1.00  0.00    -0.107 C  
BRANCH  13  14
HETATM   14  N   UNL     1      -8.328   7.160  65.359  1.00  0.00    -0.136 N  
HETATM   15  C   UNL     1      -8.050   9.482  64.803  1.00  0.00    -0.130 C  
HETATM   16  C   UNL     1      -9.722   7.869  65.422  1.00  0.00     1.049 C  
HETATM   17  C   UNL     1      -9.534   9.235  64.772  1.00  0.00     0.024 C  
HETATM   18  C   UNL     1      -7.477   8.106  64.526  1.00  0.00    -0.102 C  
BRANCH  14  19
HETATM   19  C   UNL     1      -8.522   5.673  64.906  1.00  0.00    -0.122 C  
BRANCH  19  20
HETATM   20  C   UNL     1      -9.769   4.940  65.467  1.00  0.00    -0.112 C  
BRANCH  20  21
HETATM   21  N   UNL     1      -9.682   4.347  66.817  1.00  0.00    -0.202 N  
HETATM   22  C   UNL     1      -8.709   4.634  67.754  1.00  0.00    -0.104 C  
HETATM   23  O   UNL     1      -7.956   5.588  67.599  1.00  0.00    -0.100 OA 
HETATM   24  H   UNL     1     -10.400   3.670  67.079  1.00  0.00     0.000 HD 
BRANCH  22  25
HETATM   25  C   UNL     1      -8.505   3.730  68.948  1.00  0.00    -0.101 A  
HETATM   26  C   UNL     1      -7.688   4.007  70.061  1.00  0.00    -0.052 A  
HETATM   27  C   UNL     1      -9.386   2.623  69.032  1.00  0.00    -0.212 A  
HETATM   28  H   UNL     1      -9.508   0.765  72.499  1.00  0.00     0.000 HD 
HETATM   29  C   UNL     1      -9.478   1.838  70.188  1.00  0.00    -0.138 A  
HETATM   30  O   UNL     1      -8.899   1.493  72.460  1.00  0.00    -0.060 OA 
HETATM   31  H   UNL     1      -7.235   3.010  73.185  1.00  0.00     0.000 HD 
HETATM   32  C   UNL     1      -7.812   3.232  71.229  1.00  0.00    -0.055 A  
HETATM   33 CL   UNL     1      -6.609   5.362  70.147  1.00  0.00    -0.038 Cl 
HETATM   34  C   UNL     1      -8.705   2.164  71.288  1.00  0.00    -0.064 A  
HETATM   35  O   UNL     1      -7.150   3.533  72.397  1.00  0.00    -0.043 OA 
ENDBRANCH  22  25
ENDBRANCH  20  21
ENDBRANCH  19  20
ENDBRANCH  14  19
ENDBRANCH  13  14
ENDBRANCH   4  13
BRANCH   8  36
HETATM   36  N   UNL     1      -9.072  12.617  69.425  1.00  0.00     0.455 N  
HETATM   37  H   UNL     1      -9.935  13.065  69.735  1.00  0.00     0.000 HD 
HETATM   38  C   UNL     1      -8.496  13.039  68.237  1.00  0.00    -0.159 C  
HETATM   39  O   UNL     1      -7.394  12.736  67.811  1.00  0.00    -0.103 OA 
BRANCH  38  40
HETATM   40  C   UNL     1      -9.341  13.956  67.391  1.00  0.00    -0.228 C  
BRANCH  40  41
HETATM   41  C   UNL     1     -10.347  13.466  66.473  1.00  0.00    -0.284 A  
HETATM   42  H2  UNL     1     -12.852  13.558  63.070  1.00  0.00     0.000 HD 
HETATM   43  C   UNL     1     -11.586  13.609  64.671  1.00  0.00    -0.371 A  
HETATM   44  C   UNL     1     -10.532  12.114  66.222  1.00  0.00    -0.239 A  
HETATM   45  H1  UNL     1     -12.639  15.153  63.776  1.00  0.00     0.000 HD 
HETATM   46  S   UNL     1     -11.222  11.938  64.668  1.00  0.00    -0.285 SA 
HETATM   47  N   UNL     1     -12.422  14.156  63.775  1.00  0.00    -0.806 NA 
HETATM   48  N   UNL     1     -11.036  14.311  65.624  1.00  0.00    -0.308 NA 
ENDBRANCH  40  41
BRANCH  40  49
HETATM   49  N   UNL     1      -9.341  15.252  67.449  1.00  0.00    -0.196 NA 
HETATM   50  H   UNL     1      -9.910  15.815  66.817  1.00  0.00     0.000 HD 
BRANCH  49  51
HETATM   51  O   UNL     1      -8.531  15.832  68.409  1.00  0.00    -0.160 OA 
HETATM   52  O   UNL     1      -5.692  17.922  68.526  1.00  0.00    -0.167 OA 
HETATM   53  C   UNL     1      -7.721  17.277  66.577  1.00  0.00    -0.325 C  
HETATM   54  O   UNL     1      -6.871  16.762  70.063  1.00  0.00     0.122 OA 
HETATM   55  C   UNL     1      -6.524  15.141  67.238  1.00  0.00     0.092 C  
HETATM   56  C   UNL     1      -6.554  17.092  68.783  1.00  0.00    -0.191 C  
HETATM   57  C   UNL     1      -7.353  16.328  67.731  1.00  0.00    -0.132 C  
ENDBRANCH  49  51
ENDBRANCH  40  49
ENDBRANCH  38  40
ENDBRANCH   8  36
TORSDOF 11
ENDMDL
MODEL       97
REMARK 921   NORMALIZED FREE ENERGY PREDICTED BY IDOCK:    6.00 KCAL/MOL
REMARK 922        TOTAL FREE ENERGY PREDICTED BY IDOCK:    6.43 KCAL/MOL
REMARK 923 INTER-LIGAND FREE ENERGY PREDICTED BY IDOCK:   -0.46 KCAL/MOL
REMARK 924 INTRA-LIGAND FREE ENERGY PREDICTED BY IDOCK:    6.89 KCAL/MOL
REMARK 927      BINDING AFFINITY PREDICTED BY RF-SCORE:    0.00 PKD
ROOT
HETATM    1  C   UNL     1      -5.474   9.710  67.106  1.00  0.00    -0.043 C  
HETATM    2  S   UNL     1      -5.574  10.132  68.852  1.00  0.00    -0.033 SA 
HETATM    3  C   UNL     1      -5.571   8.432  69.415  1.00  0.00    -0.031 C  
HETATM    4  C   UNL     1      -6.494   7.458  68.723  1.00  0.00    -0.044 C  
HETATM    5  CA  UNL     1      -6.816   7.602  67.399  1.00  0.00    -0.069 C  
HETATM    6  O   UNL     1      -7.834   9.245  64.830  1.00  0.00    -0.109 OA 
HETATM    7  C   UNL     1      -7.514   6.431  66.552  1.00  0.00    -0.086 C  
HETATM    8  CA  UNL     1      -6.169  10.700  66.126  1.00  0.00    -0.125 C  
HETATM    9  N   UNL     1      -6.475   8.750  66.733  1.00  0.00    -0.060 N  
HETATM   10  C   UNL     1      -6.976   9.432  65.680  1.00  0.00    -0.086 C  
HETATM   11  O   UNL     1      -7.081   6.327  65.371  1.00  0.00    -0.064 OA 
HETATM   12  OXT UNL     1      -8.221   5.621  67.219  1.00  0.00    -0.102 OA 
ENDROOT
BRANCH   4  13
HETATM   13  C   UNL     1      -7.014   6.260  69.518  1.00  0.00    -0.071 C  
BRANCH  13  14
HETATM   14  N   UNL     1      -7.866   6.465  70.859  1.00  0.00    -0.105 N  
HETATM   15  C   UNL     1      -9.177   4.454  71.001  1.00  0.00    -0.201 C  
HETATM   16  C   UNL     1      -9.332   6.781  70.411  1.00  0.00    -0.163 C  
HETATM   17  C   UNL     1     -10.168   5.570  70.809  1.00  0.00    -0.302 C  
HETATM   18  C   UNL     1      -7.996   5.163  71.635  1.00  0.00    -0.114 C  
BRANCH  14  19
HETATM   19  C   UNL     1      -7.249   7.730  71.546  1.00  0.00    -0.064 C  
BRANCH  19  20
HETATM   20  C   UNL     1      -7.189   9.020  70.685  1.00  0.00    -0.093 C  
BRANCH  20  21
HETATM   21  N   UNL     1      -8.277  10.008  70.831  1.00  0.00     0.291 N  
HETATM   22  C   UNL     1      -9.440  10.031  70.085  1.00  0.00    -0.071 C  
HETATM   23  O   UNL     1      -9.748   9.078  69.380  1.00  0.00    -0.163 OA 
HETATM   24  H   UNL     1      -8.161  10.733  71.540  1.00  0.00     0.000 HD 
BRANCH  22  25
HETATM   25  C   UNL     1     -10.312  11.266  70.064  1.00  0.00     0.723 A  
HETATM   26  C   UNL     1     -11.683  11.311  70.382  1.00  0.00    -0.304 A  
HETATM   27  C   UNL     1      -9.622  12.497  69.925  1.00  0.00     2.619 A  
HETATM   28  H   UNL     1     -11.693  15.742  70.744  1.00  0.00     0.000 HD 
HETATM   29  C   UNL     1     -10.262  13.727  70.125  1.00  0.00     1.557 A  
HETATM   30  O   UNL     1     -12.178  14.930  70.827  1.00  0.00    -0.282 OA 
HETATM   31  H   UNL     1     -14.021  13.499  71.219  1.00  0.00     0.000 HD 
HETATM   32  C   UNL     1     -12.306  12.552  70.613  1.00  0.00    -0.282 A  
HETATM   33 CL   UNL     1     -12.653   9.899  70.654  1.00  0.00    -0.293 Cl 
HETATM   34  C   UNL     1     -11.595  13.743  70.491  1.00  0.00    -0.014 A  
HETATM   35  O   UNL     1     -13.601  12.662  71.063  1.00  0.00     0.357 OA 
ENDBRANCH  22  25
ENDBRANCH  20  21
ENDBRANCH  19  20
ENDBRANCH  14  19
ENDBRANCH  13  14
ENDBRANCH   4  13
BRANCH   8  36
HETATM   36  N   UNL     1      -6.944  11.845  66.737  1.00  0.00    -0.354 N  
HETATM   37  H   UNL     1      -7.957  11.759  66.822  1.00  0.00     0.000 HD 
HETATM   38  C   UNL     1      -6.337  13.008  67.186  1.00  0.00     0.244 C  
HETATM   39  O   UNL     1      -5.140  13.205  67.315  1.00  0.00    -0.331 OA 
BRANCH  38  40
HETATM   40  C   UNL     1      -7.270  14.138  67.535  1.00  0.00    -0.169 C  
BRANCH  40  41
HETATM   41  C   UNL     1      -6.831  15.515  67.620  1.00  0.00    -0.181 A  
HETATM   42  H2  UNL     1      -6.584  19.402  69.263  1.00  0.00     0.000 HD 
HETATM   43  C   UNL     1      -6.760  17.490  68.567  1.00  0.00    -0.202 A  
HETATM   44  C   UNL     1      -5.581  15.927  67.183  1.00  0.00     0.182 A  
HETATM   45  H1  UNL     1      -8.187  18.706  69.450  1.00  0.00     0.000 HD 
HETATM   46  S   UNL     1      -5.140  17.337  68.044  1.00  0.00    -0.123 SA 
HETATM   47  N   UNL     1      -7.220  18.615  69.138  1.00  0.00    -0.243 NA 
HETATM   48  N   UNL     1      -7.533  16.463  68.340  1.00  0.00    -0.164 NA 
ENDBRANCH  40  41
BRANCH  40  49
HETATM   49  N   UNL     1      -8.552  14.037  67.700  1.00  0.00    -0.175 NA 
HETATM   50  H   UNL     1      -8.962  13.291  68.261  1.00  0.00     0.000 HD 
BRANCH  49  51
HETATM   51  O   UNL     1      -9.338  14.992  67.078  1.00  0.00    -0.206 OA 
HETATM   52  O   UNL     1     -12.493  15.172  65.511  1.00  0.00     0.202 OA 
HETATM   53  C   UNL     1     -11.184  13.374  67.349  1.00  0.00    -0.311 C  
HETATM   54  O   UNL     1     -10.754  16.594  65.742  1.00  0.00    -0.301 OA 
HETATM   55  C   UNL     1      -9.807  13.502  65.223  1.00  0.00    -0.116 C  
HETATM   56  C   UNL     1     -11.332  15.368  65.845  1.00  0.00    -0.104 C  
HETATM   57  C   UNL     1     -10.401  14.289  66.392  1.00  0.00    -0.286 C  
ENDBRANCH  49  51
ENDBRANCH  40  49
ENDBRANCH  38  40
ENDBRANCH   8  36
TORSDOF 11
ENDMDL
MODEL       98
REMARK 921   NORMALIZED FREE ENERGY PREDICTED BY IDOCK:    7.36 KCAL/MOL
REMARK 922        TOTAL FREE ENERGY PREDICTED BY IDOCK:    8.67 KCAL/MOL
REMARK 923 INTER-LIGAND FREE ENERGY PREDICTED BY IDOCK:   -5.31 KCAL/MOL
REMARK 924 INTRA-LIGAND FREE ENERGY PREDICTED BY IDOCK:   13.98 KCAL/MOL
REMARK 927      BINDING AFFINITY PREDICTED BY RF-SCORE:    0.00 PKD
ROOT
HETATM    1  C   UNL     1     -11.149   8.145  68.432  1.00  0.00     0.399 C  
HETATM    2  S   UNL     1     -10.499   7.548  66.864  1.00  0.00    -0.260 SA 
HETATM    3  C   UNL     1      -9.842   6.028  67.546  1.00  0.00    -0.125 C  
HETATM    4  C   UNL     1      -9.037   6.115  68.820  1.00  0.00    -0.126 C  
HETATM    5  CA  UNL     1      -9.298   7.077  69.761  1.00  0.00    -0.146 C  
HETATM    6  O   UNL     1      -9.812  10.091  70.754  1.00  0.00    -0.018 OA 
HETATM    7  C   UNL     1      -8.701   7.008  71.249  1.00  0.00    -0.130 C  
HETATM    8  CA  UNL     1     -11.168   9.691  68.616  1.00  0.00     0.046 C  
HETATM    9  N   UNL     1     -10.156   8.106  69.468  1.00  0.00    -0.189 N  
HETATM   10  C   UNL     1     -10.294   9.384  69.881  1.00  0.00    -0.227 C  
HETATM   11  O   UNL     1      -9.511   7.379  72.143  1.00  0.00    -0.138 OA 
HETATM   12  OXT UNL     1      -7.607   6.384  71.371  1.00  0.00    -0.091 OA 
ENDROOT
BRANCH   4  13
HETATM   13  C   UNL     1      -7.959   5.062  69.072  1.00  0.00    -0.080 C  
BRANCH  13  14
HETATM   14  N   UNL     1      -7.648   4.533  70.552  1.00  0.00    -0.052 N  
HETATM   15  C   UNL     1      -8.954   2.521  70.713  1.00  0.00    -0.159 C  
HETATM   16  C   UNL     1      -8.928   4.824  71.406  1.00  0.00    -0.133 C  
HETATM   17  C   UNL     1      -9.542   3.466  71.725  1.00  0.00    -0.225 C  
HETATM   18  C   UNL     1      -7.527   3.018  70.583  1.00  0.00    -0.040 C  
BRANCH  14  19
HETATM   19  C   UNL     1      -6.467   5.426  71.066  1.00  0.00    -0.035 C  
BRANCH  19  20
HETATM   20  C   UNL     1      -5.868   6.428  70.044  1.00  0.00    -0.018 C  
BRANCH  20  21
HETATM   21  N   UNL     1      -5.874   6.055  68.614  1.00  0.00    -0.012 N  
HETATM   22  C   UNL     1      -5.653   6.922  67.562  1.00  0.00    -0.020 C  
HETATM   23  O   UNL     1      -5.213   8.046  67.762  1.00  0.00    -0.030 OA 
HETATM   24  H   UNL     1      -6.056   5.077  68.386  1.00  0.00     0.000 HD 
BRANCH  22  25
HETATM   25  C   UNL     1      -6.026   6.524  66.151  1.00  0.00    -0.029 A  
HETATM   26  C   UNL     1      -6.129   5.206  65.668  1.00  0.00    -0.033 A  
HETATM   27  C   UNL     1      -6.517   7.572  65.333  1.00  0.00    -0.041 A  
HETATM   28  H   UNL     1      -8.310   6.473  62.006  1.00  0.00     0.000 HD 
HETATM   29  C   UNL     1      -7.119   7.320  64.093  1.00  0.00    -0.067 A  
HETATM   30  O   UNL     1      -7.974   5.757  62.531  1.00  0.00    -0.083 OA 
HETATM   31  H   UNL     1      -7.456   3.530  63.140  1.00  0.00     0.000 HD 
HETATM   32  C   UNL     1      -6.766   4.962  64.436  1.00  0.00    -0.044 A  
HETATM   33 CL   UNL     1      -5.641   3.809  66.572  1.00  0.00    -0.017 Cl 
HETATM   34  C   UNL     1      -7.259   6.012  63.666  1.00  0.00    -0.060 A  
HETATM   35  O   UNL     1      -7.027   3.694  63.971  1.00  0.00    -0.043 OA 
ENDBRANCH  22  25
ENDBRANCH  20  21
ENDBRANCH  19  20
ENDBRANCH  14  19
ENDBRANCH  13  14
ENDBRANCH   4  13
BRANCH   8  36
HETATM   36  N   UNL     1     -10.545  10.523  67.519  1.00  0.00    -0.239 N  
HETATM   37  H   UNL     1      -9.896  10.074  66.873  1.00  0.00     0.000 HD 
HETATM   38  C   UNL     1     -10.818  11.872  67.353  1.00  0.00    -0.243 C  
HETATM   39  O   UNL     1     -11.684  12.518  67.920  1.00  0.00    -0.332 OA 
BRANCH  38  40
HETATM   40  C   UNL     1      -9.933  12.602  66.376  1.00  0.00    -0.255 C  
BRANCH  40  41
HETATM   41  C   UNL     1     -10.458  13.468  65.342  1.00  0.00    -0.315 A  
HETATM   42  H2  UNL     1     -13.142  14.687  62.312  1.00  0.00     0.000 HD 
HETATM   43  C   UNL     1     -11.922  14.011  63.804  1.00  0.00    -0.193 A  
HETATM   44  C   UNL     1     -10.326  14.847  65.387  1.00  0.00    -0.388 A  
HETATM   45  H1  UNL     1     -12.910  12.945  62.327  1.00  0.00     0.000 HD 
HETATM   46  S   UNL     1     -11.599  15.547  64.484  1.00  0.00    -0.181 SA 
HETATM   47  N   UNL     1     -12.717  13.861  62.733  1.00  0.00     0.070 NA 
HETATM   48  N   UNL     1     -11.314  13.000  64.362  1.00  0.00    -0.339 NA 
ENDBRANCH  40  41
BRANCH  40  49
HETATM   49  N   UNL     1      -8.636  12.622  66.399  1.00  0.00    -0.417 NA 
HETATM   50  H   UNL     1      -8.083  11.837  66.056  1.00  0.00     0.000 HD 
BRANCH  49  51
HETATM   51  O   UNL     1      -8.040  13.761  66.914  1.00  0.00    -0.058 OA 
HETATM   52  O   UNL     1      -5.235  14.585  68.886  1.00  0.00    -0.085 OA 
HETATM   53  C   UNL     1      -6.071  12.322  67.303  1.00  0.00    -0.153 C  
HETATM   54  O   UNL     1      -6.995  15.741  68.072  1.00  0.00    -0.111 OA 
HETATM   55  C   UNL     1      -7.810  12.740  69.101  1.00  0.00     0.388 C  
HETATM   56  C   UNL     1      -6.327  14.587  68.335  1.00  0.00    -0.101 C  
HETATM   57  C   UNL     1      -7.071  13.328  67.898  1.00  0.00    -0.133 C  
ENDBRANCH  49  51
ENDBRANCH  40  49
ENDBRANCH  38  40
ENDBRANCH   8  36
TORSDOF 11
ENDMDL
MODEL       99
REMARK 921   NORMALIZED FREE ENERGY PREDICTED BY IDOCK:    7.73 KCAL/MOL
REMARK 922        TOTAL FREE ENERGY PREDICTED BY IDOCK:    9.28 KCAL/MOL
REMARK 923 INTER-LIGAND FREE ENERGY PREDICTED BY IDOCK:    0.30 KCAL/MOL
REMARK 924 INTRA-LIGAND FREE ENERGY PREDICTED BY IDOCK:    8.98 KCAL/MOL
REMARK 927      BINDING AFFINITY PREDICTED BY RF-SCORE:    0.00 PKD
ROOT
HETATM    1  C   UNL     1     -11.157   6.652  67.058  1.00  0.00    -0.325 C  
HETATM    2  S   UNL     1     -10.928   5.483  68.405  1.00  0.00     0.398 SA 
HETATM    3  C   UNL     1     -12.108   6.277  69.493  1.00  0.00     1.061 C  
HETATM    4  C   UNL     1     -12.027   7.777  69.648  1.00  0.00     0.905 C  
HETATM    5  CA  UNL     1     -11.596   8.575  68.621  1.00  0.00     1.353 C  
HETATM    6  O   UNL     1      -9.556   9.449  66.295  1.00  0.00    -0.193 OA 
HETATM    7  C   UNL     1     -11.801  10.167  68.625  1.00  0.00     0.368 C  
HETATM    8  CA  UNL     1      -9.909   6.913  66.165  1.00  0.00     0.173 C  
HETATM    9  N   UNL     1     -11.031   8.011  67.507  1.00  0.00    -0.035 N  
HETATM   10  C   UNL     1     -10.128   8.408  66.585  1.00  0.00    -0.288 C  
HETATM   11  O   UNL     1     -12.104  10.646  67.498  1.00  0.00     0.143 OA 
HETATM   12  OXT UNL     1     -11.868  10.706  69.767  1.00  0.00    -0.278 OA 
ENDROOT
BRANCH   4  13
HETATM   13  C   UNL     1     -12.501   8.398  70.962  1.00  0.00    -0.090 C  
BRANCH  13  14
HETATM   14  N   UNL     1     -11.619   9.499  71.722  1.00  0.00    -0.375 N  
HETATM   15  C   UNL     1      -9.368   8.701  71.443  1.00  0.00    -0.305 C  
HETATM   16  C   UNL     1     -11.143   8.840  73.060  1.00  0.00     0.981 C  
HETATM   17  C   UNL     1      -9.639   8.637  72.922  1.00  0.00    -0.027 C  
HETATM   18  C   UNL     1     -10.325   9.781  70.976  1.00  0.00    -0.103 C  
BRANCH  14  19
HETATM   19  C   UNL     1     -12.612  10.668  72.043  1.00  0.00    -0.064 C  
BRANCH  19  20
HETATM   20  C   UNL     1     -12.044  12.106  71.918  1.00  0.00     1.332 C  
BRANCH  20  21
HETATM   21  N   UNL     1     -11.745  12.623  70.567  1.00  0.00    -0.494 N  
HETATM   22  C   UNL     1     -11.425  13.933  70.266  1.00  0.00    -0.056 C  
HETATM   23  O   UNL     1     -11.151  14.728  71.155  1.00  0.00    -0.144 OA 
HETATM   24  H   UNL     1     -11.778  11.959  69.792  1.00  0.00     0.000 HD 
BRANCH  22  25
HETATM   25  C   UNL     1     -11.485  14.427  68.838  1.00  0.00    -0.319 A  
HETATM   26  C   UNL     1     -11.087  15.701  68.391  1.00  0.00    -0.326 A  
HETATM   27  C   UNL     1     -11.761  13.437  67.862  1.00  0.00    -0.396 A  
HETATM   28  H   UNL     1     -11.064  14.452  64.123  1.00  0.00     0.000 HD 
HETATM   29  C   UNL     1     -11.616  13.691  66.492  1.00  0.00    -0.392 A  
HETATM   30  O   UNL     1     -10.889  15.135  64.760  1.00  0.00    -0.403 OA 
HETATM   31  H   UNL     1     -10.274  17.264  65.588  1.00  0.00     0.000 HD 
HETATM   32  C   UNL     1     -10.913  15.935  67.013  1.00  0.00    -0.189 A  
HETATM   33 CL   UNL     1     -10.646  16.999  69.453  1.00  0.00    -0.310 Cl 
HETATM   34  C   UNL     1     -11.169  14.933  66.080  1.00  0.00    -0.327 A  
HETATM   35  O   UNL     1     -10.392  17.107  66.517  1.00  0.00    -0.318 OA 
ENDBRANCH  22  25
ENDBRANCH  20  21
ENDBRANCH  19  20
ENDBRANCH  14  19
ENDBRANCH  13  14
ENDBRANCH   4  13
BRANCH   8  36
HETATM   36  N   UNL     1      -8.615   6.251  66.578  1.00  0.00    -0.123 N  
HETATM   37  H   UNL     1      -8.655   5.455  67.214  1.00  0.00     0.000 HD 
HETATM   38  C   UNL     1      -7.376   6.680  66.128  1.00  0.00    -0.076 C  
HETATM   39  O   UNL     1      -7.159   7.494  65.246  1.00  0.00    -0.060 OA 
BRANCH  38  40
HETATM   40  C   UNL     1      -6.184   6.074  66.825  1.00  0.00    -0.029 C  
BRANCH  40  41
HETATM   41  C   UNL     1      -6.047   6.056  68.265  1.00  0.00    -0.021 A  
HETATM   42  H2  UNL     1      -5.558   7.708  72.126  1.00  0.00     0.000 HD 
HETATM   43  C   UNL     1      -5.810   7.020  70.219  1.00  0.00    -0.024 A  
HETATM   44  C   UNL     1      -6.663   5.102  69.061  1.00  0.00    -0.053 A  
HETATM   45  H1  UNL     1      -4.651   8.593  70.909  1.00  0.00     0.000 HD 
HETATM   46  S   UNL     1      -6.892   5.758  70.623  1.00  0.00    -0.055 SA 
HETATM   47  N   UNL     1      -5.296   7.841  71.149  1.00  0.00    -0.030 NA 
HETATM   48  N   UNL     1      -5.482   7.110  68.960  1.00  0.00    -0.017 NA 
ENDBRANCH  40  41
BRANCH  40  49
HETATM   49  N   UNL     1      -5.217   5.432  66.247  1.00  0.00    -0.008 NA 
HETATM   50  H   UNL     1      -4.404   5.918  65.867  1.00  0.00     0.000 HD 
BRANCH  49  51
HETATM   51  O   UNL     1      -5.340   4.056  66.172  1.00  0.00    -0.012 OA 
HETATM   52  O   UNL     1      -6.039   1.619  63.719  1.00  0.00    -0.012 OA 
HETATM   53  C   UNL     1      -5.148   4.364  63.729  1.00  0.00    -0.009 C  
HETATM   54  O   UNL     1      -5.797   1.585  65.963  1.00  0.00    -0.016 OA 
HETATM   55  C   UNL     1      -7.396   4.237  64.898  1.00  0.00    -0.072 C  
HETATM   56  C   UNL     1      -5.930   2.229  64.774  1.00  0.00    -0.018 C  
HETATM   57  C   UNL     1      -5.945   3.751  64.893  1.00  0.00    -0.023 C  
ENDBRANCH  49  51
ENDBRANCH  40  49
ENDBRANCH  38  40
ENDBRANCH   8  36
TORSDOF 11
ENDMDL
MODEL      100
REMARK 921   NORMALIZED FREE ENERGY PREDICTED BY IDOCK:    8.82 KCAL/MOL
REMARK 922        TOTAL FREE ENERGY PREDICTED BY IDOCK:   11.07 KCAL/MOL
REMARK 923 INTER-LIGAND FREE ENERGY PREDICTED BY IDOCK:    4.86 KCAL/MOL
REMARK 924 INTRA-LIGAND FREE ENERGY PREDICTED BY IDOCK:    6.21 KCAL/MOL
REMARK 927      BINDING AFFINITY PREDICTED BY RF-SCORE:    0.00 PKD
ROOT
HETATM    1  C   UNL     1      -9.411  14.606  69.135  1.00  0.00    -0.048 C  
HETATM    2  S   UNL     1      -8.350  13.250  68.614  1.00  0.00     0.084 SA 
HETATM    3  C   UNL     1      -8.340  13.725  66.887  1.00  0.00    -0.007 C  
HETATM    4  C   UNL     1      -9.661  14.066  66.241  1.00  0.00    -0.311 C  
HETATM    5  CA  UNL     1     -10.682  14.625  66.964  1.00  0.00    -0.290 C  
HETATM    6  O   UNL     1     -12.700  14.808  69.460  1.00  0.00    -0.079 OA 
HETATM    7  C   UNL     1     -11.962  15.295  66.266  1.00  0.00     0.321 C  
HETATM    8  CA  UNL     1     -10.346  14.311  70.344  1.00  0.00     1.075 C  
HETATM    9  N   UNL     1     -10.597  14.692  68.330  1.00  0.00    -0.236 N  
HETATM   10  C   UNL     1     -11.487  14.712  69.345  1.00  0.00    -0.296 C  
HETATM   11  O   UNL     1     -12.363  16.348  66.835  1.00  0.00     1.813 OA 
HETATM   12  OXT UNL     1     -12.264  14.840  65.125  1.00  0.00    -0.308 OA 
ENDROOT
BRANCH   4  13
HETATM   13  C   UNL     1      -9.817  13.832  64.738  1.00  0.00     0.079 C  
BRANCH  13  14
HETATM   14  N   UNL     1     -10.632  12.573  64.177  1.00  0.00    -0.370 N  
HETATM   15  C   UNL     1     -12.869  13.418  63.933  1.00  0.00     0.192 C  
HETATM   16  C   UNL     1     -11.507  12.045  65.362  1.00  0.00    -0.305 C  
HETATM   17  C   UNL     1     -12.954  12.353  64.992  1.00  0.00     0.250 C  
HETATM   18  C   UNL     1     -11.653  12.997  63.132  1.00  0.00     0.029 C  
BRANCH  14  19
HETATM   19  C   UNL     1      -9.541  11.506  63.821  1.00  0.00    -0.212 C  
BRANCH  19  20
HETATM   20  C   UNL     1      -8.810  10.845  65.020  1.00  0.00    -0.139 C  
BRANCH  20  21
HETATM   21  N   UNL     1      -8.837   9.372  65.129  1.00  0.00    -0.184 N  
HETATM   22  C   UNL     1      -7.808   8.587  65.612  1.00  0.00    -0.102 C  
HETATM   23  O   UNL     1      -6.860   9.094  66.198  1.00  0.00    -0.082 OA 
HETATM   24  H   UNL     1      -9.686   8.895  64.823  1.00  0.00     0.000 HD 
BRANCH  22  25
HETATM   25  C   UNL     1      -7.796   7.097  65.356  1.00  0.00    -0.119 A  
HETATM   26  C   UNL     1      -8.492   6.128  66.103  1.00  0.00    -0.137 A  
HETATM   27  C   UNL     1      -7.207   6.695  64.131  1.00  0.00    -0.067 A  
HETATM   28  H   UNL     1      -7.921   2.992  63.003  1.00  0.00     0.000 HD 
HETATM   29  C   UNL     1      -7.331   5.385  63.648  1.00  0.00    -0.053 A  
HETATM   30  O   UNL     1      -8.311   3.236  63.834  1.00  0.00    -0.089 OA 
HETATM   31  H   UNL     1      -9.521   2.992  65.852  1.00  0.00     0.000 HD 
HETATM   32  C   UNL     1      -8.638   4.825  65.591  1.00  0.00    -0.127 A  
HETATM   33 CL   UNL     1      -9.327   6.473  67.583  1.00  0.00    -0.119 Cl 
HETATM   34  C   UNL     1      -8.067   4.466  64.373  1.00  0.00    -0.097 A  
HETATM   35  O   UNL     1      -9.423   3.871  66.197  1.00  0.00    -0.165 OA 
ENDBRANCH  22  25
ENDBRANCH  20  21
ENDBRANCH  19  20
ENDBRANCH  14  19
ENDBRANCH  13  14
ENDBRANCH   4  13
BRANCH   8  36
HETATM   36  N   UNL     1     -10.351  12.900  70.885  1.00  0.00     4.233 N  
HETATM   37  H   UNL     1      -9.625  12.628  71.548  1.00  0.00     0.000 HD 
HETATM   38  C   UNL     1     -11.299  11.958  70.517  1.00  0.00     0.661 C  
HETATM   39  O   UNL     1     -12.318  12.157  69.877  1.00  0.00    -0.179 OA 
BRANCH  38  40
HETATM   40  C   UNL     1     -11.016  10.543  70.951  1.00  0.00     0.309 C  
BRANCH  40  41
HETATM   41  C   UNL     1     -12.011   9.494  70.891  1.00  0.00    -0.295 A  
HETATM   42  H2  UNL     1     -14.314   6.259  72.340  1.00  0.00     0.000 HD 
HETATM   43  C   UNL     1     -13.162   7.839  71.751  1.00  0.00    -0.318 A  
HETATM   44  C   UNL     1     -13.162   9.601  70.125  1.00  0.00     0.770 A  
HETATM   45  H1  UNL     1     -12.672   6.234  72.966  1.00  0.00     0.000 HD 
HETATM   46  S   UNL     1     -14.369   8.602  70.811  1.00  0.00     0.707 SA 
HETATM   47  N   UNL     1     -13.392   6.689  72.405  1.00  0.00     0.243 NA 
HETATM   48  N   UNL     1     -11.993   8.417  71.759  1.00  0.00    -0.304 NA 
ENDBRANCH  40  41
BRANCH  40  49
HETATM   49  N   UNL     1      -9.863  10.083  71.327  1.00  0.00     0.087 NA 
HETATM   50  H   UNL     1      -9.231  10.634  71.908  1.00  0.00     0.000 HD 
BRANCH  49  51
HETATM   51  O   UNL     1      -9.532   8.808  70.901  1.00  0.00    -0.179 OA 
HETATM   52  O   UNL     1      -8.384   5.789  72.317  1.00  0.00    -0.117 OA 
HETATM   53  C   UNL     1      -9.675   8.181  73.286  1.00  0.00    -0.226 C  
HETATM   54  O   UNL     1      -8.703   6.531  70.209  1.00  0.00    -0.147 OA 
HETATM   55  C   UNL     1      -7.480   8.831  72.194  1.00  0.00     0.010 C  
HETATM   56  C   UNL     1      -8.622   6.714  71.553  1.00  0.00    -0.124 C  
HETATM   57  C   UNL     1      -8.840   8.159  71.994  1.00  0.00    -0.174 C  
ENDBRANCH  49  51
ENDBRANCH  40  49
ENDBRANCH  38  40
ENDBRANCH   8  36
TORSDOF 11
ENDMDL
MODEL      101
REMARK 921   NORMALIZED FREE ENERGY PREDICTED BY IDOCK:    9.50 KCAL/MOL
REMARK 922        TOTAL FREE ENERGY PREDICTED BY IDOCK:   12.18 KCAL/MOL
REMARK 923 INTER-LIGAND FREE ENERGY PREDICTED BY IDOCK:   -2.09 KCAL/MOL
REMARK 924 INTRA-LIGAND FREE ENERGY PREDICTED BY IDOCK:   14.27 KCAL/MOL
REMARK 927      BINDING AFFINITY PREDICTED BY RF-SCORE:    0.00 PKD
ROOT
HETATM    1  C   UNL     1      -8.388  14.069  69.991  1.00  0.00     1.632 C  
HETATM    2  S   UNL     1      -9.808  15.127  69.674  1.00  0.00    -0.090 SA 
HETATM    3  C   UNL     1     -10.738  13.870  68.803  1.00  0.00    -0.262 C  
HETATM    4  C   UNL     1     -10.023  13.070  67.741  1.00  0.00    -0.227 C  
HETATM    5  CA  UNL     1      -8.683  12.801  67.837  1.00  0.00    -0.185 C  
HETATM    6  O   UNL     1      -5.597  13.585  68.277  1.00  0.00    -0.084 OA 
HETATM    7  C   UNL     1      -7.960  11.698  66.922  1.00  0.00    -0.161 C  
HETATM    8  CA  UNL     1      -7.007  14.784  70.050  1.00  0.00    -0.083 C  
HETATM    9  N   UNL     1      -7.925  13.429  68.792  1.00  0.00    -0.045 N  
HETATM   10  C   UNL     1      -6.627  13.784  68.902  1.00  0.00    -0.104 C  
HETATM   11  O   UNL     1      -7.089  11.018  67.532  1.00  0.00    -0.085 OA 
HETATM   12  OXT UNL     1      -8.498  11.484  65.797  1.00  0.00    -0.036 OA 
ENDROOT
BRANCH   4  13
HETATM   13  C   UNL     1     -10.842  12.508  66.579  1.00  0.00    -0.256 C  
BRANCH  13  14
HETATM   14  N   UNL     1     -10.288  11.300  65.685  1.00  0.00    -0.249 N  
HETATM   15  C   UNL     1     -10.108  12.266  63.490  1.00  0.00    -0.344 C  
HETATM   16  C   UNL     1     -11.490  10.807  64.811  1.00  0.00     1.012 C  
HETATM   17  C   UNL     1     -11.158  11.195  63.375  1.00  0.00    -0.026 C  
HETATM   18  C   UNL     1      -9.273  11.789  64.663  1.00  0.00     0.219 C  
BRANCH  14  19
HETATM   19  C   UNL     1      -9.896  10.180  66.708  1.00  0.00    -0.196 C  
BRANCH  19  20
HETATM   20  C   UNL     1     -11.034   9.223  67.149  1.00  0.00     0.118 C  
BRANCH  20  21
HETATM   21  N   UNL     1     -10.672   7.852  67.565  1.00  0.00    -0.480 N  
HETATM   22  C   UNL     1     -10.410   7.454  68.861  1.00  0.00    -0.206 C  
HETATM   23  O   UNL     1     -10.679   8.186  69.805  1.00  0.00    -0.245 OA 
HETATM   24  H   UNL     1     -10.611   7.141  66.834  1.00  0.00     0.000 HD 
BRANCH  22  25
HETATM   25  C   UNL     1      -9.715   6.139  69.133  1.00  0.00    -0.164 A  
HETATM   26  C   UNL     1      -8.365   5.850  68.859  1.00  0.00    -0.102 A  
HETATM   27  C   UNL     1     -10.444   5.216  69.924  1.00  0.00    -0.296 A  
HETATM   28  H   UNL     1      -8.392   2.195  71.392  1.00  0.00     0.000 HD 
HETATM   29  C   UNL     1      -9.847   4.065  70.454  1.00  0.00    -0.209 A  
HETATM   30  O   UNL     1      -7.888   2.792  70.851  1.00  0.00    -0.045 OA 
HETATM   31  H   UNL     1      -6.019   3.670  69.697  1.00  0.00     0.000 HD 
HETATM   32  C   UNL     1      -7.767   4.707  69.424  1.00  0.00    -0.059 A  
HETATM   33 CL   UNL     1      -7.317   6.906  67.967  1.00  0.00    -0.094 Cl 
HETATM   34  C   UNL     1      -8.504   3.832  70.218  1.00  0.00    -0.060 A  
HETATM   35  O   UNL     1      -6.422   4.440  69.316  1.00  0.00    -0.034 OA 
ENDBRANCH  22  25
ENDBRANCH  20  21
ENDBRANCH  19  20
ENDBRANCH  14  19
ENDBRANCH  13  14
ENDBRANCH   4  13
BRANCH   8  36
HETATM   36  N   UNL     1      -6.980  16.260  69.732  1.00  0.00    -0.082 N  
HETATM   37  H   UNL     1      -7.462  16.904  70.359  1.00  0.00     0.000 HD 
HETATM   38  C   UNL     1      -6.329  16.778  68.623  1.00  0.00    -0.154 C  
HETATM   39  O   UNL     1      -5.572  16.181  67.875  1.00  0.00    -0.110 OA 
BRANCH  38  40
HETATM   40  C   UNL     1      -6.607  18.228  68.320  1.00  0.00    -0.210 C  
BRANCH  40  41
HETATM   41  C   UNL     1      -5.940  18.945  67.254  1.00  0.00    -0.160 A  
HETATM   42  H2  UNL     1      -4.911  19.855  63.257  1.00  0.00     0.000 HD 
HETATM   43  C   UNL     1      -5.491  19.342  65.146  1.00  0.00    -0.179 A  
HETATM   44  C   UNL     1      -5.633  20.294  67.342  1.00  0.00    -0.174 A  
HETATM   45  H1  UNL     1      -5.119  18.129  63.509  1.00  0.00     0.000 HD 
HETATM   46  S   UNL     1      -5.540  20.937  65.760  1.00  0.00    -0.238 SA 
HETATM   47  N   UNL     1      -5.149  19.080  63.875  1.00  0.00    -0.209 NA 
HETATM   48  N   UNL     1      -5.765  18.393  65.999  1.00  0.00    -0.166 NA 
ENDBRANCH  40  41
BRANCH  40  49
HETATM   49  N   UNL     1      -7.513  18.959  68.890  1.00  0.00    -0.319 NA 
HETATM   50  H   UNL     1      -7.447  19.223  69.873  1.00  0.00     0.000 HD 
BRANCH  49  51
HETATM   51  O   UNL     1      -8.575  19.363  68.100  1.00  0.00    -0.315 OA 
HETATM   52  O   UNL     1     -12.088  19.050  68.073  1.00  0.00     2.057 OA 
HETATM   53  C   UNL     1      -9.991  18.776  70.037  1.00  0.00     0.924 C  
HETATM   54  O   UNL     1     -10.558  19.863  66.626  1.00  0.00    -0.468 OA 
HETATM   55  C   UNL     1      -9.550  17.143  68.147  1.00  0.00    -0.270 C  
HETATM   56  C   UNL     1     -10.917  19.185  67.748  1.00  0.00    -0.199 C  
HETATM   57  C   UNL     1      -9.736  18.613  68.528  1.00  0.00    -0.370 C  
ENDBRANCH  49  51
ENDBRANCH  40  49
ENDBRANCH  38  40
ENDBRANCH   8  36
TORSDOF 11
ENDMDL
MODEL      102
REMARK 921   NORMALIZED FREE ENERGY PREDICTED BY IDOCK:   10.66 KCAL/MOL
REMARK 922        TOTAL FREE ENERGY PREDICTED BY IDOCK:   14.08 KCAL/MOL
REMARK 923 INTER-LIGAND FREE ENERGY PREDICTED BY IDOCK:    0.71 KCAL/MOL
REMARK 924 INTRA-LIGAND FREE ENERGY PREDICTED BY IDOCK:   13.37 KCAL/MOL
REMARK 927      BINDING AFFINITY PREDICTED BY RF-SCORE:    0.00 PKD
ROOT
HETATM    1  C   UNL     1      -8.318  14.112  69.889  1.00  0.00     1.157 C  
HETATM    2  S   UNL     1      -9.886  14.718  69.249  1.00  0.00    -0.054 SA 
HETATM    3  C   UNL     1     -10.312  13.185  68.426  1.00  0.00    -0.253 C  
HETATM    4  C   UNL     1      -9.252  12.517  67.584  1.00  0.00    -0.190 C  
HETATM    5  CA  UNL     1      -7.922  12.628  67.896  1.00  0.00    -0.156 C  
HETATM    6  O   UNL     1      -5.251  14.249  68.649  1.00  0.00    -0.082 OA 
HETATM    7  C   UNL     1      -6.804  11.684  67.237  1.00  0.00    -0.129 C  
HETATM    8  CA  UNL     1      -7.191  15.175  70.045  1.00  0.00    -0.008 C  
HETATM    9  N   UNL     1      -7.517  13.518  68.857  1.00  0.00    -0.064 N  
HETATM   10  C   UNL     1      -6.388  14.218  69.097  1.00  0.00    -0.104 C  
HETATM   11  O   UNL     1      -5.903  11.320  68.042  1.00  0.00    -0.043 OA 
HETATM   12  OXT UNL     1      -7.076  11.235  66.086  1.00  0.00    -0.060 OA 
ENDROOT
BRANCH   4  13
HETATM   13  C   UNL     1      -9.698  11.656  66.402  1.00  0.00    -0.214 C  
BRANCH  13  14
HETATM   14  N   UNL     1      -8.798  10.438  65.880  1.00  0.00    -0.157 N  
HETATM   15  C   UNL     1      -8.514  10.917  63.541  1.00  0.00     0.056 C  
HETATM   16  C   UNL     1      -9.747   9.508  65.051  1.00  0.00    -0.068 C  
HETATM   17  C   UNL     1      -9.305   9.638  63.598  1.00  0.00    -0.046 C  
HETATM   18  C   UNL     1      -7.771  10.908  64.863  1.00  0.00     0.304 C  
BRANCH  14  19
HETATM   19  C   UNL     1      -8.336   9.686  67.174  1.00  0.00    -0.121 C  
BRANCH  19  20
HETATM   20  C   UNL     1      -9.095  10.037  68.482  1.00  0.00    -0.127 C  
BRANCH  20  21
HETATM   21  N   UNL     1      -9.286   8.970  69.486  1.00  0.00    -0.148 N  
HETATM   22  C   UNL     1      -8.437   8.710  70.544  1.00  0.00    -0.150 C  
HETATM   23  O   UNL     1      -7.560   9.507  70.851  1.00  0.00    -0.270 OA 
HETATM   24  H   UNL     1     -10.111   8.378  69.390  1.00  0.00     0.000 HD 
BRANCH  22  25
HETATM   25  C   UNL     1      -8.527   7.399  71.293  1.00  0.00    -0.114 A  
HETATM   26  C   UNL     1      -7.954   7.129  72.550  1.00  0.00    -0.096 A  
HETATM   27  C   UNL     1      -9.449   6.460  70.768  1.00  0.00    -0.179 A  
HETATM   28  H   UNL     1     -10.377   3.444  73.121  1.00  0.00     0.000 HD 
HETATM   29  C   UNL     1      -9.815   5.308  71.477  1.00  0.00    -0.228 A  
HETATM   30  O   UNL     1      -9.745   4.053  73.485  1.00  0.00    -0.114 OA 
HETATM   31  H   UNL     1      -8.214   4.964  75.042  1.00  0.00     0.000 HD 
HETATM   32  C   UNL     1      -8.354   5.986  73.268  1.00  0.00    -0.115 A  
HETATM   33 CL   UNL     1      -6.865   8.207  73.363  1.00  0.00    -0.130 Cl 
HETATM   34  C   UNL     1      -9.281   5.093  72.735  1.00  0.00    -0.136 A  
HETATM   35  O   UNL     1      -7.944   5.735  74.557  1.00  0.00    -0.103 OA 
ENDBRANCH  22  25
ENDBRANCH  20  21
ENDBRANCH  19  20
ENDBRANCH  14  19
ENDBRANCH  13  14
ENDBRANCH   4  13
BRANCH   8  36
HETATM   36  N   UNL     1      -7.486  16.570  69.546  1.00  0.00    -0.082 N  
HETATM   37  H   UNL     1      -8.244  17.095  69.982  1.00  0.00     0.000 HD 
HETATM   38  C   UNL     1      -6.770  17.168  68.521  1.00  0.00    -0.178 C  
HETATM   39  O   UNL     1      -5.741  16.758  68.011  1.00  0.00    -0.110 OA 
BRANCH  38  40
HETATM   40  C   UNL     1      -7.348  18.453  67.984  1.00  0.00    -0.247 C  
BRANCH  40  41
HETATM   41  C   UNL     1      -6.673  19.255  66.986  1.00  0.00    -0.196 A  
HETATM   42  H2  UNL     1      -5.381  20.322  63.105  1.00  0.00     0.000 HD 
HETATM   43  C   UNL     1      -6.075  19.724  64.931  1.00  0.00    -0.256 A  
HETATM   44  C   UNL     1      -6.543  20.631  67.100  1.00  0.00    -0.280 A  
HETATM   45  H1  UNL     1      -5.401  18.580  63.340  1.00  0.00     0.000 HD 
HETATM   46  S   UNL     1      -6.377  21.296  65.533  1.00  0.00     0.180 SA 
HETATM   47  N   UNL     1      -5.581  19.517  63.700  1.00  0.00    -0.297 NA 
HETATM   48  N   UNL     1      -6.311  18.741  65.755  1.00  0.00    -0.220 NA 
ENDBRANCH  40  41
BRANCH  40  49
HETATM   49  N   UNL     1      -8.520  18.931  68.266  1.00  0.00    -0.318 NA 
HETATM   50  H   UNL     1      -8.776  19.195  69.217  1.00  0.00     0.000 HD 
BRANCH  49  51
HETATM   51  O   UNL     1      -9.408  19.065  67.212  1.00  0.00    -0.297 OA 
HETATM   52  O   UNL     1     -12.711  20.187  66.697  1.00  0.00     3.431 OA 
HETATM   53  C   UNL     1     -10.694  20.527  68.732  1.00  0.00     0.449 C  
HETATM   54  O   UNL     1     -11.170  19.153  65.412  1.00  0.00    -0.211 OA 
HETATM   55  C   UNL     1     -11.198  18.052  68.496  1.00  0.00     0.807 C  
HETATM   56  C   UNL     1     -11.637  19.609  66.603  1.00  0.00     1.047 C  
HETATM   57  C   UNL     1     -10.713  19.316  67.783  1.00  0.00    -0.371 C  
ENDBRANCH  49  51
ENDBRANCH  40  49
ENDBRANCH  38  40
ENDBRANCH   8  36
TORSDOF 11
ENDMDL
MODEL      103
REMARK 921   NORMALIZED FREE ENERGY PREDICTED BY IDOCK:   12.75 KCAL/MOL
REMARK 922        TOTAL FREE ENERGY PREDICTED BY IDOCK:   17.53 KCAL/MOL
REMARK 923 INTER-LIGAND FREE ENERGY PREDICTED BY IDOCK:   10.90 KCAL/MOL
REMARK 924 INTRA-LIGAND FREE ENERGY PREDICTED BY IDOCK:    6.63 KCAL/MOL
REMARK 927      BINDING AFFINITY PREDICTED BY RF-SCORE:    0.00 PKD
ROOT
HETATM    1  C   UNL     1     -10.303  14.930  70.054  1.00  0.00     0.015 C  
HETATM    2  S   UNL     1      -8.690  14.669  69.302  1.00  0.00     0.122 SA 
HETATM    3  C   UNL     1      -8.330  16.413  69.113  1.00  0.00    -0.182 C  
HETATM    4  C   UNL     1      -9.406  17.297  68.528  1.00  0.00    -0.276 C  
HETATM    5  CA  UNL     1     -10.734  17.023  68.723  1.00  0.00    -0.313 C  
HETATM    6  O   UNL     1     -13.329  15.126  68.723  1.00  0.00     1.813 OA 
HETATM    7  C   UNL     1     -11.887  18.093  68.407  1.00  0.00     2.781 C  
HETATM    8  CA  UNL     1     -11.373  13.837  69.764  1.00  0.00    -0.134 C  
HETATM    9  N   UNL     1     -11.112  15.827  69.276  1.00  0.00    -0.273 N  
HETATM   10  C   UNL     1     -12.206  15.039  69.198  1.00  0.00    -0.151 C  
HETATM   11  O   UNL     1     -12.826  18.099  69.252  1.00  0.00     8.940 OA 
HETATM   12  OXT UNL     1     -11.614  18.943  67.511  1.00  0.00     0.431 OA 
ENDROOT
BRANCH   4  13
HETATM   13  C   UNL     1      -8.980  18.549  67.762  1.00  0.00    -0.275 C  
BRANCH  13  14
HETATM   14  N   UNL     1      -8.802  18.524  66.170  1.00  0.00    -0.192 N  
HETATM   15  C   UNL     1     -11.015  18.989  65.353  1.00  0.00     0.293 C  
HETATM   16  C   UNL     1      -9.452  17.189  65.671  1.00  0.00     0.243 C  
HETATM   17  C   UNL     1     -10.703  17.589  64.897  1.00  0.00     0.691 C  
HETATM   18  C   UNL     1      -9.638  19.606  65.504  1.00  0.00     0.400 C  
BRANCH  14  19
HETATM   19  C   UNL     1      -7.255  18.469  65.932  1.00  0.00    -0.230 C  
BRANCH  19  20
HETATM   20  C   UNL     1      -6.411  17.797  67.048  1.00  0.00    -0.159 C  
BRANCH  20  21
HETATM   21  N   UNL     1      -6.543  16.338  67.240  1.00  0.00    -0.179 N  
HETATM   22  C   UNL     1      -5.954  15.610  68.256  1.00  0.00    -0.114 C  
HETATM   23  O   UNL     1      -5.444  16.176  69.214  1.00  0.00    -0.111 OA 
HETATM   24  H   UNL     1      -7.117  15.826  66.568  1.00  0.00     0.000 HD 
BRANCH  22  25
HETATM   25  C   UNL     1      -5.860  14.103  68.163  1.00  0.00    -0.129 A  
HETATM   26  C   UNL     1      -6.372  13.187  69.100  1.00  0.00    -0.104 A  
HETATM   27  C   UNL     1      -5.411  13.597  66.917  1.00  0.00     1.418 A  
HETATM   28  H   UNL     1      -5.978   9.750  66.307  1.00  0.00     0.000 HD 
HETATM   29  C   UNL     1      -5.495  12.235  66.600  1.00  0.00     0.394 A  
HETATM   30  O   UNL     1      -6.271  10.066  67.154  1.00  0.00    -0.064 OA 
HETATM   31  H   UNL     1      -7.178   9.985  69.338  1.00  0.00     0.000 HD 
HETATM   32  C   UNL     1      -6.483  11.826  68.758  1.00  0.00    -0.066 A  
HETATM   33 CL   UNL     1      -7.026  13.651  70.639  1.00  0.00     0.903 Cl 
HETATM   34  C   UNL     1      -6.054  11.363  67.517  1.00  0.00    -0.065 A  
HETATM   35  O   UNL     1      -7.103  10.903  69.569  1.00  0.00    -0.115 OA 
ENDBRANCH  22  25
ENDBRANCH  20  21
ENDBRANCH  19  20
ENDBRANCH  14  19
ENDBRANCH  13  14
ENDBRANCH   4  13
BRANCH   8  36
HETATM   36  N   UNL     1     -10.991  12.735  68.805  1.00  0.00    -0.247 N  
HETATM   37  H   UNL     1     -10.445  12.975  67.977  1.00  0.00     0.000 HD 
HETATM   38  C   UNL     1     -11.350  11.410  69.000  1.00  0.00    -0.280 C  
HETATM   39  O   UNL     1     -11.847  10.929  70.005  1.00  0.00    -0.284 OA 
BRANCH  38  40
HETATM   40  C   UNL     1     -11.105  10.488  67.834  1.00  0.00    -0.304 C  
BRANCH  40  41
HETATM   41  C   UNL     1     -11.312  10.895  66.460  1.00  0.00     0.220 A  
HETATM   42  H2  UNL     1     -12.167  13.576  63.306  1.00  0.00     0.000 HD 
HETATM   43  C   UNL     1     -11.748  12.374  64.903  1.00  0.00    -0.365 A  
HETATM   44  C   UNL     1     -10.642  10.305  65.399  1.00  0.00     0.068 A  
HETATM   45  H1  UNL     1     -13.097  13.939  64.752  1.00  0.00     0.000 HD 
HETATM   46  S   UNL     1     -10.563  11.428  64.112  1.00  0.00    -0.391 SA 
HETATM   47  N   UNL     1     -12.391  13.374  64.280  1.00  0.00    -0.595 NA 
HETATM   48  N   UNL     1     -12.019  12.038  66.134  1.00  0.00    -0.557 NA 
ENDBRANCH  40  41
BRANCH  40  49
HETATM   49  N   UNL     1     -10.605   9.294  67.906  1.00  0.00    -0.342 NA 
HETATM   50  H   UNL     1      -9.824   9.005  67.317  1.00  0.00     0.000 HD 
BRANCH  49  51
HETATM   51  O   UNL     1     -11.182   8.431  68.821  1.00  0.00     0.231 OA 
HETATM   52  O   UNL     1     -10.349   5.431  70.479  1.00  0.00    -0.243 OA 
HETATM   53  C   UNL     1      -8.904   7.523  69.113  1.00  0.00    -0.136 C  
HETATM   54  O   UNL     1     -12.219   6.686  70.316  1.00  0.00    -0.294 OA 
HETATM   55  C   UNL     1     -10.566   6.497  67.495  1.00  0.00    -0.345 C  
HETATM   56  C   UNL     1     -10.953   6.355  69.950  1.00  0.00    -0.348 C  
HETATM   57  C   UNL     1     -10.386   7.223  68.829  1.00  0.00    -0.200 C  
ENDBRANCH  49  51
ENDBRANCH  40  49
ENDBRANCH  38  40
ENDBRANCH   8  36
TORSDOF 11
ENDMDL
MODEL      104
REMARK 921   NORMALIZED FREE ENERGY PREDICTED BY IDOCK:   12.94 KCAL/MOL
REMARK 922        TOTAL FREE ENERGY PREDICTED BY IDOCK:   17.84 KCAL/MOL
REMARK 923 INTER-LIGAND FREE ENERGY PREDICTED BY IDOCK:    4.29 KCAL/MOL
REMARK 924 INTRA-LIGAND FREE ENERGY PREDICTED BY IDOCK:   13.55 KCAL/MOL
REMARK 927      BINDING AFFINITY PREDICTED BY RF-SCORE:    0.00 PKD
ROOT
HETATM    1  C   UNL     1      -7.376   9.553  69.276  1.00  0.00    -0.072 C  
HETATM    2  S   UNL     1      -7.862  10.079  70.926  1.00  0.00     1.159 SA 
HETATM    3  C   UNL     1      -8.616   8.515  71.364  1.00  0.00    -0.175 C  
HETATM    4  C   UNL     1      -9.554   7.879  70.366  1.00  0.00    -0.171 C  
HETATM    5  CA  UNL     1      -9.380   8.052  69.018  1.00  0.00    -0.147 C  
HETATM    6  O   UNL     1      -8.923   9.800  66.359  1.00  0.00    -0.146 OA 
HETATM    7  C   UNL     1     -10.137   7.146  67.930  1.00  0.00    -0.173 C  
HETATM    8  CA  UNL     1      -7.350  10.666  68.188  1.00  0.00    -0.088 C  
HETATM    9  N   UNL     1      -8.477   8.975  68.557  1.00  0.00    -0.127 N  
HETATM   10  C   UNL     1      -8.362   9.728  67.442  1.00  0.00    -0.114 C  
HETATM   11  O   UNL     1      -9.422   6.835  66.937  1.00  0.00    -0.144 OA 
HETATM   12  OXT UNL     1     -11.248   6.666  68.297  1.00  0.00    -0.229 OA 
ENDROOT
BRANCH   4  13
HETATM   13  C   UNL     1     -10.672   6.978  70.890  1.00  0.00    -0.235 C  
BRANCH  13  14
HETATM   14  N   UNL     1     -10.918   6.795  72.463  1.00  0.00    -0.237 N  
HETATM   15  C   UNL     1      -9.506   4.936  73.036  1.00  0.00    -0.151 C  
HETATM   16  C   UNL     1     -11.804   5.515  72.627  1.00  0.00    -0.109 C  
HETATM   17  C   UNL     1     -10.914   4.464  73.280  1.00  0.00    -0.358 C  
HETATM   18  C   UNL     1      -9.628   6.440  73.185  1.00  0.00    -0.150 C  
BRANCH  14  19
HETATM   19  C   UNL     1     -11.741   8.056  72.897  1.00  0.00    -0.160 C  
BRANCH  19  20
HETATM   20  C   UNL     1     -11.176   9.432  72.454  1.00  0.00     0.716 C  
BRANCH  20  21
HETATM   21  N   UNL     1     -11.563   9.950  71.126  1.00  0.00    -0.370 N  
HETATM   22  C   UNL     1     -10.841  10.866  70.385  1.00  0.00     0.286 C  
HETATM   23  O   UNL     1      -9.692  11.153  70.697  1.00  0.00     2.104 OA 
HETATM   24  H   UNL     1     -12.434   9.603  70.723  1.00  0.00     0.000 HD 
BRANCH  22  25
HETATM   25  C   UNL     1     -11.484  11.587  69.223  1.00  0.00    -0.370 A  
HETATM   26  C   UNL     1     -12.279  12.746  69.311  1.00  0.00    -0.054 A  
HETATM   27  C   UNL     1     -11.057  11.172  67.936  1.00  0.00    -0.331 A  
HETATM   28  H   UNL     1     -11.994  13.557  64.949  1.00  0.00     0.000 HD 
HETATM   29  C   UNL     1     -11.379  11.898  66.782  1.00  0.00    -0.393 A  
HETATM   30  O   UNL     1     -12.304  13.845  65.800  1.00  0.00    -0.430 OA 
HETATM   31  H   UNL     1     -13.413  15.195  67.395  1.00  0.00     0.000 HD 
HETATM   32  C   UNL     1     -12.569  13.484  68.149  1.00  0.00     0.680 A  
HETATM   33 CL   UNL     1     -12.825  13.425  70.811  1.00  0.00    -0.274 Cl 
HETATM   34  C   UNL     1     -12.115  13.063  66.901  1.00  0.00    -0.285 A  
HETATM   35  O   UNL     1     -13.218  14.697  68.180  1.00  0.00     1.929 OA 
ENDBRANCH  22  25
ENDBRANCH  20  21
ENDBRANCH  19  20
ENDBRANCH  14  19
ENDBRANCH  13  14
ENDBRANCH   4  13
BRANCH   8  36
HETATM   36  N   UNL     1      -7.834  12.038  68.593  1.00  0.00    -0.233 N  
HETATM   37  H   UNL     1      -8.837  12.226  68.583  1.00  0.00     0.000 HD 
HETATM   38  C   UNL     1      -6.974  13.055  68.979  1.00  0.00    -0.056 C  
HETATM   39  O   UNL     1      -5.780  12.954  69.209  1.00  0.00    -0.073 OA 
BRANCH  38  40
HETATM   40  C   UNL     1      -7.596  14.421  69.111  1.00  0.00    -0.072 C  
BRANCH  40  41
HETATM   41  C   UNL     1      -6.808  15.632  69.204  1.00  0.00    -0.159 A  
HETATM   42  H2  UNL     1      -5.071  19.233  67.831  1.00  0.00     0.000 HD 
HETATM   43  C   UNL     1      -5.974  17.489  68.394  1.00  0.00    -0.168 A  
HETATM   44  C   UNL     1      -6.689  16.354  70.381  1.00  0.00     0.849 A  
HETATM   45  H1  UNL     1      -5.122  18.003  66.576  1.00  0.00     0.000 HD 
HETATM   46  S   UNL     1      -6.340  17.982  69.990  1.00  0.00     0.203 SA 
HETATM   47  N   UNL     1      -5.341  18.297  67.528  1.00  0.00    -0.139 NA 
HETATM   48  N   UNL     1      -6.307  16.267  68.083  1.00  0.00    -0.118 NA 
ENDBRANCH  40  41
BRANCH  40  49
HETATM   49  N   UNL     1      -8.865  14.683  69.061  1.00  0.00    -0.332 NA 
HETATM   50  H   UNL     1      -9.478  14.232  68.382  1.00  0.00     0.000 HD 
BRANCH  49  51
HETATM   51  O   UNL     1      -9.348  15.604  69.974  1.00  0.00    -0.125 OA 
HETATM   52  O   UNL     1     -12.460  16.958  70.934  1.00  0.00     1.598 OA 
HETATM   53  C   UNL     1     -11.562  14.608  69.521  1.00  0.00    -0.350 C  
HETATM   54  O   UNL     1     -10.308  17.410  71.447  1.00  0.00     2.424 OA 
HETATM   55  C   UNL     1     -10.731  16.662  68.287  1.00  0.00    -0.351 C  
HETATM   56  C   UNL     1     -11.268  16.788  70.714  1.00  0.00     0.313 C  
HETATM   57  C   UNL     1     -10.718  15.891  69.608  1.00  0.00    -0.304 C  
ENDBRANCH  49  51
ENDBRANCH  40  49
ENDBRANCH  38  40
ENDBRANCH   8  36
TORSDOF 11
ENDMDL
MODEL      105
REMARK 921   NORMALIZED FREE ENERGY PREDICTED BY IDOCK:   16.16 KCAL/MOL
REMARK 922        TOTAL FREE ENERGY PREDICTED BY IDOCK:   23.12 KCAL/MOL
REMARK 923 INTER-LIGAND FREE ENERGY PREDICTED BY IDOCK:    8.20 KCAL/MOL
REMARK 924 INTRA-LIGAND FREE ENERGY PREDICTED BY IDOCK:   14.92 KCAL/MOL
REMARK 927      BINDING AFFINITY PREDICTED BY RF-SCORE:    0.00 PKD
ROOT
HETATM    1  C   UNL     1      -9.621  11.240  66.506  1.00  0.00    -0.191 C  
HETATM    2  S   UNL     1      -7.997  11.785  65.956  1.00  0.00     0.518 SA 
HETATM    3  C   UNL     1      -7.099  10.585  66.936  1.00  0.00    -0.101 C  
HETATM    4  C   UNL     1      -7.493  10.419  68.384  1.00  0.00    -0.091 C  
HETATM    5  CA  UNL     1      -8.785  10.614  68.795  1.00  0.00    -0.157 C  
HETATM    6  O   UNL     1     -11.539  12.259  69.005  1.00  0.00    -0.270 OA 
HETATM    7  C   UNL     1      -9.310  10.137  70.235  1.00  0.00     0.201 C  
HETATM    8  CA  UNL     1     -10.719  12.341  66.578  1.00  0.00    -0.246 C  
HETATM    9  N   UNL     1      -9.700  11.168  67.938  1.00  0.00    -0.171 N  
HETATM   10  C   UNL     1     -10.823  11.904  68.081  1.00  0.00    -0.221 C  
HETATM   11  O   UNL     1     -10.477   9.658  70.221  1.00  0.00    -0.242 OA 
HETATM   12  OXT UNL     1      -8.432  10.078  71.145  1.00  0.00     0.341 OA 
ENDROOT
BRANCH   4  13
HETATM   13  C   UNL     1      -6.426   9.961  69.379  1.00  0.00    -0.046 C  
BRANCH  13  14
HETATM   14  N   UNL     1      -6.815   9.089  70.666  1.00  0.00    -0.062 N  
HETATM   15  C   UNL     1      -5.893  10.349  72.494  1.00  0.00     0.897 C  
HETATM   16  C   UNL     1      -5.496   8.396  71.147  1.00  0.00    -0.033 C  
HETATM   17  C   UNL     1      -5.134   9.049  72.476  1.00  0.00    -0.060 C  
HETATM   18  C   UNL     1      -7.207   9.977  71.836  1.00  0.00     1.993 C  
BRANCH  14  19
HETATM   19  C   UNL     1      -7.810   8.001  70.136  1.00  0.00    -0.099 C  
BRANCH  19  20
HETATM   20  C   UNL     1      -7.185   6.831  69.331  1.00  0.00    -0.089 C  
BRANCH  20  21
HETATM   21  N   UNL     1      -7.719   6.548  67.983  1.00  0.00    -0.103 N  
HETATM   22  C   UNL     1      -9.059   6.468  67.656  1.00  0.00    -0.112 C  
HETATM   23  O   UNL     1      -9.917   6.849  68.441  1.00  0.00    -0.140 OA 
HETATM   24  H   UNL     1      -7.044   6.400  67.232  1.00  0.00     0.000 HD 
BRANCH  22  25
HETATM   25  C   UNL     1      -9.492   5.834  66.353  1.00  0.00    -0.172 A  
HETATM   26  C   UNL     1     -10.821   5.592  65.957  1.00  0.00     0.139 A  
HETATM   27  C   UNL     1      -8.472   5.684  65.380  1.00  0.00    -0.147 A  
HETATM   28  H   UNL     1      -9.678   4.885  61.719  1.00  0.00     0.000 HD 
HETATM   29  C   UNL     1      -8.763   5.337  64.054  1.00  0.00    -0.008 A  
HETATM   30  O   UNL     1     -10.375   4.966  62.359  1.00  0.00     0.201 OA 
HETATM   31  H   UNL     1     -12.577   4.953  63.224  1.00  0.00     0.000 HD 
HETATM   32  C   UNL     1     -11.104   5.276  64.615  1.00  0.00     2.006 A  
HETATM   33 CL   UNL     1     -12.189   5.798  67.004  1.00  0.00     3.665 Cl 
HETATM   34  C   UNL     1     -10.081   5.159  63.677  1.00  0.00     1.250 A  
HETATM   35  O   UNL     1     -12.387   5.166  64.130  1.00  0.00     2.829 OA 
ENDBRANCH  22  25
ENDBRANCH  20  21
ENDBRANCH  19  20
ENDBRANCH  14  19
ENDBRANCH  13  14
ENDBRANCH   4  13
BRANCH   8  36
HETATM   36  N   UNL     1     -10.292  13.761  66.289  1.00  0.00    -0.287 N  
HETATM   37  H   UNL     1     -10.014  14.004  65.338  1.00  0.00     0.000 HD 
HETATM   38  C   UNL     1     -10.262  14.749  67.261  1.00  0.00    -0.241 C  
HETATM   39  O   UNL     1     -10.715  14.677  68.391  1.00  0.00    -0.231 OA 
BRANCH  38  40
HETATM   40  C   UNL     1      -9.581  16.034  66.865  1.00  0.00    -0.226 C  
BRANCH  40  41
HETATM   41  C   UNL     1     -10.106  17.336  67.218  1.00  0.00    -0.300 A  
HETATM   42  H2  UNL     1     -10.676  20.749  69.646  1.00  0.00     0.000 HD 
HETATM   43  C   UNL     1     -10.316  19.065  68.548  1.00  0.00    -0.264 A  
HETATM   44  C   UNL     1     -10.369  18.315  66.271  1.00  0.00    -0.405 A  
HETATM   45  H1  UNL     1     -10.561  19.274  70.595  1.00  0.00     0.000 HD 
HETATM   46  S   UNL     1     -10.271  19.846  67.028  1.00  0.00    -0.464 SA 
HETATM   47  N   UNL     1     -10.534  19.740  69.688  1.00  0.00     0.202 NA 
HETATM   48  N   UNL     1     -10.170  17.768  68.529  1.00  0.00    -0.369 NA 
ENDBRANCH  40  41
BRANCH  40  49
HETATM   49  N   UNL     1      -8.435  16.130  66.266  1.00  0.00    -0.332 NA 
HETATM   50  H   UNL     1      -8.344  15.985  65.260  1.00  0.00     0.000 HD 
BRANCH  49  51
HETATM   51  O   UNL     1      -7.342  16.437  67.057  1.00  0.00    -0.175 OA 
HETATM   52  O   UNL     1      -5.254  19.212  67.675  1.00  0.00    -0.169 OA 
HETATM   53  C   UNL     1      -7.876  18.794  66.544  1.00  0.00    -0.286 C  
HETATM   54  O   UNL     1      -5.229  17.040  68.292  1.00  0.00    -0.116 OA 
HETATM   55  C   UNL     1      -6.189  17.469  65.190  1.00  0.00     0.962 C  
HETATM   56  C   UNL     1      -5.700  18.079  67.554  1.00  0.00    -0.139 C  
HETATM   57  C   UNL     1      -6.804  17.690  66.573  1.00  0.00    -0.242 C  
ENDBRANCH  49  51
ENDBRANCH  40  49
ENDBRANCH  38  40
ENDBRANCH   8  36
TORSDOF 11
ENDMDL
MODEL      106
REMARK 921   NORMALIZED FREE ENERGY PREDICTED BY IDOCK:   22.92 KCAL/MOL
REMARK 922        TOTAL FREE ENERGY PREDICTED BY IDOCK:   34.23 KCAL/MOL
REMARK 923 INTER-LIGAND FREE ENERGY PREDICTED BY IDOCK:   20.62 KCAL/MOL
REMARK 924 INTRA-LIGAND FREE ENERGY PREDICTED BY IDOCK:   13.60 KCAL/MOL
REMARK 927      BINDING AFFINITY PREDICTED BY RF-SCORE:    0.00 PKD
ROOT
HETATM    1  C   UNL     1      -9.370  14.747  69.192  1.00  0.00    -0.101 C  
HETATM    2  S   UNL     1      -8.276  13.489  68.514  1.00  0.00    -0.054 SA 
HETATM    3  C   UNL     1      -8.583  13.931  66.806  1.00  0.00    -0.041 C  
HETATM    4  C   UNL     1     -10.016  14.131  66.375  1.00  0.00    -0.302 C  
HETATM    5  CA  UNL     1     -10.961  14.603  67.247  1.00  0.00    -0.317 C  
HETATM    6  O   UNL     1     -12.571  14.638  70.029  1.00  0.00    -0.308 OA 
HETATM    7  C   UNL     1     -12.394  15.134  66.757  1.00  0.00     0.649 C  
HETATM    8  CA  UNL     1     -10.071  14.386  70.534  1.00  0.00     1.391 C  
HETATM    9  N   UNL     1     -10.670  14.703  68.583  1.00  0.00    -0.242 N  
HETATM   10  C   UNL     1     -11.388  14.656  69.726  1.00  0.00    -0.275 C  
HETATM   11  O   UNL     1     -12.802  16.154  67.379  1.00  0.00     2.383 OA 
HETATM   12  OXT UNL     1     -12.824  14.631  65.679  1.00  0.00    -0.192 OA 
ENDROOT
BRANCH   4  13
HETATM   13  C   UNL     1     -10.381  13.856  64.916  1.00  0.00    -0.406 C  
BRANCH  13  14
HETATM   14  N   UNL     1     -11.688  13.012  64.535  1.00  0.00    -0.349 N  
HETATM   15  C   UNL     1     -12.664  14.274  62.737  1.00  0.00     2.317 C  
HETATM   16  C   UNL     1     -12.913  13.818  65.085  1.00  0.00    -0.229 C  
HETATM   17  C   UNL     1     -13.659  14.342  63.863  1.00  0.00     3.469 C  
HETATM   18  C   UNL     1     -11.913  12.991  63.032  1.00  0.00     0.047 C  
BRANCH  14  19
HETATM   19  C   UNL     1     -11.553  11.668  65.329  1.00  0.00    -0.035 C  
BRANCH  19  20
HETATM   20  C   UNL     1     -10.160  11.370  65.945  1.00  0.00    -0.243 C  
BRANCH  20  21
HETATM   21  N   UNL     1      -9.499  10.097  65.593  1.00  0.00    -0.202 N  
HETATM   22  C   UNL     1      -8.226   9.725  65.979  1.00  0.00    -0.117 C  
HETATM   23  O   UNL     1      -7.627  10.354  66.842  1.00  0.00    -0.102 OA 
HETATM   24  H   UNL     1     -10.025   9.439  65.017  1.00  0.00     0.000 HD 
BRANCH  22  25
HETATM   25  C   UNL     1      -7.519   8.582  65.286  1.00  0.00    -0.086 A  
HETATM   26  C   UNL     1      -7.700   7.214  65.563  1.00  0.00    -0.108 A  
HETATM   27  C   UNL     1      -6.786   8.934  64.125  1.00  0.00    -0.083 A  
HETATM   28  H   UNL     1      -5.679   5.950  61.809  1.00  0.00     0.000 HD 
HETATM   29  C   UNL     1      -6.279   7.963  63.250  1.00  0.00    -0.067 A  
HETATM   30  O   UNL     1      -6.154   5.692  62.591  1.00  0.00    -0.018 OA 
HETATM   31  H   UNL     1      -7.151   4.255  64.184  1.00  0.00     0.000 HD 
HETATM   32  C   UNL     1      -7.215   6.249  64.660  1.00  0.00    -0.064 A  
HETATM   33 CL   UNL     1      -8.628   6.618  66.901  1.00  0.00    -0.114 Cl 
HETATM   34  C   UNL     1      -6.519   6.627  63.514  1.00  0.00    -0.041 A  
HETATM   35  O   UNL     1      -7.479   4.906  64.793  1.00  0.00    -0.072 OA 
ENDBRANCH  22  25
ENDBRANCH  20  21
ENDBRANCH  19  20
ENDBRANCH  14  19
ENDBRANCH  13  14
ENDBRANCH   4  13
BRANCH   8  36
HETATM   36  N   UNL     1      -9.853  12.991  71.073  1.00  0.00     6.819 N  
HETATM   37  H   UNL     1      -9.046  12.819  71.672  1.00  0.00     0.000 HD 
HETATM   38  C   UNL     1     -10.704  11.934  70.788  1.00  0.00     3.083 C  
HETATM   39  O   UNL     1     -11.791  11.998  70.238  1.00  0.00    -0.333 OA 
BRANCH  38  40
HETATM   40  C   UNL     1     -10.210  10.571  71.197  1.00  0.00     2.049 C  
BRANCH  40  41
HETATM   41  C   UNL     1     -11.061   9.400  71.199  1.00  0.00    -0.362 A  
HETATM   42  H2  UNL     1     -14.666   7.239  71.654  1.00  0.00     0.000 HD 
HETATM   43  C   UNL     1     -12.987   8.383  71.444  1.00  0.00    -0.229 A  
HETATM   44  C   UNL     1     -10.859   8.330  70.340  1.00  0.00    -0.235 A  
HETATM   45  H1  UNL     1     -14.527   8.545  72.821  1.00  0.00     0.000 HD 
HETATM   46  S   UNL     1     -12.351   7.528  70.106  1.00  0.00     0.734 SA 
HETATM   47  N   UNL     1     -14.147   8.036  72.023  1.00  0.00    -0.355 NA 
HETATM   48  N   UNL     1     -12.256   9.365  71.894  1.00  0.00    -0.374 NA 
ENDBRANCH  40  41
BRANCH  40  49
HETATM   49  N   UNL     1      -8.985  10.267  71.493  1.00  0.00     2.011 NA 
HETATM   50  H   UNL     1      -8.761   9.482  72.104  1.00  0.00     0.000 HD 
BRANCH  49  51
HETATM   51  O   UNL     1      -7.995  11.062  70.941  1.00  0.00     2.216 OA 
HETATM   52  O   UNL     1      -5.349  10.725  68.634  1.00  0.00    -0.041 OA 
HETATM   53  C   UNL     1      -7.760   9.268  69.259  1.00  0.00    -0.081 C  
HETATM   54  O   UNL     1      -6.031  12.358  70.036  1.00  0.00    -0.135 OA 
HETATM   55  C   UNL     1      -6.309   9.365  71.338  1.00  0.00    -0.020 C  
HETATM   56  C   UNL     1      -6.066  11.087  69.556  1.00  0.00    -0.072 C  
HETATM   57  C   UNL     1      -7.057  10.180  70.281  1.00  0.00    -0.138 C  
ENDBRANCH  49  51
ENDBRANCH  40  49
ENDBRANCH  38  40
ENDBRANCH   8  36
TORSDOF 11
ENDMDL
MODEL      107
REMARK 921   NORMALIZED FREE ENERGY PREDICTED BY IDOCK:   23.24 KCAL/MOL
REMARK 922        TOTAL FREE ENERGY PREDICTED BY IDOCK:   34.75 KCAL/MOL
REMARK 923 INTER-LIGAND FREE ENERGY PREDICTED BY IDOCK:   29.38 KCAL/MOL
REMARK 924 INTRA-LIGAND FREE ENERGY PREDICTED BY IDOCK:    5.38 KCAL/MOL
REMARK 927      BINDING AFFINITY PREDICTED BY RF-SCORE:    0.00 PKD
ROOT
HETATM    1  C   UNL     1     -10.361  14.942  70.051  1.00  0.00     0.015 C  
HETATM    2  S   UNL     1      -8.842  14.788  69.099  1.00  0.00    -0.022 SA 
HETATM    3  C   UNL     1      -8.573  16.553  68.964  1.00  0.00    -0.208 C  
HETATM    4  C   UNL     1      -9.743  17.417  68.560  1.00  0.00    -0.304 C  
HETATM    5  CA  UNL     1     -11.027  17.077  68.897  1.00  0.00    -0.141 C  
HETATM    6  O   UNL     1     -13.531  15.071  69.104  1.00  0.00     1.635 OA 
HETATM    7  C   UNL     1     -12.249  18.110  68.780  1.00  0.00     5.470 C  
HETATM    8  CA  UNL     1     -11.417  13.819  69.833  1.00  0.00    -0.160 C  
HETATM    9  N   UNL     1     -11.291  15.839  69.425  1.00  0.00    -0.321 N  
HETATM   10  C   UNL     1     -12.356  15.010  69.436  1.00  0.00    -0.126 C  
HETATM   11  O   UNL     1     -13.077  18.034  69.730  1.00  0.00    12.080 OA 
HETATM   12  OXT UNL     1     -12.118  19.015  67.905  1.00  0.00     1.946 OA 
ENDROOT
BRANCH   4  13
HETATM   13  C   UNL     1      -9.461  18.723  67.817  1.00  0.00    -0.301 C  
BRANCH  13  14
HETATM   14  N   UNL     1      -9.526  18.796  66.218  1.00  0.00    -0.308 N  
HETATM   15  C   UNL     1     -11.767  19.551  65.784  1.00  0.00     2.036 C  
HETATM   16  C   UNL     1     -10.392  17.578  65.753  1.00  0.00    -0.209 C  
HETATM   17  C   UNL     1     -11.690  18.163  65.207  1.00  0.00     3.132 C  
HETATM   18  C   UNL     1     -10.321  20.006  65.753  1.00  0.00    -0.369 C  
BRANCH  14  19
HETATM   19  C   UNL     1      -8.048  18.596  65.739  1.00  0.00     0.218 C  
BRANCH  19  20
HETATM   20  C   UNL     1      -6.946  18.761  66.819  1.00  0.00    -0.200 C  
BRANCH  20  21
HETATM   21  N   UNL     1      -6.909  17.791  67.933  1.00  0.00    -0.189 N  
HETATM   22  C   UNL     1      -6.116  17.899  69.059  1.00  0.00    -0.216 C  
HETATM   23  O   UNL     1      -5.534  18.945  69.314  1.00  0.00    -0.196 OA 
HETATM   24  H   UNL     1      -7.519  16.976  67.865  1.00  0.00     0.000 HD 
BRANCH  22  25
HETATM   25  C   UNL     1      -5.891  16.701  69.954  1.00  0.00    -0.217 A  
HETATM   26  C   UNL     1      -6.207  16.627  71.324  1.00  0.00     1.772 A  
HETATM   27  C   UNL     1      -5.538  15.501  69.288  1.00  0.00    -0.102 A  
HETATM   28  H   UNL     1      -5.805  12.199  71.415  1.00  0.00     0.000 HD 
HETATM   29  C   UNL     1      -5.529  14.265  69.949  1.00  0.00    -0.098 A  
HETATM   30  O   UNL     1      -6.030  12.994  71.884  1.00  0.00    -0.051 OA 
HETATM   31  H   UNL     1      -6.675  14.368  73.699  1.00  0.00     0.000 HD 
HETATM   32  C   UNL     1      -6.226  15.376  71.969  1.00  0.00     1.468 A  
HETATM   33 CL   UNL     1      -6.725  17.987  72.267  1.00  0.00     4.484 Cl 
HETATM   34  C   UNL     1      -5.897  14.210  71.281  1.00  0.00    -0.206 A  
HETATM   35  O   UNL     1      -6.661  15.212  73.264  1.00  0.00     2.478 OA 
ENDBRANCH  22  25
ENDBRANCH  20  21
ENDBRANCH  19  20
ENDBRANCH  14  19
ENDBRANCH  13  14
ENDBRANCH   4  13
BRANCH   8  36
HETATM   36  N   UNL     1     -11.114  12.783  68.776  1.00  0.00    -0.249 N  
HETATM   37  H   UNL     1     -10.669  13.085  67.908  1.00  0.00     0.000 HD 
HETATM   38  C   UNL     1     -11.413  11.439  68.933  1.00  0.00    -0.298 C  
HETATM   39  O   UNL     1     -11.783  10.888  69.957  1.00  0.00    -0.283 OA 
BRANCH  38  40
HETATM   40  C   UNL     1     -11.274  10.589  67.696  1.00  0.00    -0.265 C  
BRANCH  40  41
HETATM   41  C   UNL     1     -11.630  11.067  66.377  1.00  0.00     0.593 A  
HETATM   42  H2  UNL     1     -12.848  13.901  63.487  1.00  0.00     0.000 HD 
HETATM   43  C   UNL     1     -12.247  12.621  64.960  1.00  0.00    -0.476 A  
HETATM   44  C   UNL     1     -11.066  10.550  65.220  1.00  0.00     0.580 A  
HETATM   45  H1  UNL     1     -13.627  14.164  65.040  1.00  0.00     0.000 HD 
HETATM   46  S   UNL     1     -11.139  11.743  63.998  1.00  0.00    -0.405 SA 
HETATM   47  N   UNL     1     -12.966  13.641  64.466  1.00  0.00    -0.496 NA 
HETATM   48  N   UNL     1     -12.383  12.212  66.192  1.00  0.00    -0.370 NA 
ENDBRANCH  40  41
BRANCH  40  49
HETATM   49  N   UNL     1     -10.747   9.405  67.647  1.00  0.00    -0.402 NA 
HETATM   50  H   UNL     1     -10.020   9.171  66.972  1.00  0.00     0.000 HD 
BRANCH  49  51
HETATM   51  O   UNL     1     -11.221   8.475  68.556  1.00  0.00     0.259 OA 
HETATM   52  O   UNL     1     -10.182   5.401  69.940  1.00  0.00    -0.232 OA 
HETATM   53  C   UNL     1      -8.909   7.606  68.581  1.00  0.00    -0.127 C  
HETATM   54  O   UNL     1     -12.082   6.619  70.028  1.00  0.00    -0.280 OA 
HETATM   55  C   UNL     1     -10.696   6.639  67.061  1.00  0.00    -0.437 C  
HETATM   56  C   UNL     1     -10.850   6.340  69.528  1.00  0.00    -0.340 C  
HETATM   57  C   UNL     1     -10.406   7.288  68.416  1.00  0.00    -0.185 C  
ENDBRANCH  49  51
ENDBRANCH  40  49
ENDBRANCH  38  40
ENDBRANCH   8  36
TORSDOF 11
ENDMDL
MODEL      108
REMARK 921   NORMALIZED FREE ENERGY PREDICTED BY IDOCK:   24.29 KCAL/MOL
REMARK 922        TOTAL FREE ENERGY PREDICTED BY IDOCK:   36.49 KCAL/MOL
REMARK 923 INTER-LIGAND FREE ENERGY PREDICTED BY IDOCK:   16.84 KCAL/MOL
REMARK 924 INTRA-LIGAND FREE ENERGY PREDICTED BY IDOCK:   19.64 KCAL/MOL
REMARK 927      BINDING AFFINITY PREDICTED BY RF-SCORE:    0.00 PKD
ROOT
HETATM    1  C   UNL     1      -7.651  10.544  68.736  1.00  0.00    -0.101 C  
HETATM    2  S   UNL     1      -9.387  10.130  68.956  1.00  0.00    -0.197 SA 
HETATM    3  C   UNL     1      -9.295   8.603  68.025  1.00  0.00    -0.136 C  
HETATM    4  C   UNL     1      -8.593   8.632  66.688  1.00  0.00    -0.124 C  
HETATM    5  CA  UNL     1      -7.550   9.489  66.453  1.00  0.00    -0.097 C  
HETATM    6  O   UNL     1      -6.113  12.364  66.437  1.00  0.00     0.192 OA 
HETATM    7  C   UNL     1      -6.578   9.331  65.186  1.00  0.00    -0.074 C  
HETATM    8  CA  UNL     1      -7.316  12.063  68.680  1.00  0.00    -0.111 C  
HETATM    9  N   UNL     1      -7.262  10.480  67.355  1.00  0.00    -0.090 N  
HETATM   10  C   UNL     1      -6.699  11.705  67.283  1.00  0.00    -0.124 C  
HETATM   11  O   UNL     1      -5.364   9.568  65.440  1.00  0.00    -0.042 OA 
HETATM   12  OXT UNL     1      -7.088   8.772  64.172  1.00  0.00    -0.088 OA 
ENDROOT
BRANCH   4  13
HETATM   13  C   UNL     1      -9.030   7.635  65.616  1.00  0.00     0.008 C  
BRANCH  13  14
HETATM   14  N   UNL     1      -8.602   7.826  64.084  1.00  0.00     0.220 N  
HETATM   15  C   UNL     1      -8.699   5.595  63.193  1.00  0.00     0.166 C  
HETATM   16  C   UNL     1      -7.146   7.266  63.956  1.00  0.00    -0.071 C  
HETATM   17  C   UNL     1      -7.251   5.999  63.116  1.00  0.00    -0.055 C  
HETATM   18  C   UNL     1      -9.418   6.930  63.166  1.00  0.00     2.795 C  
BRANCH  14  19
HETATM   19  C   UNL     1      -8.584   9.376  63.855  1.00  0.00    -0.210 C  
BRANCH  19  20
HETATM   20  C   UNL     1      -9.110  10.250  65.025  1.00  0.00    -0.207 C  
BRANCH  20  21
HETATM   21  N   UNL     1     -10.043  11.351  64.709  1.00  0.00    -0.260 N  
HETATM   22  C   UNL     1      -9.797  12.374  63.814  1.00  0.00    -0.100 C  
HETATM   23  O   UNL     1      -8.847  12.314  63.043  1.00  0.00     0.423 OA 
HETATM   24  H   UNL     1     -10.943  11.356  65.191  1.00  0.00     0.000 HD 
BRANCH  22  25
HETATM   25  C   UNL     1     -10.650  13.623  63.825  1.00  0.00     0.685 A  
HETATM   26  C   UNL     1     -12.007  13.695  63.461  1.00  0.00    -0.249 A  
HETATM   27  C   UNL     1     -10.073  14.749  64.464  1.00  0.00     0.503 A  
HETATM   28  H   UNL     1     -12.529  17.708  65.305  1.00  0.00     0.000 HD 
HETATM   29  C   UNL     1     -10.824  15.894  64.761  1.00  0.00    -0.346 A  
HETATM   30  O   UNL     1     -12.932  16.970  64.862  1.00  0.00     4.540 OA 
HETATM   31  H   UNL     1     -14.626  15.688  63.821  1.00  0.00     0.000 HD 
HETATM   32  C   UNL     1     -12.760  14.837  63.794  1.00  0.00     0.764 A  
HETATM   33 CL   UNL     1     -12.880  12.383  62.737  1.00  0.00     0.431 Cl 
HETATM   34  C   UNL     1     -12.169  15.919  64.443  1.00  0.00     0.204 A  
HETATM   35  O   UNL     1     -14.119  14.917  63.596  1.00  0.00     4.169 OA 
ENDBRANCH  22  25
ENDBRANCH  20  21
ENDBRANCH  19  20
ENDBRANCH  14  19
ENDBRANCH  13  14
ENDBRANCH   4  13
BRANCH   8  36
HETATM   36  N   UNL     1      -8.479  13.027  68.707  1.00  0.00    -0.365 N  
HETATM   37  H   UNL     1      -9.420  12.661  68.563  1.00  0.00     0.000 HD 
HETATM   38  C   UNL     1      -8.322  14.388  68.918  1.00  0.00    -0.080 C  
HETATM   39  O   UNL     1      -7.304  14.960  69.270  1.00  0.00    -0.152 OA 
BRANCH  38  40
HETATM   40  C   UNL     1      -9.544  15.233  68.668  1.00  0.00    -0.206 C  
BRANCH  40  41
HETATM   41  C   UNL     1      -9.592  16.646  68.975  1.00  0.00    -0.246 A  
HETATM   42  H2  UNL     1      -8.172  20.325  70.497  1.00  0.00     0.000 HD 
HETATM   43  C   UNL     1      -8.750  18.503  69.780  1.00  0.00     1.117 A  
HETATM   44  C   UNL     1     -10.263  17.560  68.176  1.00  0.00    -0.359 A  
HETATM   45  H1  UNL     1      -7.673  18.963  71.489  1.00  0.00     0.000 HD 
HETATM   46  S   UNL     1      -9.550  19.100  68.391  1.00  0.00    -0.402 SA 
HETATM   47  N   UNL     1      -8.150  19.319  70.661  1.00  0.00     1.989 NA 
HETATM   48  N   UNL     1      -8.795  17.210  69.954  1.00  0.00     1.185 NA 
ENDBRANCH  40  41
BRANCH  40  49
HETATM   49  N   UNL     1     -10.631  14.836  68.081  1.00  0.00    -0.238 NA 
HETATM   50  H   UNL     1     -10.606  14.328  67.197  1.00  0.00     0.000 HD 
BRANCH  49  51
HETATM   51  O   UNL     1     -11.825  15.137  68.713  1.00  0.00    -0.330 OA 
HETATM   52  O   UNL     1     -13.699  13.971  71.464  1.00  0.00    -0.337 OA 
HETATM   53  C   UNL     1     -10.958  13.777  70.583  1.00  0.00     1.114 C  
HETATM   54  O   UNL     1     -14.074  15.457  69.806  1.00  0.00     1.482 OA 
HETATM   55  C   UNL     1     -12.458  12.797  68.788  1.00  0.00     0.455 C  
HETATM   56  C   UNL     1     -13.356  14.468  70.400  1.00  0.00     0.153 C  
HETATM   57  C   UNL     1     -12.121  14.041  69.611  1.00  0.00    -0.355 C  
ENDBRANCH  49  51
ENDBRANCH  40  49
ENDBRANCH  38  40
ENDBRANCH   8  36
TORSDOF 11
ENDMDL
MODEL      109
REMARK 921   NORMALIZED FREE ENERGY PREDICTED BY IDOCK:   26.28 KCAL/MOL
REMARK 922        TOTAL FREE ENERGY PREDICTED BY IDOCK:   39.75 KCAL/MOL
REMARK 923 INTER-LIGAND FREE ENERGY PREDICTED BY IDOCK:   27.18 KCAL/MOL
REMARK 924 INTRA-LIGAND FREE ENERGY PREDICTED BY IDOCK:   12.57 KCAL/MOL
REMARK 927      BINDING AFFINITY PREDICTED BY RF-SCORE:    0.00 PKD
ROOT
HETATM    1  C   UNL     1      -9.532  15.880  69.602  1.00  0.00    -0.148 C  
HETATM    2  S   UNL     1      -8.108  15.764  68.509  1.00  0.00    -0.163 SA 
HETATM    3  C   UNL     1      -7.968  17.532  68.261  1.00  0.00    -0.259 C  
HETATM    4  C   UNL     1      -9.226  18.302  67.938  1.00  0.00    -0.284 C  
HETATM    5  CA  UNL     1     -10.445  17.905  68.421  1.00  0.00    -0.330 C  
HETATM    6  O   UNL     1     -12.782  15.770  68.979  1.00  0.00     0.260 OA 
HETATM    7  C   UNL     1     -11.736  18.857  68.379  1.00  0.00     2.644 C  
HETATM    8  CA  UNL     1     -10.530  14.686  69.547  1.00  0.00    -0.107 C  
HETATM    9  N   UNL     1     -10.575  16.686  69.032  1.00  0.00    -0.320 N  
HETATM   10  C   UNL     1     -11.579  15.797  69.192  1.00  0.00    -0.392 C  
HETATM   11  O   UNL     1     -12.460  18.784  69.411  1.00  0.00     8.824 OA 
HETATM   12  OXT UNL     1     -11.751  19.719  67.453  1.00  0.00     0.523 OA 
ENDROOT
BRANCH   4  13
HETATM   13  C   UNL     1      -9.103  19.580  67.108  1.00  0.00    -0.309 C  
BRANCH  13  14
HETATM   14  N   UNL     1      -9.283  19.553  65.516  1.00  0.00     0.403 N  
HETATM   15  C   UNL     1     -11.509  20.402  65.192  1.00  0.00     1.377 C  
HETATM   16  C   UNL     1     -10.242  18.357  65.198  1.00  0.00     1.289 C  
HETATM   17  C   UNL     1     -11.545  18.978  64.707  1.00  0.00     3.702 C  
HETATM   18  C   UNL     1     -10.048  20.773  65.027  1.00  0.00     1.506 C  
BRANCH  14  19
HETATM   19  C   UNL     1      -7.857  19.241  64.948  1.00  0.00     1.861 C  
BRANCH  19  20
HETATM   20  C   UNL     1      -6.679  19.342  65.953  1.00  0.00    -0.248 C  
BRANCH  20  21
HETATM   21  N   UNL     1      -6.716  18.492  67.161  1.00  0.00    -0.195 N  
HETATM   22  C   UNL     1      -5.862  18.601  68.241  1.00  0.00    -0.201 C  
HETATM   23  O   UNL     1      -5.135  19.578  68.365  1.00  0.00    -0.189 OA 
HETATM   24  H   UNL     1      -7.431  17.765  67.201  1.00  0.00     0.000 HD 
BRANCH  22  25
HETATM   25  C   UNL     1      -5.755  17.480  69.249  1.00  0.00    -0.203 A  
HETATM   26  C   UNL     1      -6.290  17.489  70.551  1.00  0.00     0.812 A  
HETATM   27  C   UNL     1      -5.263  16.251  68.742  1.00  0.00    -0.108 A  
HETATM   28  H   UNL     1      -5.784  13.098  71.041  1.00  0.00     0.000 HD 
HETATM   29  C   UNL     1      -5.329  15.066  69.487  1.00  0.00    -0.089 A  
HETATM   30  O   UNL     1      -6.105  13.914  71.406  1.00  0.00    -0.227 OA 
HETATM   31  H   UNL     1      -7.079  15.386  72.983  1.00  0.00     0.000 HD 
HETATM   32  C   UNL     1      -6.380  16.286  71.277  1.00  0.00     1.814 A  
HETATM   33 CL   UNL     1      -6.994  18.890  71.291  1.00  0.00     2.219 Cl 
HETATM   34  C   UNL     1      -5.909  15.090  70.742  1.00  0.00    -0.062 A  
HETATM   35  O   UNL     1      -7.018  16.197  72.493  1.00  0.00     5.630 OA 
ENDBRANCH  22  25
ENDBRANCH  20  21
ENDBRANCH  19  20
ENDBRANCH  14  19
ENDBRANCH  13  14
ENDBRANCH   4  13
BRANCH   8  36
HETATM   36  N   UNL     1     -10.267  13.614  68.516  1.00  0.00    -0.240 N  
HETATM   37  H   UNL     1      -9.849  13.884  67.626  1.00  0.00     0.000 HD 
HETATM   38  C   UNL     1     -10.569  12.278  68.728  1.00  0.00    -0.194 C  
HETATM   39  O   UNL     1     -10.909  11.763  69.780  1.00  0.00    -0.006 OA 
BRANCH  38  40
HETATM   40  C   UNL     1     -10.474  11.387  67.516  1.00  0.00    -0.201 C  
BRANCH  40  41
HETATM   41  C   UNL     1     -10.937  11.797  66.207  1.00  0.00    -0.300 A  
HETATM   42  H2  UNL     1     -13.692  12.186  63.025  1.00  0.00     0.000 HD 
HETATM   43  C   UNL     1     -12.450  11.957  64.630  1.00  0.00     0.059 A  
HETATM   44  C   UNL     1     -10.491  12.955  65.588  1.00  0.00    -0.277 A  
HETATM   45  H1  UNL     1     -13.859  10.649  63.860  1.00  0.00     0.000 HD 
HETATM   46  S   UNL     1     -11.692  13.484  64.491  1.00  0.00    -0.416 SA 
HETATM   47  N   UNL     1     -13.407  11.559  63.777  1.00  0.00    -0.034 NA 
HETATM   48  N   UNL     1     -12.011  11.187  65.587  1.00  0.00     0.559 NA 
ENDBRANCH  40  41
BRANCH  40  49
HETATM   49  N   UNL     1      -9.900  10.225  67.475  1.00  0.00    -0.169 NA 
HETATM   50  H   UNL     1     -10.427   9.375  67.275  1.00  0.00     0.000 HD 
BRANCH  49  51
HETATM   51  O   UNL     1      -8.538  10.194  67.716  1.00  0.00    -0.118 OA 
HETATM   52  O   UNL     1      -5.710   8.438  66.549  1.00  0.00    -0.041 OA 
HETATM   53  C   UNL     1      -8.383   8.949  65.588  1.00  0.00    -0.144 C  
HETATM   54  O   UNL     1      -6.085   9.906  68.223  1.00  0.00    -0.046 OA 
HETATM   55  C   UNL     1      -8.539   7.772  67.830  1.00  0.00    -0.121 C  
HETATM   56  C   UNL     1      -6.501   9.072  67.233  1.00  0.00    -0.061 C  
HETATM   57  C   UNL     1      -8.019   9.001  67.082  1.00  0.00    -0.102 C  
ENDBRANCH  49  51
ENDBRANCH  40  49
ENDBRANCH  38  40
ENDBRANCH   8  36
TORSDOF 11
ENDMDL
MODEL      110
REMARK 921   NORMALIZED FREE ENERGY PREDICTED BY IDOCK:   27.14 KCAL/MOL
REMARK 922        TOTAL FREE ENERGY PREDICTED BY IDOCK:   41.17 KCAL/MOL
REMARK 923 INTER-LIGAND FREE ENERGY PREDICTED BY IDOCK:   35.50 KCAL/MOL
REMARK 924 INTRA-LIGAND FREE ENERGY PREDICTED BY IDOCK:    5.67 KCAL/MOL
REMARK 927      BINDING AFFINITY PREDICTED BY RF-SCORE:    0.00 PKD
ROOT
HETATM    1  C   UNL     1      -8.730  10.262  69.506  1.00  0.00    -0.139 C  
HETATM    2  S   UNL     1     -10.373  10.456  68.799  1.00  0.00    -0.210 SA 
HETATM    3  C   UNL     1     -10.062   9.378  67.404  1.00  0.00    -0.215 C  
HETATM    4  C   UNL     1      -8.778   9.572  66.634  1.00  0.00    -0.146 C  
HETATM    5  CA  UNL     1      -7.640  10.022  67.251  1.00  0.00    -0.095 C  
HETATM    6  O   UNL     1      -5.958  12.031  69.113  1.00  0.00    -0.063 OA 
HETATM    7  C   UNL     1      -6.195   9.931  66.559  1.00  0.00    -0.069 C  
HETATM    8  CA  UNL     1      -8.175  11.492  70.283  1.00  0.00     2.990 C  
HETATM    9  N   UNL     1      -7.702  10.502  68.533  1.00  0.00    -0.098 N  
HETATM   10  C   UNL     1      -6.993  11.397  69.255  1.00  0.00    -0.115 C  
HETATM   11  O   UNL     1      -5.265   9.622  67.355  1.00  0.00    -0.036 OA 
HETATM   12  OXT UNL     1      -6.192   9.945  65.295  1.00  0.00    -0.079 OA 
ENDROOT
BRANCH   4  13
HETATM   13  C   UNL     1      -8.755   9.193  65.153  1.00  0.00    -0.195 C  
BRANCH  13  14
HETATM   14  N   UNL     1      -9.900   9.695  64.152  1.00  0.00     0.295 N  
HETATM   15  C   UNL     1     -10.141  12.023  64.701  1.00  0.00    -0.291 C  
HETATM   16  C   UNL     1     -11.193   9.883  65.015  1.00  0.00     2.999 C  
HETATM   17  C   UNL     1     -11.453  11.384  65.068  1.00  0.00    -0.011 C  
HETATM   18  C   UNL     1      -9.605  11.092  63.631  1.00  0.00    -0.288 C  
BRANCH  14  19
HETATM   19  C   UNL     1     -10.114   8.511  63.149  1.00  0.00     5.216 C  
BRANCH  19  20
HETATM   20  C   UNL     1     -10.943   7.308  63.671  1.00  0.00    15.857 C  
BRANCH  20  21
HETATM   21  N   UNL     1     -10.300   6.377  64.622  1.00  0.00     3.166 N  
HETATM   22  C   UNL     1      -8.948   6.328  64.899  1.00  0.00     0.385 C  
HETATM   23  O   UNL     1      -8.201   7.222  64.524  1.00  0.00    -0.107 OA 
HETATM   24  H   UNL     1     -10.904   5.717  65.113  1.00  0.00     0.000 HD 
BRANCH  22  25
HETATM   25  C   UNL     1      -8.354   5.129  65.604  1.00  0.00    -0.123 A  
HETATM   26  C   UNL     1      -7.041   5.034  66.101  1.00  0.00    -0.072 A  
HETATM   27  C   UNL     1      -9.279   4.121  65.975  1.00  0.00    -0.149 A  
HETATM   28  H   UNL     1      -7.979   1.442  68.548  1.00  0.00     0.000 HD 
HETATM   29  C   UNL     1      -8.923   3.073  66.834  1.00  0.00    -0.178 A  
HETATM   30  O   UNL     1      -7.339   2.098  68.301  1.00  0.00    -0.046 OA 
HETATM   31  H   UNL     1      -5.258   3.221  68.221  1.00  0.00     0.000 HD 
HETATM   32  C   UNL     1      -6.704   3.995  66.990  1.00  0.00    -0.047 A  
HETATM   33 CL   UNL     1      -5.811   6.219  65.800  1.00  0.00    -0.024 Cl 
HETATM   34  C   UNL     1      -7.643   3.032  67.353  1.00  0.00    -0.066 A  
HETATM   35  O   UNL     1      -5.485   3.922  67.622  1.00  0.00    -0.015 OA 
ENDBRANCH  22  25
ENDBRANCH  20  21
ENDBRANCH  19  20
ENDBRANCH  14  19
ENDBRANCH  13  14
ENDBRANCH   4  13
BRANCH   8  36
HETATM   36  N   UNL     1      -9.012  12.750  70.273  1.00  0.00     3.814 N  
HETATM   37  H   UNL     1      -9.728  12.866  70.990  1.00  0.00     0.000 HD 
HETATM   38  C   UNL     1      -8.850  13.753  69.331  1.00  0.00     0.815 C  
HETATM   39  O   UNL     1      -7.945  13.855  68.519  1.00  0.00    -0.137 OA 
BRANCH  38  40
HETATM   40  C   UNL     1      -9.921  14.813  69.314  1.00  0.00    -0.138 C  
BRANCH  40  41
HETATM   41  C   UNL     1     -11.165  14.655  68.590  1.00  0.00    -0.275 A  
HETATM   42  H2  UNL     1     -13.615  13.931  65.223  1.00  0.00     0.000 HD 
HETATM   43  C   UNL     1     -12.338  14.247  66.784  1.00  0.00    -0.245 A  
HETATM   44  C   UNL     1     -12.311  14.143  69.180  1.00  0.00    -0.138 A  
HETATM   45  H1  UNL     1     -12.160  14.821  64.801  1.00  0.00     0.000 HD 
HETATM   46  S   UNL     1     -13.289  13.450  67.961  1.00  0.00     5.712 SA 
HETATM   47  N   UNL     1     -12.726  14.346  65.503  1.00  0.00    -0.419 NA 
HETATM   48  N   UNL     1     -11.234  14.792  67.216  1.00  0.00    -0.336 NA 
ENDBRANCH  40  41
BRANCH  40  49
HETATM   49  N   UNL     1      -9.906  15.914  69.998  1.00  0.00    -0.089 NA 
HETATM   50  H   UNL     1     -10.602  16.106  70.719  1.00  0.00     0.000 HD 
BRANCH  49  51
HETATM   51  O   UNL     1      -8.900  16.818  69.703  1.00  0.00     0.218 OA 
HETATM   52  O   UNL     1      -8.414  19.597  67.587  1.00  0.00    -0.303 OA 
HETATM   53  C   UNL     1     -10.683  18.168  68.654  1.00  0.00     0.103 C  
HETATM   54  O   UNL     1      -7.075  18.378  68.935  1.00  0.00    -0.275 OA 
HETATM   55  C   UNL     1      -9.258  16.548  67.320  1.00  0.00    -0.224 C  
HETATM   56  C   UNL     1      -8.246  18.607  68.286  1.00  0.00    -0.323 C  
HETATM   57  C   UNL     1      -9.296  17.519  68.501  1.00  0.00    -0.286 C  
ENDBRANCH  49  51
ENDBRANCH  40  49
ENDBRANCH  38  40
ENDBRANCH   8  36
TORSDOF 11
ENDMDL
MODEL      111
REMARK 921   NORMALIZED FREE ENERGY PREDICTED BY IDOCK:   28.17 KCAL/MOL
REMARK 922        TOTAL FREE ENERGY PREDICTED BY IDOCK:   42.86 KCAL/MOL
REMARK 923 INTER-LIGAND FREE ENERGY PREDICTED BY IDOCK:    0.51 KCAL/MOL
REMARK 924 INTRA-LIGAND FREE ENERGY PREDICTED BY IDOCK:   42.34 KCAL/MOL
REMARK 927      BINDING AFFINITY PREDICTED BY RF-SCORE:    0.00 PKD
ROOT
HETATM    1  C   UNL     1      -7.289  10.523  66.828  1.00  0.00    -0.114 C  
HETATM    2  S   UNL     1      -6.978  10.812  68.576  1.00  0.00    -0.072 SA 
HETATM    3  C   UNL     1      -6.984   9.076  69.016  1.00  0.00    -0.063 C  
HETATM    4  C   UNL     1      -8.106   8.216  68.484  1.00  0.00    -0.124 C  
HETATM    5  CA  UNL     1      -8.694   8.484  67.276  1.00  0.00    -0.130 C  
HETATM    6  O   UNL     1     -10.113  10.383  65.105  1.00  0.00    -0.303 OA 
HETATM    7  C   UNL     1      -9.645   7.428  66.531  1.00  0.00    -0.164 C  
HETATM    8  CA  UNL     1      -8.102  11.628  66.091  1.00  0.00     0.128 C  
HETATM    9  N   UNL     1      -8.417   9.658  66.625  1.00  0.00    -0.123 N  
HETATM   10  C   UNL     1      -9.080  10.450  65.754  1.00  0.00    -0.168 C  
HETATM   11  O   UNL     1      -9.487   7.391  65.279  1.00  0.00     0.567 OA 
HETATM   12  OXT UNL     1     -10.252   6.612  67.284  1.00  0.00    -0.156 OA 
ENDROOT
BRANCH   4  13
HETATM   13  C   UNL     1      -8.532   6.994  69.297  1.00  0.00    -0.133 C  
BRANCH  13  14
HETATM   14  N   UNL     1     -10.047   6.813  69.786  1.00  0.00    -0.180 N  
HETATM   15  C   UNL     1     -10.991   5.330  68.146  1.00  0.00     0.424 C  
HETATM   16  C   UNL     1     -10.935   7.644  68.799  1.00  0.00     0.117 C  
HETATM   17  C   UNL     1     -11.735   6.629  67.991  1.00  0.00     0.863 C  
HETATM   18  C   UNL     1     -10.524   5.383  69.588  1.00  0.00    -0.291 C  
BRANCH  14  19
HETATM   19  C   UNL     1     -10.099   7.469  71.208  1.00  0.00    -0.187 C  
BRANCH  19  20
HETATM   20  C   UNL     1      -9.374   8.833  71.363  1.00  0.00    -0.258 C  
BRANCH  20  21
HETATM   21  N   UNL     1     -10.095  10.056  70.956  1.00  0.00    -0.139 N  
HETATM   22  C   UNL     1      -9.912  10.732  69.765  1.00  0.00     0.157 C  
HETATM   23  O   UNL     1      -9.275  10.224  68.851  1.00  0.00    -0.156 OA 
HETATM   24  H   UNL     1     -10.784  10.434  71.608  1.00  0.00     0.000 HD 
BRANCH  22  25
HETATM   25  C   UNL     1     -10.427  12.144  69.598  1.00  0.00     0.608 A  
HETATM   26  C   UNL     1     -10.967  12.689  68.418  1.00  0.00    -0.257 A  
HETATM   27  C   UNL     1     -10.570  12.885  70.798  1.00  0.00     3.857 A  
HETATM   28  H   UNL     1     -12.703  16.184  70.549  1.00  0.00     0.000 HD 
HETATM   29  C   UNL     1     -11.251  14.110  70.832  1.00  0.00     0.460 A  
HETATM   30  O   UNL     1     -12.606  15.711  69.731  1.00  0.00    -0.238 OA 
HETATM   31  H   UNL     1     -12.829  15.239  67.424  1.00  0.00     0.000 HD 
HETATM   32  C   UNL     1     -11.678  13.903  68.471  1.00  0.00    -0.355 A  
HETATM   33 CL   UNL     1     -10.940  11.879  66.885  1.00  0.00    -0.316 Cl 
HETATM   34  C   UNL     1     -11.820  14.597  69.670  1.00  0.00    -0.320 A  
HETATM   35  O   UNL     1     -12.349  14.420  67.388  1.00  0.00    -0.300 OA 
ENDBRANCH  22  25
ENDBRANCH  20  21
ENDBRANCH  19  20
ENDBRANCH  14  19
ENDBRANCH  13  14
ENDBRANCH   4  13
BRANCH   8  36
HETATM   36  N   UNL     1      -8.636  12.766  66.929  1.00  0.00    -0.341 N  
HETATM   37  H   UNL     1      -9.639  12.953  66.916  1.00  0.00     0.000 HD 
HETATM   38  C   UNL     1      -7.823  13.567  67.715  1.00  0.00    -0.167 C  
HETATM   39  O   UNL     1      -6.646  13.380  67.976  1.00  0.00    -0.100 OA 
BRANCH  38  40
HETATM   40  C   UNL     1      -8.475  14.799  68.286  1.00  0.00    -0.151 C  
BRANCH  40  41
HETATM   41  C   UNL     1      -7.737  16.009  68.580  1.00  0.00    -0.176 A  
HETATM   42  H2  UNL     1      -7.180  19.956  69.987  1.00  0.00     0.000 HD 
HETATM   43  C   UNL     1      -7.558  18.051  69.356  1.00  0.00     0.206 A  
HETATM   44  C   UNL     1      -6.396  15.996  68.933  1.00  0.00    -0.129 A  
HETATM   45  H1  UNL     1      -8.752  19.739  69.233  1.00  0.00     0.000 HD 
HETATM   46  S   UNL     1      -6.063  17.392  69.863  1.00  0.00    -0.105 SA 
HETATM   47  N   UNL     1      -7.861  19.346  69.535  1.00  0.00    -0.036 NA 
HETATM   48  N   UNL     1      -8.367  17.228  68.746  1.00  0.00    -0.256 NA 
ENDBRANCH  40  41
BRANCH  40  49
HETATM   49  N   UNL     1      -9.747  14.958  68.487  1.00  0.00    -0.208 NA 
HETATM   50  H   UNL     1     -10.359  14.168  68.689  1.00  0.00     0.000 HD 
BRANCH  49  51
HETATM   51  O   UNL     1     -10.232  16.252  68.413  1.00  0.00    -0.233 OA 
HETATM   52  O   UNL     1     -11.305  18.509  65.924  1.00  0.00     0.548 OA 
HETATM   53  C   UNL     1     -10.934  15.654  66.121  1.00  0.00    -0.206 C  
HETATM   54  O   UNL     1     -10.920  18.662  68.143  1.00  0.00    -0.125 OA 
HETATM   55  C   UNL     1      -8.719  16.794  66.597  1.00  0.00    -0.281 C  
HETATM   56  C   UNL     1     -10.860  18.014  66.950  1.00  0.00    -0.072 C  
HETATM   57  C   UNL     1     -10.181  16.648  67.022  1.00  0.00    -0.290 C  
ENDBRANCH  49  51
ENDBRANCH  40  49
ENDBRANCH  38  40
ENDBRANCH   8  36
TORSDOF 11
ENDMDL
MODEL      112
REMARK 921   NORMALIZED FREE ENERGY PREDICTED BY IDOCK:   33.56 KCAL/MOL
REMARK 922        TOTAL FREE ENERGY PREDICTED BY IDOCK:   51.72 KCAL/MOL
REMARK 923 INTER-LIGAND FREE ENERGY PREDICTED BY IDOCK:   27.74 KCAL/MOL
REMARK 924 INTRA-LIGAND FREE ENERGY PREDICTED BY IDOCK:   23.98 KCAL/MOL
REMARK 927      BINDING AFFINITY PREDICTED BY RF-SCORE:    0.00 PKD
ROOT
HETATM    1  C   UNL     1      -7.450   9.622  69.333  1.00  0.00    -0.093 C  
HETATM    2  S   UNL     1      -7.822  10.205  70.993  1.00  0.00     1.795 SA 
HETATM    3  C   UNL     1      -8.336   8.601  71.601  1.00  0.00    -0.157 C  
HETATM    4  C   UNL     1      -9.289   7.795  70.751  1.00  0.00    -0.162 C  
HETATM    5  CA  UNL     1      -9.277   7.892  69.385  1.00  0.00    -0.145 C  
HETATM    6  O   UNL     1      -9.308   9.488  66.595  1.00  0.00    -0.148 OA 
HETATM    7  C   UNL     1     -10.028   6.833  68.442  1.00  0.00    -0.151 C  
HETATM    8  CA  UNL     1      -7.669  10.651  68.186  1.00  0.00    -0.101 C  
HETATM    9  N   UNL     1      -8.543   8.875  68.775  1.00  0.00    -0.135 N  
HETATM   10  C   UNL     1      -8.633   9.556  67.612  1.00  0.00    -0.122 C  
HETATM   11  O   UNL     1      -9.388   6.534  67.396  1.00  0.00    -0.120 OA 
HETATM   12  OXT UNL     1     -11.031   6.258  68.957  1.00  0.00    -0.305 OA 
ENDROOT
BRANCH   4  13
HETATM   13  C   UNL     1     -10.232   6.814  71.448  1.00  0.00    -0.198 C  
BRANCH  13  14
HETATM   14  N   UNL     1     -10.204   6.626  73.038  1.00  0.00    -0.192 N  
HETATM   15  C   UNL     1      -8.574   4.889  73.367  1.00  0.00    -0.105 C  
HETATM   16  C   UNL     1     -10.947   5.282  73.340  1.00  0.00    -0.316 C  
HETATM   17  C   UNL     1      -9.882   4.309  73.835  1.00  0.00    -0.160 C  
HETATM   18  C   UNL     1      -8.790   6.380  73.540  1.00  0.00    -0.124 C  
BRANCH  14  19
HETATM   19  C   UNL     1     -11.042   7.821  73.606  1.00  0.00     0.700 C  
BRANCH  19  20
HETATM   20  C   UNL     1     -10.679   9.232  73.071  1.00  0.00     2.623 C  
BRANCH  20  21
HETATM   21  N   UNL     1     -11.374   9.720  71.862  1.00  0.00    -0.018 N  
HETATM   22  C   UNL     1     -10.914  10.719  71.026  1.00  0.00     0.945 C  
HETATM   23  O   UNL     1      -9.764  11.128  71.116  1.00  0.00     3.830 OA 
HETATM   24  H   UNL     1     -12.266   9.284  71.625  1.00  0.00     0.000 HD 
BRANCH  22  25
HETATM   25  C   UNL     1     -11.848  11.380  70.037  1.00  0.00    -0.440 A  
HETATM   26  C   UNL     1     -12.736  12.434  70.321  1.00  0.00     0.188 A  
HETATM   27  C   UNL     1     -11.634  11.040  68.677  1.00  0.00    -0.385 A  
HETATM   28  H   UNL     1     -13.397  13.347  66.019  1.00  0.00     0.000 HD 
HETATM   29  C   UNL     1     -12.255  11.741  67.635  1.00  0.00     0.420 A  
HETATM   30  O   UNL     1     -13.566  13.582  66.924  1.00  0.00     2.480 OA 
HETATM   31  H   UNL     1     -14.489  14.764  68.754  1.00  0.00     0.000 HD 
HETATM   32  C   UNL     1     -13.327  13.153  69.265  1.00  0.00     2.864 A  
HETATM   33 CL   UNL     1     -13.053  13.019  71.923  1.00  0.00    -0.495 Cl 
HETATM   34  C   UNL     1     -13.079  12.809  67.938  1.00  0.00     3.594 A  
HETATM   35  O   UNL     1     -14.090  14.280  69.466  1.00  0.00     3.290 OA 
ENDBRANCH  22  25
ENDBRANCH  20  21
ENDBRANCH  19  20
ENDBRANCH  14  19
ENDBRANCH  13  14
ENDBRANCH   4  13
BRANCH   8  36
HETATM   36  N   UNL     1      -8.268  11.986  68.562  1.00  0.00    -0.248 N  
HETATM   37  H   UNL     1      -9.284  12.076  68.587  1.00  0.00     0.000 HD 
HETATM   38  C   UNL     1      -7.497  13.095  68.875  1.00  0.00     0.011 C  
HETATM   39  O   UNL     1      -6.291  13.118  69.058  1.00  0.00    -0.087 OA 
BRANCH  38  40
HETATM   40  C   UNL     1      -8.244  14.399  68.984  1.00  0.00    -0.031 C  
BRANCH  40  41
HETATM   41  C   UNL     1      -9.586  14.576  68.473  1.00  0.00    -0.220 A  
HETATM   42  H2  UNL     1     -13.791  14.951  68.694  1.00  0.00     0.000 HD 
HETATM   43  C   UNL     1     -11.756  14.777  68.706  1.00  0.00    -0.323 A  
HETATM   44  C   UNL     1      -9.861  15.336  67.346  1.00  0.00    -0.217 A  
HETATM   45  H1  UNL     1     -13.166  13.814  69.880  1.00  0.00     0.000 HD 
HETATM   46  S   UNL     1     -11.471  15.903  67.451  1.00  0.00     0.165 SA 
HETATM   47  N   UNL     1     -12.995  14.486  69.132  1.00  0.00     0.718 NA 
HETATM   48  N   UNL     1     -10.700  14.187  69.194  1.00  0.00    -0.227 NA 
ENDBRANCH  40  41
BRANCH  40  49
HETATM   49  N   UNL     1      -7.830  15.457  69.610  1.00  0.00    -0.200 NA 
HETATM   50  H   UNL     1      -7.340  15.393  70.502  1.00  0.00     0.000 HD 
BRANCH  49  51
HETATM   51  O   UNL     1      -8.088  16.677  69.009  1.00  0.00    -0.239 OA 
HETATM   52  O   UNL     1      -7.410  20.086  69.606  1.00  0.00    -0.155 OA 
HETATM   53  C   UNL     1      -6.323  17.564  70.492  1.00  0.00     0.812 C  
HETATM   54  O   UNL     1      -8.679  18.960  68.117  1.00  0.00    -0.290 OA 
HETATM   55  C   UNL     1      -8.779  17.653  71.118  1.00  0.00     7.934 C  
HETATM   56  C   UNL     1      -7.913  19.034  69.237  1.00  0.00    -0.014 C  
HETATM   57  C   UNL     1      -7.765  17.705  69.974  1.00  0.00     1.695 C  
ENDBRANCH  49  51
ENDBRANCH  40  49
ENDBRANCH  38  40
ENDBRANCH   8  36
TORSDOF 11
ENDMDL
MODEL      113
REMARK 921   NORMALIZED FREE ENERGY PREDICTED BY IDOCK:   34.67 KCAL/MOL
REMARK 922        TOTAL FREE ENERGY PREDICTED BY IDOCK:   53.54 KCAL/MOL
REMARK 923 INTER-LIGAND FREE ENERGY PREDICTED BY IDOCK:   29.45 KCAL/MOL
REMARK 924 INTRA-LIGAND FREE ENERGY PREDICTED BY IDOCK:   24.09 KCAL/MOL
REMARK 927      BINDING AFFINITY PREDICTED BY RF-SCORE:    0.00 PKD
ROOT
HETATM    1  C   UNL     1     -12.195   6.969  67.658  1.00  0.00     3.960 C  
HETATM    2  S   UNL     1     -11.941   5.577  68.769  1.00  0.00     5.155 SA 
HETATM    3  C   UNL     1     -12.531   6.439  70.224  1.00  0.00     0.786 C  
HETATM    4  C   UNL     1     -12.011   7.833  70.478  1.00  0.00     0.001 C  
HETATM    5  CA  UNL     1     -11.669   8.663  69.443  1.00  0.00     0.906 C  
HETATM    6  O   UNL     1     -10.163   9.401  66.700  1.00  0.00    -0.252 OA 
HETATM    7  C   UNL     1     -11.430  10.237  69.647  1.00  0.00    -0.235 C  
HETATM    8  CA  UNL     1     -11.206   7.072  66.461  1.00  0.00     0.885 C  
HETATM    9  N   UNL     1     -11.594   8.170  68.166  1.00  0.00     1.322 N  
HETATM   10  C   UNL     1     -10.896   8.489  67.056  1.00  0.00     0.040 C  
HETATM   11  O   UNL     1     -11.881  10.949  68.707  1.00  0.00    -0.368 OA 
HETATM   12  OXT UNL     1     -11.044  10.586  70.800  1.00  0.00    -0.250 OA 
ENDROOT
BRANCH   4  13
HETATM   13  C   UNL     1     -11.934   8.328  71.922  1.00  0.00    -0.330 C  
BRANCH  13  14
HETATM   14  N   UNL     1     -11.127   9.660  72.299  1.00  0.00     0.703 N  
HETATM   15  C   UNL     1      -8.827   8.963  72.210  1.00  0.00     0.069 C  
HETATM   16  C   UNL     1     -10.598   9.461  73.759  1.00  0.00     7.263 C  
HETATM   17  C   UNL     1      -9.084   9.325  73.648  1.00  0.00     3.151 C  
HETATM   18  C   UNL     1      -9.860   9.790  71.468  1.00  0.00     0.934 C  
BRANCH  14  19
HETATM   19  C   UNL     1     -12.197  10.804  72.285  1.00  0.00     1.201 C  
BRANCH  19  20
HETATM   20  C   UNL     1     -11.667  12.243  72.524  1.00  0.00     5.269 C  
BRANCH  20  21
HETATM   21  N   UNL     1     -11.432  13.106  71.348  1.00  0.00     1.159 N  
HETATM   22  C   UNL     1     -12.408  13.804  70.662  1.00  0.00    -0.375 C  
HETATM   23  O   UNL     1     -13.532  13.926  71.130  1.00  0.00    -0.252 OA 
HETATM   24  H   UNL     1     -10.471  13.193  71.015  1.00  0.00     0.000 HD 
BRANCH  22  25
HETATM   25  C   UNL     1     -12.125  14.362  69.286  1.00  0.00    -0.336 A  
HETATM   26  C   UNL     1     -11.010  15.144  68.928  1.00  0.00    -0.254 A  
HETATM   27  C   UNL     1     -12.946  13.861  68.245  1.00  0.00     1.946 A  
HETATM   28  H   UNL     1     -11.715  14.573  64.575  1.00  0.00     0.000 HD 
HETATM   29  C   UNL     1     -12.655  14.099  66.895  1.00  0.00     0.052 A  
HETATM   30  O   UNL     1     -11.160  14.932  65.257  1.00  0.00    -0.340 OA 
HETATM   31  H   UNL     1      -9.359  16.118  66.230  1.00  0.00     0.000 HD 
HETATM   32  C   UNL     1     -10.709  15.349  67.568  1.00  0.00    -0.295 A  
HETATM   33 CL   UNL     1      -9.869  15.772  70.073  1.00  0.00    -0.162 Cl 
HETATM   34  C   UNL     1     -11.523  14.823  66.568  1.00  0.00    -0.327 A  
HETATM   35  O   UNL     1      -9.562  15.980  67.147  1.00  0.00    -0.215 OA 
ENDBRANCH  22  25
ENDBRANCH  20  21
ENDBRANCH  19  20
ENDBRANCH  14  19
ENDBRANCH  13  14
ENDBRANCH   4  13
BRANCH   8  36
HETATM   36  N   UNL     1     -10.077   6.070  66.410  1.00  0.00    -0.357 N  
HETATM   37  H   UNL     1     -10.261   5.111  66.705  1.00  0.00     0.000 HD 
HETATM   38  C   UNL     1      -8.800   6.398  65.981  1.00  0.00    -0.150 C  
HETATM   39  O   UNL     1      -8.454   7.436  65.443  1.00  0.00    -0.142 OA 
BRANCH  38  40
HETATM   40  C   UNL     1      -7.741   5.354  66.226  1.00  0.00    -0.099 C  
BRANCH  40  41
HETATM   41  C   UNL     1      -7.473   4.806  67.539  1.00  0.00    -0.079 A  
HETATM   42  H2  UNL     1      -6.386   1.836  70.343  1.00  0.00     0.000 HD 
HETATM   43  C   UNL     1      -6.877   3.197  68.902  1.00  0.00    -0.044 A  
HETATM   44  C   UNL     1      -6.960   5.571  68.575  1.00  0.00    -0.064 A  
HETATM   45  H1  UNL     1      -7.303   1.172  68.999  1.00  0.00     0.000 HD 
HETATM   46  S   UNL     1      -6.132   4.538  69.658  1.00  0.00    -0.023 SA 
HETATM   47  N   UNL     1      -6.859   1.972  69.449  1.00  0.00    -0.033 NA 
HETATM   48  N   UNL     1      -7.501   3.446  67.783  1.00  0.00    -0.058 NA 
ENDBRANCH  40  41
BRANCH  40  49
HETATM   49  N   UNL     1      -7.031   4.768  65.313  1.00  0.00    -0.061 NA 
HETATM   50  H   UNL     1      -6.031   4.946  65.216  1.00  0.00     0.000 HD 
BRANCH  49  51
HETATM   51  O   UNL     1      -7.696   3.890  64.475  1.00  0.00    -0.079 OA 
HETATM   52  O   UNL     1     -10.615   3.860  62.496  1.00  0.00    -0.198 OA 
HETATM   53  C   UNL     1      -8.929   5.878  63.683  1.00  0.00     0.611 C  
HETATM   54  O   UNL     1      -9.095   2.304  63.103  1.00  0.00    -0.091 OA 
HETATM   55  C   UNL     1      -9.824   4.383  65.526  1.00  0.00    -0.225 C  
HETATM   56  C   UNL     1      -9.662   3.536  63.191  1.00  0.00    -0.124 C  
HETATM   57  C   UNL     1      -9.010   4.443  64.232  1.00  0.00    -0.151 C  
ENDBRANCH  49  51
ENDBRANCH  40  49
ENDBRANCH  38  40
ENDBRANCH   8  36
TORSDOF 11
ENDMDL
MODEL      114
REMARK 921   NORMALIZED FREE ENERGY PREDICTED BY IDOCK:   36.40 KCAL/MOL
REMARK 922        TOTAL FREE ENERGY PREDICTED BY IDOCK:   56.38 KCAL/MOL
REMARK 923 INTER-LIGAND FREE ENERGY PREDICTED BY IDOCK:   45.29 KCAL/MOL
REMARK 924 INTRA-LIGAND FREE ENERGY PREDICTED BY IDOCK:   11.09 KCAL/MOL
REMARK 927      BINDING AFFINITY PREDICTED BY RF-SCORE:    0.00 PKD
ROOT
HETATM    1  C   UNL     1      -9.672  11.258  66.514  1.00  0.00    -0.202 C  
HETATM    2  S   UNL     1      -8.156  12.094  66.023  1.00  0.00     0.857 SA 
HETATM    3  C   UNL     1      -7.135  11.278  67.247  1.00  0.00    -0.114 C  
HETATM    4  C   UNL     1      -7.647  11.215  68.666  1.00  0.00    -0.127 C  
HETATM    5  CA  UNL     1      -8.989  11.153  68.934  1.00  0.00    -0.081 C  
HETATM    6  O   UNL     1     -12.044  12.115  68.659  1.00  0.00    -0.282 OA 
HETATM    7  C   UNL     1      -9.559  10.759  70.381  1.00  0.00     1.517 C  
HETATM    8  CA  UNL     1     -10.987  12.069  66.324  1.00  0.00    -0.299 C  
HETATM    9  N   UNL     1      -9.898  11.357  67.928  1.00  0.00    -0.175 N  
HETATM   10  C   UNL     1     -11.165  11.821  67.862  1.00  0.00    -0.267 C  
HETATM   11  O   UNL     1     -10.582  10.020  70.345  1.00  0.00    -0.286 OA 
HETATM   12  OXT UNL     1      -8.802  11.028  71.358  1.00  0.00     5.398 OA 
ENDROOT
BRANCH   4  13
HETATM   13  C   UNL     1      -6.629  11.157  69.804  1.00  0.00    -0.138 C  
BRANCH  13  14
HETATM   14  N   UNL     1      -6.977  10.430  71.189  1.00  0.00     0.785 N  
HETATM   15  C   UNL     1      -6.523  12.122  72.837  1.00  0.00     5.415 C  
HETATM   16  C   UNL     1      -5.609  10.113  71.881  1.00  0.00     0.170 C  
HETATM   17  C   UNL     1      -5.528  11.024  73.100  1.00  0.00     0.965 C  
HETATM   18  C   UNL     1      -7.660  11.385  72.156  1.00  0.00    10.585 C  
BRANCH  14  19
HETATM   19  C   UNL     1      -7.677   9.089  70.783  1.00  0.00    -0.128 C  
BRANCH  19  20
HETATM   20  C   UNL     1      -6.755   7.974  70.222  1.00  0.00    -0.037 C  
BRANCH  20  21
HETATM   21  N   UNL     1      -7.082   7.396  68.902  1.00  0.00    -0.078 N  
HETATM   22  C   UNL     1      -8.340   6.996  68.495  1.00  0.00    -0.121 C  
HETATM   23  O   UNL     1      -9.332   7.304  69.144  1.00  0.00    -0.147 OA 
HETATM   24  H   UNL     1      -6.316   7.282  68.237  1.00  0.00     0.000 HD 
BRANCH  22  25
HETATM   25  C   UNL     1      -8.507   6.106  67.285  1.00  0.00    -0.104 A  
HETATM   26  C   UNL     1      -7.477   5.398  66.636  1.00  0.00    -0.087 A  
HETATM   27  C   UNL     1      -9.845   5.805  66.929  1.00  0.00    -0.179 A  
HETATM   28  H   UNL     1     -10.337   2.838  64.390  1.00  0.00     0.000 HD 
HETATM   29  C   UNL     1     -10.154   4.815  65.988  1.00  0.00    -0.282 A  
HETATM   30  O   UNL     1      -9.431   3.035  64.602  1.00  0.00    -0.146 OA 
HETATM   31  H   UNL     1      -7.072   2.872  64.535  1.00  0.00     0.000 HD 
HETATM   32  C   UNL     1      -7.801   4.382  65.717  1.00  0.00    -0.094 A  
HETATM   33 CL   UNL     1      -5.794   5.596  67.005  1.00  0.00    -0.017 Cl 
HETATM   34  C   UNL     1      -9.127   4.094  65.406  1.00  0.00    -0.139 A  
HETATM   35  O   UNL     1      -6.854   3.558  65.155  1.00  0.00    -0.047 OA 
ENDBRANCH  22  25
ENDBRANCH  20  21
ENDBRANCH  19  20
ENDBRANCH  14  19
ENDBRANCH  13  14
ENDBRANCH   4  13
BRANCH   8  36
HETATM   36  N   UNL     1     -10.854  13.499  65.856  1.00  0.00    -0.274 N  
HETATM   37  H   UNL     1     -10.503  13.674  64.914  1.00  0.00     0.000 HD 
HETATM   38  C   UNL     1     -11.188  14.584  66.651  1.00  0.00    -0.346 C  
HETATM   39  O   UNL     1     -11.773  14.554  67.721  1.00  0.00    -0.349 OA 
BRANCH  38  40
HETATM   40  C   UNL     1     -10.765  15.932  66.127  1.00  0.00    -0.271 C  
BRANCH  40  41
HETATM   41  C   UNL     1     -11.586  17.116  66.265  1.00  0.00     1.635 A  
HETATM   42  H2  UNL     1     -12.520  21.057  67.478  1.00  0.00     0.000 HD 
HETATM   43  C   UNL     1     -11.957  19.173  66.924  1.00  0.00     2.486 A  
HETATM   44  C   UNL     1     -12.520  17.492  65.310  1.00  0.00     6.695 A  
HETATM   45  H1  UNL     1     -11.523  20.221  68.658  1.00  0.00     0.000 HD 
HETATM   46  S   UNL     1     -12.754  19.183  65.412  1.00  0.00    11.985 SA 
HETATM   47  N   UNL     1     -11.998  20.226  67.756  1.00  0.00     2.331 NA 
HETATM   48  N   UNL     1     -11.343  18.066  67.240  1.00  0.00     0.419 NA 
ENDBRANCH  40  41
BRANCH  40  49
HETATM   49  N   UNL     1      -9.616  16.210  65.594  1.00  0.00    -0.455 NA 
HETATM   50  H   UNL     1      -9.536  16.831  64.789  1.00  0.00     0.000 HD 
BRANCH  49  51
HETATM   51  O   UNL     1      -8.504  15.623  66.171  1.00  0.00    -0.256 OA 
HETATM   52  O   UNL     1      -5.813  16.580  68.242  1.00  0.00    -0.112 OA 
HETATM   53  C   UNL     1      -8.425  17.631  67.606  1.00  0.00    -0.224 C  
HETATM   54  O   UNL     1      -6.342  14.710  67.092  1.00  0.00    -0.233 OA 
HETATM   55  C   UNL     1      -7.080  17.454  65.464  1.00  0.00     0.607 C  
HETATM   56  C   UNL     1      -6.522  16.017  67.418  1.00  0.00    -0.180 C  
HETATM   57  C   UNL     1      -7.660  16.693  66.657  1.00  0.00    -0.279 C  
ENDBRANCH  49  51
ENDBRANCH  40  49
ENDBRANCH  38  40
ENDBRANCH   8  36
TORSDOF 11
ENDMDL
MODEL      115
REMARK 921   NORMALIZED FREE ENERGY PREDICTED BY IDOCK:   59.73 KCAL/MOL
REMARK 922        TOTAL FREE ENERGY PREDICTED BY IDOCK:   94.71 KCAL/MOL
REMARK 923 INTER-LIGAND FREE ENERGY PREDICTED BY IDOCK:   84.27 KCAL/MOL
REMARK 924 INTRA-LIGAND FREE ENERGY PREDICTED BY IDOCK:   10.45 KCAL/MOL
REMARK 927      BINDING AFFINITY PREDICTED BY RF-SCORE:    0.00 PKD
ROOT
HETATM    1  C   UNL     1      -9.370  12.322  67.134  1.00  0.00    -0.196 C  
HETATM    2  S   UNL     1      -7.863  13.170  66.638  1.00  0.00     0.816 SA 
HETATM    3  C   UNL     1      -6.833  12.373  67.868  1.00  0.00    -0.099 C  
HETATM    4  C   UNL     1      -7.346  12.313  69.286  1.00  0.00     0.183 C  
HETATM    5  CA  UNL     1      -8.687  12.239  69.555  1.00  0.00     1.526 C  
HETATM    6  O   UNL     1     -11.752  13.168  69.273  1.00  0.00    -0.286 OA 
HETATM    7  C   UNL     1      -9.253  11.848  71.005  1.00  0.00     9.633 C  
HETATM    8  CA  UNL     1     -10.693  13.118  66.939  1.00  0.00    -0.263 C  
HETATM    9  N   UNL     1      -9.598  12.428  68.548  1.00  0.00    -0.166 N  
HETATM   10  C   UNL     1     -10.869  12.877  68.479  1.00  0.00    -0.257 C  
HETATM   11  O   UNL     1     -10.268  11.098  70.973  1.00  0.00     2.486 OA 
HETATM   12  OXT UNL     1      -8.499  12.130  71.980  1.00  0.00    14.913 OA 
ENDROOT
BRANCH   4  13
HETATM   13  C   UNL     1      -6.327  12.272  70.426  1.00  0.00     0.278 C  
BRANCH  13  14
HETATM   14  N   UNL     1      -6.668  11.551  71.815  1.00  0.00     3.727 N  
HETATM   15  C   UNL     1      -6.071  13.199  73.461  1.00  0.00     1.733 C  
HETATM   16  C   UNL     1      -5.297  11.155  72.458  1.00  0.00     0.620 C  
HETATM   17  C   UNL     1      -5.128  12.047  73.682  1.00  0.00     0.458 C  
HETATM   18  C   UNL     1      -7.268  12.530  72.812  1.00  0.00    10.725 C  
BRANCH  14  19
HETATM   19  C   UNL     1      -7.451  10.253  71.420  1.00  0.00     2.171 C  
BRANCH  19  20
HETATM   20  C   UNL     1      -6.689   8.912  71.589  1.00  0.00    -0.061 C  
BRANCH  20  21
HETATM   21  N   UNL     1      -7.430   7.654  71.364  1.00  0.00    -0.077 N  
HETATM   22  C   UNL     1      -7.310   6.509  72.128  1.00  0.00    -0.091 C  
HETATM   23  O   UNL     1      -6.723   6.534  73.202  1.00  0.00    -0.071 OA 
HETATM   24  H   UNL     1      -8.084   7.629  70.581  1.00  0.00     0.000 HD 
BRANCH  22  25
HETATM   25  C   UNL     1      -7.835   5.187  71.614  1.00  0.00    -0.109 A  
HETATM   26  C   UNL     1      -8.781   4.370  72.260  1.00  0.00    -0.113 A  
HETATM   27  C   UNL     1      -7.496   4.878  70.273  1.00  0.00    -0.058 A  
HETATM   28  H   UNL     1      -9.523   1.943  68.608  1.00  0.00     0.000 HD 
HETATM   29  C   UNL     1      -8.097   3.815  69.586  1.00  0.00    -0.062 A  
HETATM   30  O   UNL     1      -9.754   2.123  69.512  1.00  0.00    -0.020 OA 
HETATM   31  H   UNL     1     -10.855   1.877  71.592  1.00  0.00     0.000 HD 
HETATM   32  C   UNL     1      -9.403   3.326  71.549  1.00  0.00    -0.134 A  
HETATM   33 CL   UNL     1      -9.356   4.654  73.871  1.00  0.00    -0.117 Cl 
HETATM   34  C   UNL     1      -9.065   3.062  70.224  1.00  0.00    -0.120 A  
HETATM   35  O   UNL     1     -10.435   2.581  72.072  1.00  0.00    -0.053 OA 
ENDBRANCH  22  25
ENDBRANCH  20  21
ENDBRANCH  19  20
ENDBRANCH  14  19
ENDBRANCH  13  14
ENDBRANCH   4  13
BRANCH   8  36
HETATM   36  N   UNL     1     -10.575  14.547  66.462  1.00  0.00    -0.292 N  
HETATM   37  H   UNL     1     -10.062  14.733  65.601  1.00  0.00     0.000 HD 
HETATM   38  C   UNL     1     -11.135  15.615  67.145  1.00  0.00    -0.218 C  
HETATM   39  O   UNL     1     -11.912  15.557  68.083  1.00  0.00    -0.233 OA 
BRANCH  38  40
HETATM   40  C   UNL     1     -10.716  16.984  66.671  1.00  0.00    -0.092 C  
BRANCH  40  41
HETATM   41  C   UNL     1     -11.632  18.103  66.613  1.00  0.00     1.831 A  
HETATM   42  H2  UNL     1     -13.036  21.891  65.368  1.00  0.00     0.000 HD 
HETATM   43  C   UNL     1     -12.273  20.069  65.887  1.00  0.00     4.172 A  
HETATM   44  C   UNL     1     -13.004  17.952  66.742  1.00  0.00     8.687 A  
HETATM   45  H1  UNL     1     -11.288  21.859  65.543  1.00  0.00     0.000 HD 
HETATM   46  S   UNL     1     -13.774  19.253  65.943  1.00  0.00    18.480 SA 
HETATM   47  N   UNL     1     -12.183  21.372  65.577  1.00  0.00     6.817 NA 
HETATM   48  N   UNL     1     -11.225  19.360  66.206  1.00  0.00     0.072 NA 
ENDBRANCH  40  41
BRANCH  40  49
HETATM   49  N   UNL     1      -9.509  17.340  66.362  1.00  0.00    -0.294 NA 
HETATM   50  H   UNL     1      -9.319  17.952  65.569  1.00  0.00     0.000 HD 
BRANCH  49  51
HETATM   51  O   UNL     1      -8.490  16.849  67.160  1.00  0.00    -0.187 OA 
HETATM   52  O   UNL     1      -6.202  18.083  69.543  1.00  0.00    -0.242 OA 
HETATM   53  C   UNL     1      -8.702  18.970  68.406  1.00  0.00    -0.381 C  
HETATM   54  O   UNL     1      -6.485  16.105  68.494  1.00  0.00    -0.112 OA 
HETATM   55  C   UNL     1      -7.020  18.672  66.531  1.00  0.00    -0.240 C  
HETATM   56  C   UNL     1      -6.751  17.425  68.669  1.00  0.00    -0.201 C  
HETATM   57  C   UNL     1      -7.766  17.989  67.679  1.00  0.00    -0.215 C  
ENDBRANCH  49  51
ENDBRANCH  40  49
ENDBRANCH  38  40
ENDBRANCH   8  36
TORSDOF 11
ENDMDL
