MODEL        1
REMARK 921   NORMALIZED FREE ENERGY PREDICTED BY IDOCK:   -7.61 KCAL/MOL
REMARK 922        TOTAL FREE ENERGY PREDICTED BY IDOCK:  -12.07 KCAL/MOL
REMARK 923 INTER-LIGAND FREE ENERGY PREDICTED BY IDOCK:  -10.72 KCAL/MOL
REMARK 924 INTRA-LIGAND FREE ENERGY PREDICTED BY IDOCK:   -1.35 KCAL/MOL
REMARK 927      BINDING AFFINITY PREDICTED BY RF-SCORE:    0.00 PKD
ROOT
HETATM    1  C   UNL     1     -10.277  14.998  66.913  1.00  0.00    -0.258 C  
HETATM    2  S   UNL     1     -11.263  16.139  67.880  1.00  0.00    -0.180 SA 
HETATM    3  CG2 UNL     1     -10.379  17.621  67.396  1.00  0.00    -0.360 C  
HETATM    4  CB  UNL     1      -8.861  17.526  67.283  1.00  0.00    -0.235 C  
HETATM    5  O   UNL     1      -7.601  13.297  67.792  1.00  0.00    -0.129 OA 
HETATM    6  CA  UNL     1      -8.181  16.344  67.180  1.00  0.00    -0.180 C  
HETATM    7  N   UNL     1      -8.868  15.158  67.232  1.00  0.00    -0.189 N  
HETATM    8  CA  UNL     1     -10.154  13.550  67.507  1.00  0.00    -0.234 C  
HETATM    9  C   UNL     1      -6.671  16.321  66.999  1.00  0.00    -0.182 C  
HETATM   10  C   UNL     1      -8.627  13.860  67.487  1.00  0.00    -0.193 C  
HETATM   11  OXT UNL     1      -6.043  17.227  66.471  1.00  0.00    -0.190 OA 
HETATM   12  O   UNL     1      -6.012  15.223  67.416  1.00  0.00    -0.325 OA 
ENDROOT
BRANCH   4  13
HETATM   13  CG1 UNL     1      -8.211  18.848  67.376  1.00  0.00    -0.289 C  
HETATM   14  CD1 UNL     1      -7.861  19.512  68.488  1.00  0.00    -0.382 C  
ENDBRANCH   4  13
BRANCH   8  15
HETATM   15  N   UNL     1     -10.690  13.286  68.884  1.00  0.00    -0.366 N  
HETATM   16  H   UNL     1     -10.275  13.764  69.684  1.00  0.00     0.000 HD 
HETATM   17  C   UNL     1     -11.733  12.408  69.080  1.00  0.00    -0.322 C  
HETATM   18  O   UNL     1     -12.207  11.729  68.180  1.00  0.00    -0.507 OA 
BRANCH  17  19
HETATM   19  C   UNL     1     -12.252  12.251  70.512  1.00  0.00    -0.300 C  
BRANCH  19  20
HETATM   20  C   UNL     1     -12.342  10.919  71.107  1.00  0.00    -0.374 A  
HETATM   21  N   UNL     1     -14.220   8.724  73.105  1.00  0.00    -1.172 NA 
HETATM   22  C   UNL     1     -11.413   9.908  70.941  1.00  0.00    -0.376 A  
HETATM   23  N   UNL     1     -13.429  10.567  71.910  1.00  0.00    -0.325 NA 
HETATM   24  C   UNL     1     -13.311   9.331  72.327  1.00  0.00    -0.477 A  
HETATM   25  S   UNL     1     -11.902   8.508  71.803  1.00  0.00    -0.358 SA 
HETATM   26  H2  UNL     1     -14.070   7.756  73.389  1.00  0.00     0.000 HD 
HETATM   27  H1  UNL     1     -15.058   9.213  73.417  1.00  0.00     0.000 HD 
ENDBRANCH  19  20
BRANCH  19  28
HETATM   28  N   UNL     1     -12.656  13.213  71.299  1.00  0.00    -0.339 NA 
HETATM   29  H   UNL     1     -12.615  13.136  72.314  1.00  0.00     0.000 HD 
BRANCH  28  30
HETATM   30  O   UNL     1     -13.147  14.355  70.661  1.00  0.00    -0.347 OA 
BRANCH  30  31
HETATM   31  C   UNL     1     -13.860  15.137  71.625  1.00  0.00    -0.503 C  
HETATM   32  O   UNL     1     -13.340  16.096  73.797  1.00  0.00    -0.640 OA 
HETATM   33  C   UNL     1     -13.000  15.893  72.637  1.00  0.00    -0.466 C  
HETATM   34  O   UNL     1     -11.850  16.391  72.127  1.00  0.00    -0.525 OA 
ENDBRANCH  30  31
ENDBRANCH  28  30
ENDBRANCH  19  28
ENDBRANCH  17  19
ENDBRANCH   8  15
TORSDOF 7
ENDMDL
MODEL        2
REMARK 921   NORMALIZED FREE ENERGY PREDICTED BY IDOCK:   -7.25 KCAL/MOL
REMARK 922        TOTAL FREE ENERGY PREDICTED BY IDOCK:  -11.57 KCAL/MOL
REMARK 923 INTER-LIGAND FREE ENERGY PREDICTED BY IDOCK:  -10.26 KCAL/MOL
REMARK 924 INTRA-LIGAND FREE ENERGY PREDICTED BY IDOCK:   -1.30 KCAL/MOL
REMARK 927      BINDING AFFINITY PREDICTED BY RF-SCORE:    0.00 PKD
ROOT
HETATM    1  C   UNL     1     -11.686  15.203  68.670  1.00  0.00    -0.341 C  
HETATM    2  S   UNL     1     -10.153  15.552  69.529  1.00  0.00    -0.287 SA 
HETATM    3  CG2 UNL     1      -9.655  16.926  68.492  1.00  0.00    -0.262 C  
HETATM    4  CB  UNL     1      -9.905  16.799  66.992  1.00  0.00    -0.262 C  
HETATM    5  O   UNL     1     -12.257  13.115  66.193  1.00  0.00    -0.419 OA 
HETATM    6  CA  UNL     1     -10.775  15.897  66.443  1.00  0.00    -0.256 C  
HETATM    7  N   UNL     1     -11.433  15.008  67.253  1.00  0.00    -0.333 N  
HETATM    8  CA  UNL     1     -12.145  13.702  68.704  1.00  0.00    -0.290 C  
HETATM    9  C   UNL     1     -11.032  15.869  64.944  1.00  0.00    -0.411 C  
HETATM   10  C   UNL     1     -12.069  13.827  67.152  1.00  0.00    -0.378 C  
HETATM   11  OXT UNL     1     -10.913  16.848  64.222  1.00  0.00    -0.929 OA 
HETATM   12  O   UNL     1     -11.444  14.705  64.406  1.00  0.00    -0.342 OA 
ENDROOT
BRANCH   4  13
HETATM   13  CG1 UNL     1      -9.046  17.704  66.204  1.00  0.00    -0.146 C  
HETATM   14  CD1 UNL     1      -8.833  19.013  66.407  1.00  0.00    -0.326 C  
ENDBRANCH   4  13
BRANCH   8  15
HETATM   15  N   UNL     1     -11.208  12.672  69.264  1.00  0.00    -0.395 N  
HETATM   16  H   UNL     1     -10.365  12.973  69.754  1.00  0.00     0.000 HD 
HETATM   17  C   UNL     1     -11.472  11.327  69.126  1.00  0.00    -0.297 C  
HETATM   18  O   UNL     1     -12.408  10.899  68.466  1.00  0.00    -0.490 OA 
BRANCH  17  19
HETATM   19  C   UNL     1     -10.491  10.353  69.785  1.00  0.00    -0.240 C  
BRANCH  19  20
HETATM   20  C   UNL     1     -10.948   9.493  70.874  1.00  0.00    -0.337 A  
HETATM   21  N   UNL     1     -13.554   8.720  73.098  1.00  0.00    -0.950 NA 
HETATM   22  C   UNL     1     -10.222   8.456  71.430  1.00  0.00    -0.220 A  
HETATM   23  N   UNL     1     -12.211   9.671  71.442  1.00  0.00    -0.358 NA 
HETATM   24  C   UNL     1     -12.418   8.791  72.391  1.00  0.00    -0.352 A  
HETATM   25  S   UNL     1     -11.125   7.701  72.676  1.00  0.00    -0.383 SA 
HETATM   26  H2  UNL     1     -13.652   8.005  73.819  1.00  0.00     0.000 HD 
HETATM   27  H1  UNL     1     -14.323   9.369  72.929  1.00  0.00     0.000 HD 
ENDBRANCH  19  20
BRANCH  19  28
HETATM   28  N   UNL     1      -9.229  10.202  69.481  1.00  0.00    -0.262 NA 
HETATM   29  H   UNL     1      -8.620   9.568  69.997  1.00  0.00     0.000 HD 
BRANCH  28  30
HETATM   30  O   UNL     1      -8.766  10.963  68.405  1.00  0.00    -0.133 OA 
BRANCH  30  31
HETATM   31  C   UNL     1      -8.719  10.123  67.247  1.00  0.00    -0.129 C  
HETATM   32  O   UNL     1     -10.008   9.934  65.196  1.00  0.00    -0.318 OA 
HETATM   33  C   UNL     1      -9.440  10.653  66.009  1.00  0.00    -0.193 C  
HETATM   34  O   UNL     1      -9.340  11.992  65.839  1.00  0.00    -0.225 OA 
ENDBRANCH  30  31
ENDBRANCH  28  30
ENDBRANCH  19  28
ENDBRANCH  17  19
ENDBRANCH   8  15
TORSDOF 7
ENDMDL
MODEL        3
REMARK 921   NORMALIZED FREE ENERGY PREDICTED BY IDOCK:   -7.25 KCAL/MOL
REMARK 922        TOTAL FREE ENERGY PREDICTED BY IDOCK:  -11.56 KCAL/MOL
REMARK 923 INTER-LIGAND FREE ENERGY PREDICTED BY IDOCK:   -9.99 KCAL/MOL
REMARK 924 INTRA-LIGAND FREE ENERGY PREDICTED BY IDOCK:   -1.57 KCAL/MOL
REMARK 927      BINDING AFFINITY PREDICTED BY RF-SCORE:    0.00 PKD
ROOT
HETATM    1  C   UNL     1     -11.456  15.225  68.757  1.00  0.00    -0.331 C  
HETATM    2  S   UNL     1      -9.868  15.577  69.507  1.00  0.00    -0.279 SA 
HETATM    3  CG2 UNL     1      -9.486  17.006  68.497  1.00  0.00    -0.269 C  
HETATM    4  CB  UNL     1      -9.852  16.937  67.017  1.00  0.00    -0.270 C  
HETATM    5  O   UNL     1     -12.174  13.230  66.241  1.00  0.00    -0.409 OA 
HETATM    6  CA  UNL     1     -10.742  16.037  66.498  1.00  0.00    -0.238 C  
HETATM    7  N   UNL     1     -11.313  15.097  67.317  1.00  0.00    -0.330 N  
HETATM    8  CA  UNL     1     -11.877  13.712  68.759  1.00  0.00    -0.360 C  
HETATM    9  C   UNL     1     -11.116  16.066  65.024  1.00  0.00    -0.336 C  
HETATM   10  C   UNL     1     -11.927  13.905  67.213  1.00  0.00    -0.411 C  
HETATM   11  OXT UNL     1     -11.078  17.079  64.340  1.00  0.00    -1.144 OA 
HETATM   12  O   UNL     1     -11.543  14.916  64.469  1.00  0.00    -0.392 OA 
ENDROOT
BRANCH   4  13
HETATM   13  CG1 UNL     1      -9.080  17.898  66.205  1.00  0.00    -0.198 C  
HETATM   14  CD1 UNL     1      -8.148  18.765  66.630  1.00  0.00    -0.286 C  
ENDBRANCH   4  13
BRANCH   8  15
HETATM   15  N   UNL     1     -10.875  12.684  69.198  1.00  0.00    -0.426 N  
HETATM   16  H   UNL     1      -9.958  12.985  69.528  1.00  0.00     0.000 HD 
HETATM   17  C   UNL     1     -11.177  11.340  69.159  1.00  0.00    -0.273 C  
HETATM   18  O   UNL     1     -12.217  10.908  68.681  1.00  0.00    -0.533 OA 
BRANCH  17  19
HETATM   19  C   UNL     1     -10.115  10.371  69.685  1.00  0.00    -0.190 C  
BRANCH  19  20
HETATM   20  C   UNL     1     -10.528   9.127  70.331  1.00  0.00    -0.223 A  
HETATM   21  N   UNL     1     -11.510   7.564  73.319  1.00  0.00    -0.632 NA 
HETATM   22  C   UNL     1     -10.686   7.911  69.691  1.00  0.00    -0.218 A  
HETATM   23  N   UNL     1     -10.810   9.092  71.698  1.00  0.00    -0.344 NA 
HETATM   24  C   UNL     1     -11.168   7.885  72.063  1.00  0.00    -0.287 A  
HETATM   25  S   UNL     1     -11.186   6.713  70.812  1.00  0.00    -0.337 SA 
HETATM   26  H2  UNL     1     -11.786   6.606  73.534  1.00  0.00     0.000 HD 
HETATM   27  H1  UNL     1     -11.499   8.261  74.063  1.00  0.00     0.000 HD 
ENDBRANCH  19  20
BRANCH  19  28
HETATM   28  N   UNL     1      -8.820  10.540  69.633  1.00  0.00    -0.388 NA 
HETATM   29  H   UNL     1      -8.224  10.409  70.449  1.00  0.00     0.000 HD 
BRANCH  28  30
HETATM   30  O   UNL     1      -8.304  10.912  68.390  1.00  0.00    -0.122 OA 
BRANCH  30  31
HETATM   31  C   UNL     1      -7.287  11.896  68.601  1.00  0.00    -0.115 C  
HETATM   32  O   UNL     1      -6.257  13.633  67.248  1.00  0.00    -0.313 OA 
HETATM   33  C   UNL     1      -7.279  13.066  67.619  1.00  0.00    -0.151 C  
HETATM   34  O   UNL     1      -8.510  13.482  67.239  1.00  0.00    -0.187 OA 
ENDBRANCH  30  31
ENDBRANCH  28  30
ENDBRANCH  19  28
ENDBRANCH  17  19
ENDBRANCH   8  15
TORSDOF 7
ENDMDL
MODEL        4
REMARK 921   NORMALIZED FREE ENERGY PREDICTED BY IDOCK:   -7.07 KCAL/MOL
REMARK 922        TOTAL FREE ENERGY PREDICTED BY IDOCK:  -11.32 KCAL/MOL
REMARK 923 INTER-LIGAND FREE ENERGY PREDICTED BY IDOCK:   -9.79 KCAL/MOL
REMARK 924 INTRA-LIGAND FREE ENERGY PREDICTED BY IDOCK:   -1.52 KCAL/MOL
REMARK 927      BINDING AFFINITY PREDICTED BY RF-SCORE:    0.00 PKD
ROOT
HETATM    1  C   UNL     1      -8.541  15.963  69.211  1.00  0.00    -0.247 C  
HETATM    2  S   UNL     1      -7.329  14.803  68.583  1.00  0.00    -0.132 SA 
HETATM    3  CG2 UNL     1      -6.440  15.980  67.565  1.00  0.00    -0.177 C  
HETATM    4  CB  UNL     1      -7.266  17.010  66.801  1.00  0.00    -0.274 C  
HETATM    5  O   UNL     1     -11.523  16.700  68.033  1.00  0.00    -0.167 OA 
HETATM    6  CA  UNL     1      -8.565  17.317  67.104  1.00  0.00    -0.206 C  
HETATM    7  N   UNL     1      -9.205  16.640  68.110  1.00  0.00    -0.216 N  
HETATM    8  CA  UNL     1      -9.942  15.344  69.558  1.00  0.00    -0.264 C  
HETATM    9  C   UNL     1      -9.311  18.404  66.347  1.00  0.00    -0.283 C  
HETATM   10  C   UNL     1     -10.461  16.378  68.513  1.00  0.00    -0.291 C  
HETATM   11  OXT UNL     1      -8.757  19.355  65.815  1.00  0.00    -0.403 OA 
HETATM   12  O   UNL     1     -10.654  18.319  66.300  1.00  0.00    -0.384 OA 
ENDROOT
BRANCH   4  13
HETATM   13  CG1 UNL     1      -6.530  17.577  65.654  1.00  0.00     0.071 C  
HETATM   14  CD1 UNL     1      -5.662  18.601  65.664  1.00  0.00    -0.222 C  
ENDBRANCH   4  13
BRANCH   8  15
HETATM   15  N   UNL     1     -10.218  13.920  69.172  1.00  0.00    -0.433 N  
HETATM   16  H   UNL     1      -9.502  13.384  68.683  1.00  0.00     0.000 HD 
HETATM   17  C   UNL     1     -11.426  13.328  69.471  1.00  0.00    -0.234 C  
HETATM   18  O   UNL     1     -12.361  13.943  69.965  1.00  0.00    -0.330 OA 
BRANCH  17  19
HETATM   19  C   UNL     1     -11.593  11.854  69.094  1.00  0.00    -0.312 C  
BRANCH  19  20
HETATM   20  C   UNL     1     -11.689  10.845  70.147  1.00  0.00    -0.347 A  
HETATM   21  N   UNL     1     -13.715   9.352  72.597  1.00  0.00    -0.725 NA 
HETATM   22  C   UNL     1     -10.680   9.970  70.507  1.00  0.00    -0.285 A  
HETATM   23  N   UNL     1     -12.866  10.690  70.883  1.00  0.00    -0.381 NA 
HETATM   24  C   UNL     1     -12.735   9.728  71.762  1.00  0.00    -0.426 A  
HETATM   25  S   UNL     1     -11.207   8.950  71.781  1.00  0.00    -0.379 SA 
HETATM   26  H2  UNL     1     -13.549   8.590  73.254  1.00  0.00     0.000 HD 
HETATM   27  H1  UNL     1     -14.624   9.815  72.586  1.00  0.00     0.000 HD 
ENDBRANCH  19  20
BRANCH  19  28
HETATM   28  N   UNL     1     -11.649  11.366  67.883  1.00  0.00    -0.496 NA 
HETATM   29  H   UNL     1     -12.409  10.759  67.579  1.00  0.00     0.000 HD 
BRANCH  28  30
HETATM   30  O   UNL     1     -10.603  11.730  67.031  1.00  0.00    -0.217 OA 
BRANCH  30  31
HETATM   31  C   UNL     1     -11.131  11.876  65.708  1.00  0.00    -0.317 C  
HETATM   32  O   UNL     1     -13.235  12.640  64.763  1.00  0.00    -0.846 OA 
HETATM   33  C   UNL     1     -12.329  12.814  65.569  1.00  0.00    -0.434 C  
HETATM   34  O   UNL     1     -12.275  13.906  66.366  1.00  0.00    -0.435 OA 
ENDBRANCH  30  31
ENDBRANCH  28  30
ENDBRANCH  19  28
ENDBRANCH  17  19
ENDBRANCH   8  15
TORSDOF 7
ENDMDL
MODEL        5
REMARK 921   NORMALIZED FREE ENERGY PREDICTED BY IDOCK:   -7.03 KCAL/MOL
REMARK 922        TOTAL FREE ENERGY PREDICTED BY IDOCK:  -11.26 KCAL/MOL
REMARK 923 INTER-LIGAND FREE ENERGY PREDICTED BY IDOCK:  -10.55 KCAL/MOL
REMARK 924 INTRA-LIGAND FREE ENERGY PREDICTED BY IDOCK:   -0.71 KCAL/MOL
REMARK 927      BINDING AFFINITY PREDICTED BY RF-SCORE:    0.00 PKD
ROOT
HETATM    1  C   UNL     1     -10.171  13.672  67.108  1.00  0.00    -0.244 C  
HETATM    2  S   UNL     1      -9.731  12.308  68.184  1.00  0.00    -0.213 SA 
HETATM    3  CG2 UNL     1      -8.826  11.372  66.953  1.00  0.00    -0.173 C  
HETATM    4  CB  UNL     1      -9.402  11.330  65.540  1.00  0.00    -0.243 C  
HETATM    5  O   UNL     1     -12.872  14.092  65.277  1.00  0.00    -0.686 OA 
HETATM    6  CA  UNL     1     -10.334  12.217  65.076  1.00  0.00    -0.291 C  
HETATM    7  N   UNL     1     -10.838  13.175  65.917  1.00  0.00    -0.272 N  
HETATM    8  CA  UNL     1     -11.522  14.390  67.457  1.00  0.00    -0.349 C  
HETATM    9  C   UNL     1     -10.816  12.164  63.634  1.00  0.00    -0.464 C  
HETATM   10  C   UNL     1     -11.914  13.979  66.006  1.00  0.00    -0.416 C  
HETATM   11  OXT UNL     1     -10.140  11.727  62.714  1.00  0.00    -0.205 OA 
HETATM   12  O   UNL     1     -12.040  12.660  63.370  1.00  0.00    -0.511 OA 
ENDROOT
BRANCH   4  13
HETATM   13  CG1 UNL     1      -8.897  10.180  64.765  1.00  0.00    -0.219 C  
HETATM   14  CD1 UNL     1      -8.749   8.913  65.181  1.00  0.00    -0.213 C  
ENDBRANCH   4  13
BRANCH   8  15
HETATM   15  N   UNL     1     -12.411  13.787  68.506  1.00  0.00    -0.399 N  
HETATM   16  H   UNL     1     -13.159  13.153  68.227  1.00  0.00     0.000 HD 
HETATM   17  C   UNL     1     -12.228  14.079  69.840  1.00  0.00    -0.340 C  
HETATM   18  O   UNL     1     -11.417  14.907  70.233  1.00  0.00    -0.252 OA 
BRANCH  17  19
HETATM   19  C   UNL     1     -13.143  13.368  70.841  1.00  0.00    -0.041 C  
BRANCH  19  20
HETATM   20  C   UNL     1     -12.920  11.957  71.148  1.00  0.00    -0.172 A  
HETATM   21  N   UNL     1     -14.046   9.127  72.897  1.00  0.00    -1.088 NA 
HETATM   22  C   UNL     1     -11.896  11.182  70.635  1.00  0.00    -0.302 A  
HETATM   23  N   UNL     1     -13.775  11.271  72.013  1.00  0.00    -0.037 NA 
HETATM   24  C   UNL     1     -13.398  10.022  72.137  1.00  0.00    -0.368 A  
HETATM   25  S   UNL     1     -12.002   9.583  71.245  1.00  0.00    -0.390 SA 
HETATM   26  H2  UNL     1     -13.702   8.168  72.944  1.00  0.00     0.000 HD 
HETATM   27  H1  UNL     1     -14.877   9.388  73.428  1.00  0.00     0.000 HD 
ENDBRANCH  19  20
BRANCH  19  28
HETATM   28  N   UNL     1     -14.156  13.898  71.475  1.00  0.00    -0.203 NA 
HETATM   29  H   UNL     1     -15.044  14.090  71.011  1.00  0.00     0.000 HD 
BRANCH  28  30
HETATM   30  O   UNL     1     -13.948  14.185  72.826  1.00  0.00    -0.638 OA 
BRANCH  30  31
HETATM   31  C   UNL     1     -13.686  15.586  72.953  1.00  0.00    -0.512 C  
HETATM   32  O   UNL     1     -12.435  16.975  74.506  1.00  0.00    -0.611 OA 
HETATM   33  C   UNL     1     -12.484  15.963  73.816  1.00  0.00    -0.613 C  
HETATM   34  O   UNL     1     -11.432  15.119  73.704  1.00  0.00    -0.089 OA 
ENDBRANCH  30  31
ENDBRANCH  28  30
ENDBRANCH  19  28
ENDBRANCH  17  19
ENDBRANCH   8  15
TORSDOF 7
ENDMDL
MODEL        6
REMARK 921   NORMALIZED FREE ENERGY PREDICTED BY IDOCK:   -6.99 KCAL/MOL
REMARK 922        TOTAL FREE ENERGY PREDICTED BY IDOCK:  -11.20 KCAL/MOL
REMARK 923 INTER-LIGAND FREE ENERGY PREDICTED BY IDOCK:   -9.75 KCAL/MOL
REMARK 924 INTRA-LIGAND FREE ENERGY PREDICTED BY IDOCK:   -1.45 KCAL/MOL
REMARK 927      BINDING AFFINITY PREDICTED BY RF-SCORE:    0.00 PKD
ROOT
HETATM    1  C   UNL     1     -11.762  14.971  68.592  1.00  0.00    -0.337 C  
HETATM    2  S   UNL     1     -10.261  15.488  69.424  1.00  0.00    -0.279 SA 
HETATM    3  CG2 UNL     1      -9.994  16.966  68.446  1.00  0.00    -0.275 C  
HETATM    4  CB  UNL     1     -10.278  16.877  66.949  1.00  0.00    -0.296 C  
HETATM    5  O   UNL     1     -12.128  12.945  66.026  1.00  0.00    -0.424 OA 
HETATM    6  CA  UNL     1     -11.035  15.891  66.379  1.00  0.00    -0.115 C  
HETATM    7  N   UNL     1     -11.535  14.881  67.160  1.00  0.00    -0.353 N  
HETATM    8  CA  UNL     1     -12.009  13.421  68.560  1.00  0.00    -0.328 C  
HETATM    9  C   UNL     1     -11.338  15.899  64.888  1.00  0.00    -0.256 C  
HETATM   10  C   UNL     1     -12.006  13.629  67.016  1.00  0.00    -0.406 C  
HETATM   11  OXT UNL     1     -11.381  16.919  64.216  1.00  0.00    -1.202 OA 
HETATM   12  O   UNL     1     -11.605  14.716  64.303  1.00  0.00    -0.314 OA 
ENDROOT
BRANCH   4  13
HETATM   13  CG1 UNL     1      -9.580  17.930  66.186  1.00  0.00    -0.192 C  
HETATM   14  CD1 UNL     1      -9.511  19.239  66.471  1.00  0.00    -0.407 C  
ENDBRANCH   4  13
BRANCH   8  15
HETATM   15  N   UNL     1     -10.920  12.506  69.039  1.00  0.00    -0.352 N  
HETATM   16  H   UNL     1     -10.067  12.903  69.434  1.00  0.00     0.000 HD 
HETATM   17  C   UNL     1     -11.057  11.137  68.952  1.00  0.00    -0.237 C  
HETATM   18  O   UNL     1     -12.007  10.600  68.399  1.00  0.00    -0.448 OA 
BRANCH  17  19
HETATM   19  C   UNL     1      -9.920  10.285  69.523  1.00  0.00    -0.228 C  
BRANCH  19  20
HETATM   20  C   UNL     1      -8.542  10.552  69.118  1.00  0.00    -0.150 A  
HETATM   21  N   UNL     1      -6.423  12.110  66.790  1.00  0.00    -0.425 NA 
HETATM   22  C   UNL     1      -7.415  10.122  69.794  1.00  0.00    -0.163 A  
HETATM   23  N   UNL     1      -8.267  11.302  67.972  1.00  0.00    -0.128 NA 
HETATM   24  C   UNL     1      -6.974  11.427  67.804  1.00  0.00    -0.076 A  
HETATM   25  S   UNL     1      -6.000  10.657  68.986  1.00  0.00    -0.041 SA 
HETATM   26  H2  UNL     1      -5.408  12.174  66.721  1.00  0.00     0.000 HD 
HETATM   27  H1  UNL     1      -7.003  12.568  66.086  1.00  0.00     0.000 HD 
ENDBRANCH  19  20
BRANCH  19  28
HETATM   28  N   UNL     1     -10.046   9.289  70.360  1.00  0.00    -0.218 NA 
HETATM   29  H   UNL     1      -9.629   8.376  70.182  1.00  0.00     0.000 HD 
BRANCH  28  30
HETATM   30  O   UNL     1     -10.787   9.554  71.514  1.00  0.00    -0.355 OA 
BRANCH  30  31
HETATM   31  C   UNL     1     -12.019   8.831  71.433  1.00  0.00    -0.310 C  
HETATM   32  O   UNL     1     -14.180   8.972  72.537  1.00  0.00    -0.537 OA 
HETATM   33  C   UNL     1     -13.250   9.548  71.985  1.00  0.00    -0.452 C  
HETATM   34  O   UNL     1     -13.268  10.881  71.750  1.00  0.00    -0.444 OA 
ENDBRANCH  30  31
ENDBRANCH  28  30
ENDBRANCH  19  28
ENDBRANCH  17  19
ENDBRANCH   8  15
TORSDOF 7
ENDMDL
MODEL        7
REMARK 921   NORMALIZED FREE ENERGY PREDICTED BY IDOCK:   -6.86 KCAL/MOL
REMARK 922        TOTAL FREE ENERGY PREDICTED BY IDOCK:  -11.02 KCAL/MOL
REMARK 923 INTER-LIGAND FREE ENERGY PREDICTED BY IDOCK:   -9.76 KCAL/MOL
REMARK 924 INTRA-LIGAND FREE ENERGY PREDICTED BY IDOCK:   -1.26 KCAL/MOL
REMARK 927      BINDING AFFINITY PREDICTED BY RF-SCORE:    0.00 PKD
ROOT
HETATM    1  C   UNL     1      -9.764   9.378  69.636  1.00  0.00    -0.190 C  
HETATM    2  S   UNL     1      -8.214  10.216  69.962  1.00  0.00     0.094 SA 
HETATM    3  CG2 UNL     1      -7.588   9.018  71.138  1.00  0.00    -0.102 C  
HETATM    4  CB  UNL     1      -8.582   8.423  72.131  1.00  0.00    -0.257 C  
HETATM    5  O   UNL     1     -12.688   9.766  71.093  1.00  0.00    -0.320 OA 
HETATM    6  CA  UNL     1      -9.939   8.468  71.963  1.00  0.00    -0.313 C  
HETATM    7  N   UNL     1     -10.468   9.124  70.881  1.00  0.00    -0.253 N  
HETATM    8  CA  UNL     1     -10.963  10.316  69.253  1.00  0.00    -0.241 C  
HETATM    9  C   UNL     1     -10.874   7.794  72.955  1.00  0.00    -0.392 C  
HETATM   10  C   UNL     1     -11.636   9.674  70.503  1.00  0.00    -0.272 C  
HETATM   11  OXT UNL     1     -10.556   6.826  73.629  1.00  0.00    -0.314 OA 
HETATM   12  O   UNL     1     -12.126   8.281  73.057  1.00  0.00    -0.249 OA 
ENDROOT
BRANCH   4  13
HETATM   13  CG1 UNL     1      -7.915   7.866  73.324  1.00  0.00    -0.209 C  
HETATM   14  CD1 UNL     1      -7.583   8.511  74.452  1.00  0.00    -0.208 C  
ENDBRANCH   4  13
BRANCH   8  15
HETATM   15  N   UNL     1     -10.785  11.801  69.370  1.00  0.00    -0.448 N  
HETATM   16  H   UNL     1     -10.225  12.182  70.133  1.00  0.00     0.000 HD 
HETATM   17  C   UNL     1     -11.368  12.658  68.461  1.00  0.00    -0.296 C  
HETATM   18  O   UNL     1     -12.131  12.275  67.585  1.00  0.00    -0.502 OA 
BRANCH  17  19
HETATM   19  C   UNL     1     -11.078  14.152  68.626  1.00  0.00    -0.262 C  
BRANCH  19  20
HETATM   20  C   UNL     1     -10.548  14.914  67.497  1.00  0.00    -0.266 A  
HETATM   21  N   UNL     1     -11.100  16.078  64.230  1.00  0.00    -1.044 NA 
HETATM   22  C   UNL     1      -9.326  15.562  67.477  1.00  0.00    -0.206 A  
HETATM   23  N   UNL     1     -11.282  15.048  66.317  1.00  0.00    -0.336 NA 
HETATM   24  C   UNL     1     -10.626  15.775  65.447  1.00  0.00    -0.421 A  
HETATM   25  S   UNL     1      -9.093  16.339  65.967  1.00  0.00    -0.227 SA 
HETATM   26  H2  UNL     1     -10.540  16.655  63.603  1.00  0.00     0.000 HD 
HETATM   27  H1  UNL     1     -12.012  15.742  63.921  1.00  0.00     0.000 HD 
ENDBRANCH  19  20
BRANCH  19  28
HETATM   28  N   UNL     1     -11.246  14.857  69.713  1.00  0.00    -0.269 NA 
HETATM   29  H   UNL     1     -10.956  15.832  69.776  1.00  0.00     0.000 HD 
BRANCH  28  30
HETATM   30  O   UNL     1     -11.849  14.192  70.783  1.00  0.00    -0.303 OA 
BRANCH  30  31
HETATM   31  C   UNL     1     -13.056  14.884  71.121  1.00  0.00    -0.396 C  
HETATM   32  O   UNL     1     -13.903  16.014  73.099  1.00  0.00    -0.576 OA 
HETATM   33  C   UNL     1     -12.972  15.819  72.326  1.00  0.00    -0.447 C  
HETATM   34  O   UNL     1     -11.797  16.482  72.435  1.00  0.00    -0.532 OA 
ENDBRANCH  30  31
ENDBRANCH  28  30
ENDBRANCH  19  28
ENDBRANCH  17  19
ENDBRANCH   8  15
TORSDOF 7
ENDMDL
MODEL        8
REMARK 921   NORMALIZED FREE ENERGY PREDICTED BY IDOCK:   -6.81 KCAL/MOL
REMARK 922        TOTAL FREE ENERGY PREDICTED BY IDOCK:  -10.94 KCAL/MOL
REMARK 923 INTER-LIGAND FREE ENERGY PREDICTED BY IDOCK:   -9.19 KCAL/MOL
REMARK 924 INTRA-LIGAND FREE ENERGY PREDICTED BY IDOCK:   -1.75 KCAL/MOL
REMARK 927      BINDING AFFINITY PREDICTED BY RF-SCORE:    0.00 PKD
ROOT
HETATM    1  C   UNL     1      -9.210   9.788  69.195  1.00  0.00    -0.176 C  
HETATM    2  S   UNL     1     -10.773   9.319  69.935  1.00  0.00    -0.238 SA 
HETATM    3  CG2 UNL     1     -10.709   7.595  69.452  1.00  0.00    -0.184 C  
HETATM    4  CB  UNL     1     -10.176   7.277  68.058  1.00  0.00    -0.225 C  
HETATM    5  O   UNL     1      -8.606  10.990  66.193  1.00  0.00    -0.169 OA 
HETATM    6  CA  UNL     1      -9.435   8.152  67.312  1.00  0.00    -0.155 C  
HETATM    7  N   UNL     1      -9.188   9.413  67.792  1.00  0.00    -0.129 N  
HETATM    8  CA  UNL     1      -9.122  11.277  68.706  1.00  0.00    -0.116 C  
HETATM    9  C   UNL     1      -8.874   7.748  65.958  1.00  0.00    -0.157 C  
HETATM   10  C   UNL     1      -8.830  10.621  67.322  1.00  0.00    -0.136 C  
HETATM   11  OXT UNL     1      -8.608   6.593  65.657  1.00  0.00    -0.152 OA 
HETATM   12  O   UNL     1      -8.630   8.729  65.068  1.00  0.00    -0.175 OA 
ENDROOT
BRANCH   4  13
HETATM   13  CG1 UNL     1     -10.615   5.951  67.582  1.00  0.00    -0.335 C  
HETATM   14  CD1 UNL     1     -10.140   4.750  67.947  1.00  0.00    -0.119 C  
ENDBRANCH   4  13
BRANCH   8  15
HETATM   15  N   UNL     1     -10.367  12.116  68.715  1.00  0.00    -0.363 N  
HETATM   16  H   UNL     1     -11.277  11.664  68.808  1.00  0.00     0.000 HD 
HETATM   17  C   UNL     1     -10.296  13.487  68.601  1.00  0.00    -0.214 C  
HETATM   18  O   UNL     1      -9.249  14.082  68.387  1.00  0.00    -0.196 OA 
BRANCH  17  19
HETATM   19  C   UNL     1     -11.614  14.263  68.684  1.00  0.00    -0.317 C  
BRANCH  19  20
HETATM   20  C   UNL     1     -12.297  14.391  69.969  1.00  0.00    -0.336 A  
HETATM   21  N   UNL     1     -13.676  12.720  72.733  1.00  0.00    -0.698 NA 
HETATM   22  C   UNL     1     -12.644  15.587  70.572  1.00  0.00    -0.416 A  
HETATM   23  N   UNL     1     -12.651  13.259  70.706  1.00  0.00    -0.315 NA 
HETATM   24  C   UNL     1     -13.242  13.604  71.824  1.00  0.00    -0.394 A  
HETATM   25  S   UNL     1     -13.423  15.291  72.070  1.00  0.00    -0.496 SA 
HETATM   26  H2  UNL     1     -14.122  13.056  73.587  1.00  0.00     0.000 HD 
HETATM   27  H1  UNL     1     -13.569  11.716  72.587  1.00  0.00     0.000 HD 
ENDBRANCH  19  20
BRANCH  19  28
HETATM   28  N   UNL     1     -12.236  14.840  67.690  1.00  0.00    -0.535 NA 
HETATM   29  H   UNL     1     -13.081  15.393  67.828  1.00  0.00     0.000 HD 
BRANCH  28  30
HETATM   30  O   UNL     1     -11.671  14.652  66.427  1.00  0.00    -0.369 OA 
BRANCH  30  31
HETATM   31  C   UNL     1     -12.670  14.098  65.564  1.00  0.00    -0.443 C  
HETATM   32  O   UNL     1     -12.817  12.147  64.123  1.00  0.00    -0.616 OA 
HETATM   33  C   UNL     1     -12.495  12.624  65.205  1.00  0.00    -0.463 C  
HETATM   34  O   UNL     1     -12.017  11.858  66.214  1.00  0.00    -0.554 OA 
ENDBRANCH  30  31
ENDBRANCH  28  30
ENDBRANCH  19  28
ENDBRANCH  17  19
ENDBRANCH   8  15
TORSDOF 7
ENDMDL
MODEL        9
REMARK 921   NORMALIZED FREE ENERGY PREDICTED BY IDOCK:   -6.78 KCAL/MOL
REMARK 922        TOTAL FREE ENERGY PREDICTED BY IDOCK:  -10.91 KCAL/MOL
REMARK 923 INTER-LIGAND FREE ENERGY PREDICTED BY IDOCK:   -9.54 KCAL/MOL
REMARK 924 INTRA-LIGAND FREE ENERGY PREDICTED BY IDOCK:   -1.37 KCAL/MOL
REMARK 927      BINDING AFFINITY PREDICTED BY RF-SCORE:    0.00 PKD
ROOT
HETATM    1  C   UNL     1      -9.495   9.071  69.625  1.00  0.00    -0.171 C  
HETATM    2  S   UNL     1      -8.040  10.092  69.854  1.00  0.00    -0.121 SA 
HETATM    3  CG2 UNL     1      -7.260   9.047  71.084  1.00  0.00    -0.097 C  
HETATM    4  CB  UNL     1      -8.161   8.414  72.139  1.00  0.00    -0.207 C  
HETATM    5  O   UNL     1     -12.412   9.234  71.139  1.00  0.00    -0.306 OA 
HETATM    6  CA  UNL     1      -9.518   8.301  72.008  1.00  0.00    -0.236 C  
HETATM    7  N   UNL     1     -10.140   8.824  70.903  1.00  0.00    -0.203 N  
HETATM    8  CA  UNL     1     -10.799   9.846  69.219  1.00  0.00    -0.227 C  
HETATM    9  C   UNL     1     -10.352   7.595  73.067  1.00  0.00    -0.335 C  
HETATM   10  C   UNL     1     -11.369   9.218  70.526  1.00  0.00    -0.258 C  
HETATM   11  OXT UNL     1      -9.914   6.713  73.790  1.00  0.00    -0.212 OA 
HETATM   12  O   UNL     1     -11.647   7.948  73.174  1.00  0.00    -0.292 OA 
ENDROOT
BRANCH   4  13
HETATM   13  CG1 UNL     1      -7.411   8.011  73.345  1.00  0.00    -0.187 C  
HETATM   14  CD1 UNL     1      -6.318   8.592  73.861  1.00  0.00    -0.134 C  
ENDBRANCH   4  13
BRANCH   8  15
HETATM   15  N   UNL     1     -10.783  11.347  69.239  1.00  0.00    -0.363 N  
HETATM   16  H   UNL     1     -10.277  11.835  69.979  1.00  0.00     0.000 HD 
HETATM   17  C   UNL     1     -11.441  12.074  68.271  1.00  0.00    -0.303 C  
HETATM   18  O   UNL     1     -12.147  11.555  67.417  1.00  0.00    -0.593 OA 
BRANCH  17  19
HETATM   19  C   UNL     1     -11.316  13.599  68.338  1.00  0.00    -0.295 C  
BRANCH  19  20
HETATM   20  C   UNL     1     -11.624  14.295  69.585  1.00  0.00    -0.296 A  
HETATM   21  N   UNL     1     -13.291  14.172  72.674  1.00  0.00    -0.514 NA 
HETATM   22  C   UNL     1     -11.159  15.550  69.933  1.00  0.00    -0.310 A  
HETATM   23  N   UNL     1     -12.438  13.702  70.553  1.00  0.00    -0.339 NA 
HETATM   24  C   UNL     1     -12.572  14.493  71.588  1.00  0.00    -0.348 A  
HETATM   25  S   UNL     1     -11.751  15.994  71.480  1.00  0.00    -0.465 SA 
HETATM   26  H2  UNL     1     -13.349  14.832  73.450  1.00  0.00     0.000 HD 
HETATM   27  H1  UNL     1     -13.780  13.279  72.739  1.00  0.00     0.000 HD 
ENDBRANCH  19  20
BRANCH  19  28
HETATM   28  N   UNL     1     -10.962  14.389  67.360  1.00  0.00    -0.292 NA 
HETATM   29  H   UNL     1     -11.274  15.359  67.308  1.00  0.00     0.000 HD 
BRANCH  28  30
HETATM   30  O   UNL     1     -10.132  13.824  66.390  1.00  0.00    -0.279 OA 
BRANCH  30  31
HETATM   31  C   UNL     1     -10.872  13.718  65.169  1.00  0.00    -0.345 C  
HETATM   32  O   UNL     1     -12.558  15.063  64.050  1.00  0.00    -0.817 OA 
HETATM   33  C   UNL     1     -11.492  15.015  64.652  1.00  0.00    -0.381 C  
HETATM   34  O   UNL     1     -10.726  16.114  64.848  1.00  0.00    -0.612 OA 
ENDBRANCH  30  31
ENDBRANCH  28  30
ENDBRANCH  19  28
ENDBRANCH  17  19
ENDBRANCH   8  15
TORSDOF 7
ENDMDL
MODEL       10
REMARK 921   NORMALIZED FREE ENERGY PREDICTED BY IDOCK:   -6.78 KCAL/MOL
REMARK 922        TOTAL FREE ENERGY PREDICTED BY IDOCK:  -10.91 KCAL/MOL
REMARK 923 INTER-LIGAND FREE ENERGY PREDICTED BY IDOCK:   -9.82 KCAL/MOL
REMARK 924 INTRA-LIGAND FREE ENERGY PREDICTED BY IDOCK:   -1.08 KCAL/MOL
REMARK 927      BINDING AFFINITY PREDICTED BY RF-SCORE:    0.00 PKD
ROOT
HETATM    1  C   UNL     1     -10.019  10.006  69.108  1.00  0.00    -0.204 C  
HETATM    2  S   UNL     1      -8.340  10.434  69.566  1.00  0.00    -0.056 SA 
HETATM    3  CG2 UNL     1      -8.103   9.086  70.722  1.00  0.00    -0.166 C  
HETATM    4  CB  UNL     1      -9.278   8.722  71.625  1.00  0.00    -0.333 C  
HETATM    5  O   UNL     1     -12.859  11.049  70.402  1.00  0.00    -0.252 OA 
HETATM    6  CA  UNL     1     -10.569   9.099  71.377  1.00  0.00    -0.341 C  
HETATM    7  N   UNL     1     -10.849   9.895  70.296  1.00  0.00    -0.288 N  
HETATM    8  CA  UNL     1     -10.929  11.217  68.696  1.00  0.00    -0.218 C  
HETATM    9  C   UNL     1     -11.706   8.643  72.280  1.00  0.00    -0.358 C  
HETATM   10  C   UNL     1     -11.822  10.722  69.873  1.00  0.00    -0.335 C  
HETATM   11  OXT UNL     1     -11.676   7.608  72.928  1.00  0.00    -0.280 OA 
HETATM   12  O   UNL     1     -12.809   9.415  72.327  1.00  0.00    -0.392 OA 
ENDROOT
BRANCH   4  13
HETATM   13  CG1 UNL     1      -8.849   7.985  72.830  1.00  0.00    -0.277 C  
HETATM   14  CD1 UNL     1      -7.633   7.982  73.398  1.00  0.00    -0.201 C  
ENDBRANCH   4  13
BRANCH   8  15
HETATM   15  N   UNL     1     -10.409  12.611  68.890  1.00  0.00    -0.421 N  
HETATM   16  H   UNL     1      -9.506  12.752  69.345  1.00  0.00     0.000 HD 
HETATM   17  C   UNL     1     -11.134  13.703  68.463  1.00  0.00    -0.275 C  
HETATM   18  O   UNL     1     -12.263  13.610  68.004  1.00  0.00    -0.323 OA 
BRANCH  17  19
HETATM   19  C   UNL     1     -10.493  15.081  68.649  1.00  0.00    -0.238 C  
BRANCH  19  20
HETATM   20  C   UNL     1     -10.448  16.014  67.525  1.00  0.00    -0.297 A  
HETATM   21  N   UNL     1     -11.182  16.551  64.133  1.00  0.00    -1.413 NA 
HETATM   22  C   UNL     1      -9.963  17.308  67.582  1.00  0.00    -0.297 A  
HETATM   23  N   UNL     1     -10.922  15.640  66.266  1.00  0.00    -0.257 NA 
HETATM   24  C   UNL     1     -10.794  16.627  65.414  1.00  0.00    -0.173 A  
HETATM   25  S   UNL     1     -10.097  18.059  66.047  1.00  0.00    -0.197 SA 
HETATM   26  H2  UNL     1     -11.060  17.360  63.524  1.00  0.00     0.000 HD 
HETATM   27  H1  UNL     1     -11.597  15.699  63.756  1.00  0.00     0.000 HD 
ENDBRANCH  19  20
BRANCH  19  28
HETATM   28  N   UNL     1      -9.945  15.539  69.743  1.00  0.00    -0.300 NA 
HETATM   29  H   UNL     1      -9.102  16.112  69.728  1.00  0.00     0.000 HD 
BRANCH  28  30
HETATM   30  O   UNL     1     -10.585  15.193  70.936  1.00  0.00    -0.151 OA 
BRANCH  30  31
HETATM   31  C   UNL     1     -11.732  16.036  71.091  1.00  0.00    -0.439 C  
HETATM   32  O   UNL     1     -14.126  15.673  71.297  1.00  0.00    -0.560 OA 
HETATM   33  C   UNL     1     -12.990  15.355  71.628  1.00  0.00    -0.436 C  
HETATM   34  O   UNL     1     -12.752  14.409  72.566  1.00  0.00    -0.348 OA 
ENDBRANCH  30  31
ENDBRANCH  28  30
ENDBRANCH  19  28
ENDBRANCH  17  19
ENDBRANCH   8  15
TORSDOF 7
ENDMDL
MODEL       11
REMARK 921   NORMALIZED FREE ENERGY PREDICTED BY IDOCK:   -6.78 KCAL/MOL
REMARK 922        TOTAL FREE ENERGY PREDICTED BY IDOCK:  -10.90 KCAL/MOL
REMARK 923 INTER-LIGAND FREE ENERGY PREDICTED BY IDOCK:   -9.56 KCAL/MOL
REMARK 924 INTRA-LIGAND FREE ENERGY PREDICTED BY IDOCK:   -1.34 KCAL/MOL
REMARK 927      BINDING AFFINITY PREDICTED BY RF-SCORE:    0.00 PKD
ROOT
HETATM    1  C   UNL     1     -10.130  14.619  66.684  1.00  0.00    -0.273 C  
HETATM    2  S   UNL     1     -11.273  15.660  67.590  1.00  0.00    -0.222 SA 
HETATM    3  CG2 UNL     1     -10.548  17.222  67.096  1.00  0.00    -0.256 C  
HETATM    4  CB  UNL     1      -9.025  17.300  67.033  1.00  0.00    -0.245 C  
HETATM    5  O   UNL     1      -7.310  13.255  67.690  1.00  0.00    -0.133 OA 
HETATM    6  CA  UNL     1      -8.212  16.202  66.982  1.00  0.00    -0.216 C  
HETATM    7  N   UNL     1      -8.761  14.947  67.043  1.00  0.00    -0.225 N  
HETATM    8  CA  UNL     1      -9.864  13.207  67.318  1.00  0.00    -0.232 C  
HETATM    9  C   UNL     1      -6.704  16.349  66.850  1.00  0.00    -0.170 C  
HETATM   10  C   UNL     1      -8.382  13.690  67.339  1.00  0.00    -0.192 C  
HETATM   11  OXT UNL     1      -6.165  17.309  66.319  1.00  0.00    -0.207 OA 
HETATM   12  O   UNL     1      -5.939  15.343  67.316  1.00  0.00    -0.330 OA 
ENDROOT
BRANCH   4  13
HETATM   13  CG1 UNL     1      -8.534  18.690  67.112  1.00  0.00    -0.272 C  
HETATM   14  CD1 UNL     1      -9.084  19.785  66.567  1.00  0.00    -0.450 C  
ENDBRANCH   4  13
BRANCH   8  15
HETATM   15  N   UNL     1     -10.412  12.914  68.684  1.00  0.00    -0.325 N  
HETATM   16  H   UNL     1      -9.943  13.293  69.506  1.00  0.00     0.000 HD 
HETATM   17  C   UNL     1     -11.541  12.140  68.841  1.00  0.00    -0.324 C  
HETATM   18  O   UNL     1     -12.092  11.574  67.907  1.00  0.00    -0.630 OA 
BRANCH  17  19
HETATM   19  C   UNL     1     -12.062  11.947  70.268  1.00  0.00    -0.325 C  
BRANCH  19  20
HETATM   20  C   UNL     1     -12.464  13.112  71.054  1.00  0.00    -0.318 A  
HETATM   21  N   UNL     1     -11.959  16.528  71.695  1.00  0.00    -0.608 NA 
HETATM   22  C   UNL     1     -13.462  13.122  72.011  1.00  0.00    -0.507 A  
HETATM   23  N   UNL     1     -11.839  14.347  70.871  1.00  0.00    -0.308 NA 
HETATM   24  C   UNL     1     -12.358  15.248  71.668  1.00  0.00    -0.363 A  
HETATM   25  S   UNL     1     -13.615  14.688  72.691  1.00  0.00    -0.441 SA 
HETATM   26  H2  UNL     1     -12.411  17.180  72.336  1.00  0.00     0.000 HD 
HETATM   27  H1  UNL     1     -11.211  16.861  71.087  1.00  0.00     0.000 HD 
ENDBRANCH  19  20
BRANCH  19  28
HETATM   28  N   UNL     1     -12.184  10.810  70.900  1.00  0.00    -0.357 NA 
HETATM   29  H   UNL     1     -11.440  10.436  71.489  1.00  0.00     0.000 HD 
BRANCH  28  30
HETATM   30  O   UNL     1     -13.395  10.138  70.719  1.00  0.00    -0.361 OA 
BRANCH  30  31
HETATM   31  C   UNL     1     -13.487   9.103  71.702  1.00  0.00    -0.391 C  
HETATM   32  O   UNL     1     -13.057   6.711  71.737  1.00  0.00    -0.294 OA 
HETATM   33  C   UNL     1     -12.690   7.833  71.409  1.00  0.00    -0.308 C  
HETATM   34  O   UNL     1     -11.494   8.053  70.814  1.00  0.00    -0.279 OA 
ENDBRANCH  30  31
ENDBRANCH  28  30
ENDBRANCH  19  28
ENDBRANCH  17  19
ENDBRANCH   8  15
TORSDOF 7
ENDMDL
MODEL       12
REMARK 921   NORMALIZED FREE ENERGY PREDICTED BY IDOCK:   -6.76 KCAL/MOL
REMARK 922        TOTAL FREE ENERGY PREDICTED BY IDOCK:  -10.88 KCAL/MOL
REMARK 923 INTER-LIGAND FREE ENERGY PREDICTED BY IDOCK:   -9.44 KCAL/MOL
REMARK 924 INTRA-LIGAND FREE ENERGY PREDICTED BY IDOCK:   -1.44 KCAL/MOL
REMARK 927      BINDING AFFINITY PREDICTED BY RF-SCORE:    0.00 PKD
ROOT
HETATM    1  C   UNL     1     -11.614  15.099  68.708  1.00  0.00    -0.349 C  
HETATM    2  S   UNL     1     -10.048  15.458  69.499  1.00  0.00    -0.272 SA 
HETATM    3  CG2 UNL     1      -9.665  16.913  68.526  1.00  0.00    -0.264 C  
HETATM    4  CB  UNL     1      -9.998  16.868  67.037  1.00  0.00    -0.279 C  
HETATM    5  O   UNL     1     -12.249  13.146  66.137  1.00  0.00    -0.419 OA 
HETATM    6  CA  UNL     1     -10.863  15.967  66.481  1.00  0.00    -0.198 C  
HETATM    7  N   UNL     1     -11.438  15.002  67.269  1.00  0.00    -0.333 N  
HETATM    8  CA  UNL     1     -12.013  13.581  68.671  1.00  0.00    -0.343 C  
HETATM    9  C   UNL     1     -11.206  16.020  65.000  1.00  0.00    -0.261 C  
HETATM   10  C   UNL     1     -12.033  13.804  67.128  1.00  0.00    -0.405 C  
HETATM   11  OXT UNL     1     -11.168  17.046  64.338  1.00  0.00    -1.167 OA 
HETATM   12  O   UNL     1     -11.604  14.875  64.414  1.00  0.00    -0.362 OA 
ENDROOT
BRANCH   4  13
HETATM   13  CG1 UNL     1      -9.222  17.856  66.262  1.00  0.00    -0.204 C  
HETATM   14  CD1 UNL     1      -8.987  19.140  66.574  1.00  0.00    -0.359 C  
ENDBRANCH   4  13
BRANCH   8  15
HETATM   15  N   UNL     1     -11.006  12.559  69.111  1.00  0.00    -0.408 N  
HETATM   16  H   UNL     1     -10.026  12.827  69.205  1.00  0.00     0.000 HD 
HETATM   17  C   UNL     1     -11.387  11.264  69.389  1.00  0.00    -0.292 C  
HETATM   18  O   UNL     1     -12.524  10.853  69.201  1.00  0.00    -0.409 OA 
BRANCH  17  19
HETATM   19  C   UNL     1     -10.301  10.309  69.891  1.00  0.00    -0.233 C  
BRANCH  19  20
HETATM   20  C   UNL     1     -10.682   9.034  70.494  1.00  0.00    -0.239 A  
HETATM   21  N   UNL     1     -10.880   5.550  70.098  1.00  0.00    -0.284 NA 
HETATM   22  C   UNL     1     -11.197   8.877  71.768  1.00  0.00    -0.362 A  
HETATM   23  N   UNL     1     -10.533   7.838  69.789  1.00  0.00    -0.229 NA 
HETATM   24  C   UNL     1     -10.925   6.822  70.518  1.00  0.00    -0.280 A  
HETATM   25  S   UNL     1     -11.502   7.220  72.083  1.00  0.00    -0.283 SA 
HETATM   26  H2  UNL     1     -11.195   4.805  70.719  1.00  0.00     0.000 HD 
HETATM   27  H1  UNL     1     -10.538   5.314  69.166  1.00  0.00     0.000 HD 
ENDBRANCH  19  20
BRANCH  19  28
HETATM   28  N   UNL     1      -9.011  10.517  69.853  1.00  0.00    -0.343 NA 
HETATM   29  H   UNL     1      -8.404  10.293  70.640  1.00  0.00     0.000 HD 
BRANCH  28  30
HETATM   30  O   UNL     1      -8.517  11.063  68.667  1.00  0.00    -0.145 OA 
BRANCH  30  31
HETATM   31  C   UNL     1      -8.317  10.000  67.730  1.00  0.00    -0.114 C  
HETATM   32  O   UNL     1      -9.763   8.632  66.335  1.00  0.00    -0.229 OA 
HETATM   33  C   UNL     1      -9.466   9.744  66.757  1.00  0.00    -0.163 C  
HETATM   34  O   UNL     1     -10.097  10.865  66.335  1.00  0.00    -0.216 OA 
ENDBRANCH  30  31
ENDBRANCH  28  30
ENDBRANCH  19  28
ENDBRANCH  17  19
ENDBRANCH   8  15
TORSDOF 7
ENDMDL
MODEL       13
REMARK 921   NORMALIZED FREE ENERGY PREDICTED BY IDOCK:   -6.76 KCAL/MOL
REMARK 922        TOTAL FREE ENERGY PREDICTED BY IDOCK:  -10.88 KCAL/MOL
REMARK 923 INTER-LIGAND FREE ENERGY PREDICTED BY IDOCK:   -9.40 KCAL/MOL
REMARK 924 INTRA-LIGAND FREE ENERGY PREDICTED BY IDOCK:   -1.48 KCAL/MOL
REMARK 927      BINDING AFFINITY PREDICTED BY RF-SCORE:    0.00 PKD
ROOT
HETATM    1  C   UNL     1     -11.956  14.051  68.701  1.00  0.00    -0.354 C  
HETATM    2  S   UNL     1     -10.781  12.738  68.375  1.00  0.00    -0.256 SA 
HETATM    3  CG2 UNL     1     -11.702  11.442  69.201  1.00  0.00    -0.342 C  
HETATM    4  CB  UNL     1     -12.397  11.801  70.511  1.00  0.00    -0.387 C  
HETATM    5  O   UNL     1     -12.061  16.175  71.211  1.00  0.00    -0.414 OA 
HETATM    6  CA  UNL     1     -12.658  13.086  70.903  1.00  0.00    -0.280 C  
HETATM    7  N   UNL     1     -12.234  14.132  70.125  1.00  0.00    -0.333 N  
HETATM    8  CA  UNL     1     -11.335  15.487  68.832  1.00  0.00    -0.324 C  
HETATM    9  C   UNL     1     -13.418  13.374  72.189  1.00  0.00    -0.552 C  
HETATM   10  C   UNL     1     -11.984  15.448  70.248  1.00  0.00    -0.355 C  
HETATM   11  OXT UNL     1     -14.228  12.601  72.679  1.00  0.00    -0.299 OA 
HETATM   12  O   UNL     1     -13.201  14.562  72.785  1.00  0.00    -0.445 OA 
ENDROOT
BRANCH   4  13
HETATM   13  CG1 UNL     1     -12.685  10.611  71.335  1.00  0.00    -0.545 C  
HETATM   14  CD1 UNL     1     -11.887   9.555  71.555  1.00  0.00    -0.478 C  
ENDBRANCH   4  13
BRANCH   8  15
HETATM   15  N   UNL     1      -9.841  15.628  68.866  1.00  0.00    -0.207 N  
HETATM   16  H   UNL     1      -9.260  14.795  68.963  1.00  0.00     0.000 HD 
HETATM   17  C   UNL     1      -9.246  16.867  68.766  1.00  0.00    -0.260 C  
HETATM   18  O   UNL     1      -9.884  17.910  68.748  1.00  0.00    -0.344 OA 
BRANCH  17  19
HETATM   19  C   UNL     1      -7.715  16.905  68.748  1.00  0.00    -0.247 C  
BRANCH  19  20
HETATM   20  C   UNL     1      -6.961  15.653  68.736  1.00  0.00    -0.121 A  
HETATM   21  N   UNL     1      -6.187  12.716  66.973  1.00  0.00    -0.490 NA 
HETATM   22  C   UNL     1      -6.101  15.232  69.734  1.00  0.00    -0.144 A  
HETATM   23  N   UNL     1      -7.061  14.769  67.661  1.00  0.00    -0.173 NA 
HETATM   24  C   UNL     1      -6.297  13.721  67.853  1.00  0.00    -0.157 A  
HETATM   25  S   UNL     1      -5.418  13.713  69.325  1.00  0.00    -0.081 SA 
HETATM   26  H2  UNL     1      -5.568  11.932  67.183  1.00  0.00     0.000 HD 
HETATM   27  H1  UNL     1      -6.710  12.721  66.098  1.00  0.00     0.000 HD 
ENDBRANCH  19  20
BRANCH  19  28
HETATM   28  N   UNL     1      -6.968  17.977  68.753  1.00  0.00    -0.255 NA 
HETATM   29  H   UNL     1      -7.156  18.764  69.373  1.00  0.00     0.000 HD 
BRANCH  28  30
HETATM   30  O   UNL     1      -5.896  17.977  67.858  1.00  0.00    -0.155 OA 
BRANCH  30  31
HETATM   31  C   UNL     1      -6.105  19.026  66.906  1.00  0.00    -0.170 C  
HETATM   32  O   UNL     1      -6.428  19.136  64.500  1.00  0.00    -0.459 OA 
HETATM   33  C   UNL     1      -6.704  18.601  65.568  1.00  0.00    -0.249 C  
HETATM   34  O   UNL     1      -7.633  17.620  65.661  1.00  0.00    -0.521 OA 
ENDBRANCH  30  31
ENDBRANCH  28  30
ENDBRANCH  19  28
ENDBRANCH  17  19
ENDBRANCH   8  15
TORSDOF 7
ENDMDL
MODEL       14
REMARK 921   NORMALIZED FREE ENERGY PREDICTED BY IDOCK:   -6.75 KCAL/MOL
REMARK 922        TOTAL FREE ENERGY PREDICTED BY IDOCK:  -10.87 KCAL/MOL
REMARK 923 INTER-LIGAND FREE ENERGY PREDICTED BY IDOCK:   -9.11 KCAL/MOL
REMARK 924 INTRA-LIGAND FREE ENERGY PREDICTED BY IDOCK:   -1.75 KCAL/MOL
REMARK 927      BINDING AFFINITY PREDICTED BY RF-SCORE:    0.00 PKD
ROOT
HETATM    1  C   UNL     1     -11.590  12.433  68.267  1.00  0.00    -0.333 C  
HETATM    2  S   UNL     1      -9.961  11.704  68.109  1.00  0.00    -0.200 SA 
HETATM    3  CG2 UNL     1     -10.365  10.149  68.902  1.00  0.00    -0.206 C  
HETATM    4  CB  UNL     1     -11.276  10.201  70.125  1.00  0.00    -0.377 C  
HETATM    5  O   UNL     1     -12.793  14.343  70.661  1.00  0.00    -0.343 OA 
HETATM    6  CA  UNL     1     -12.068  11.274  70.435  1.00  0.00    -0.384 C  
HETATM    7  N   UNL     1     -12.022  12.400  69.654  1.00  0.00    -0.298 N  
HETATM    8  CA  UNL     1     -11.613  13.998  68.391  1.00  0.00    -0.331 C  
HETATM    9  C   UNL     1     -13.007  11.235  71.631  1.00  0.00    -0.432 C  
HETATM   10  C   UNL     1     -12.333  13.705  69.742  1.00  0.00    -0.228 C  
HETATM   11  OXT UNL     1     -13.485  10.203  72.078  1.00  0.00    -0.403 OA 
HETATM   12  O   UNL     1     -13.346  12.412  72.192  1.00  0.00    -0.528 OA 
ENDROOT
BRANCH   4  13
HETATM   13  CG1 UNL     1     -11.146   8.999  70.971  1.00  0.00    -0.356 C  
HETATM   14  CD1 UNL     1     -10.177   8.722  71.857  1.00  0.00    -0.415 C  
ENDBRANCH   4  13
BRANCH   8  15
HETATM   15  N   UNL     1     -10.312  14.729  68.557  1.00  0.00    -0.231 N  
HETATM   16  H   UNL     1      -9.473  14.209  68.815  1.00  0.00     0.000 HD 
HETATM   17  C   UNL     1     -10.237  16.091  68.365  1.00  0.00    -0.236 C  
HETATM   18  O   UNL     1     -11.222  16.786  68.154  1.00  0.00    -0.325 OA 
BRANCH  17  19
HETATM   19  C   UNL     1      -8.856  16.739  68.495  1.00  0.00    -0.248 C  
BRANCH  19  20
HETATM   20  C   UNL     1      -7.670  15.894  68.617  1.00  0.00    -0.161 A  
HETATM   21  N   UNL     1      -5.781  13.279  67.229  1.00  0.00    -0.371 NA 
HETATM   22  C   UNL     1      -6.726  15.986  69.624  1.00  0.00    -0.171 A  
HETATM   23  N   UNL     1      -7.401  14.900  67.675  1.00  0.00    -0.171 NA 
HETATM   24  C   UNL     1      -6.289  14.273  67.971  1.00  0.00    -0.153 A  
HETATM   25  S   UNL     1      -5.496  14.815  69.391  1.00  0.00    -0.094 SA 
HETATM   26  H2  UNL     1      -4.906  12.838  67.513  1.00  0.00     0.000 HD 
HETATM   27  H1  UNL     1      -6.253  12.956  66.385  1.00  0.00     0.000 HD 
ENDBRANCH  19  20
BRANCH  19  28
HETATM   28  N   UNL     1      -8.602  18.021  68.523  1.00  0.00    -0.303 NA 
HETATM   29  H   UNL     1      -9.001  18.636  69.232  1.00  0.00     0.000 HD 
BRANCH  28  30
HETATM   30  O   UNL     1      -7.751  18.496  67.523  1.00  0.00    -0.226 OA 
BRANCH  30  31
HETATM   31  C   UNL     1      -8.534  18.760  66.354  1.00  0.00    -0.284 C  
HETATM   32  O   UNL     1     -10.778  19.592  65.931  1.00  0.00    -0.483 OA 
HETATM   33  C   UNL     1      -9.725  19.697  66.549  1.00  0.00    -0.399 C  
HETATM   34  O   UNL     1      -9.499  20.711  67.417  1.00  0.00    -0.426 OA 
ENDBRANCH  30  31
ENDBRANCH  28  30
ENDBRANCH  19  28
ENDBRANCH  17  19
ENDBRANCH   8  15
TORSDOF 7
ENDMDL
MODEL       15
REMARK 921   NORMALIZED FREE ENERGY PREDICTED BY IDOCK:   -6.70 KCAL/MOL
REMARK 922        TOTAL FREE ENERGY PREDICTED BY IDOCK:  -10.79 KCAL/MOL
REMARK 923 INTER-LIGAND FREE ENERGY PREDICTED BY IDOCK:   -9.52 KCAL/MOL
REMARK 924 INTRA-LIGAND FREE ENERGY PREDICTED BY IDOCK:   -1.27 KCAL/MOL
REMARK 927      BINDING AFFINITY PREDICTED BY RF-SCORE:    0.00 PKD
ROOT
HETATM    1  C   UNL     1     -10.839  10.280  69.244  1.00  0.00    -0.238 C  
HETATM    2  S   UNL     1      -9.099  10.705  69.277  1.00  0.00    -0.034 SA 
HETATM    3  CG2 UNL     1      -8.541   9.188  70.050  1.00  0.00    -0.163 C  
HETATM    4  CB  UNL     1      -9.406   8.609  71.165  1.00  0.00    -0.274 C  
HETATM    5  O   UNL     1     -13.184  10.929  71.459  1.00  0.00    -0.386 OA 
HETATM    6  CA  UNL     1     -10.714   8.958  71.368  1.00  0.00    -0.312 C  
HETATM    7  N   UNL     1     -11.291   9.917  70.576  1.00  0.00    -0.302 N  
HETATM    8  CA  UNL     1     -11.827  11.496  69.337  1.00  0.00    -0.350 C  
HETATM    9  C   UNL     1     -11.542   8.291  72.455  1.00  0.00    -0.396 C  
HETATM   10  C   UNL     1     -12.343  10.754  70.607  1.00  0.00    -0.372 C  
HETATM   11  OXT UNL     1     -11.329   7.160  72.866  1.00  0.00    -0.281 OA 
HETATM   12  O   UNL     1     -12.583   8.985  72.955  1.00  0.00    -0.234 OA 
ENDROOT
BRANCH   4  13
HETATM   13  CG1 UNL     1      -8.650   7.694  72.041  1.00  0.00    -0.136 C  
HETATM   14  CD1 UNL     1      -7.844   8.019  73.064  1.00  0.00    -0.199 C  
ENDBRANCH   4  13
BRANCH   8  15
HETATM   15  N   UNL     1     -11.270  12.859  69.630  1.00  0.00    -0.475 N  
HETATM   16  H   UNL     1     -10.860  13.048  70.545  1.00  0.00     0.000 HD 
HETATM   17  C   UNL     1     -11.305  13.856  68.680  1.00  0.00    -0.278 C  
HETATM   18  O   UNL     1     -11.870  13.726  67.603  1.00  0.00    -0.344 OA 
BRANCH  17  19
HETATM   19  C   UNL     1     -10.656  15.193  69.048  1.00  0.00    -0.245 C  
BRANCH  19  20
HETATM   20  C   UNL     1      -9.449  15.628  68.349  1.00  0.00    -0.196 A  
HETATM   21  N   UNL     1      -8.104  17.613  65.783  1.00  0.00    -0.538 NA 
HETATM   22  C   UNL     1      -8.161  15.233  68.662  1.00  0.00    -0.159 A  
HETATM   23  N   UNL     1      -9.526  16.518  67.276  1.00  0.00    -0.232 NA 
HETATM   24  C   UNL     1      -8.330  16.778  66.807  1.00  0.00    -0.237 A  
HETATM   25  S   UNL     1      -7.039  15.978  67.601  1.00  0.00    -0.171 SA 
HETATM   26  H2  UNL     1      -7.147  17.776  65.471  1.00  0.00     0.000 HD 
HETATM   27  H1  UNL     1      -8.873  18.089  65.310  1.00  0.00     0.000 HD 
ENDBRANCH  19  20
BRANCH  19  28
HETATM   28  N   UNL     1     -11.069  16.026  69.967  1.00  0.00    -0.337 NA 
HETATM   29  H   UNL     1     -10.671  16.959  70.069  1.00  0.00     0.000 HD 
BRANCH  28  30
HETATM   30  O   UNL     1     -12.087  15.558  70.800  1.00  0.00    -0.327 OA 
BRANCH  30  31
HETATM   31  C   UNL     1     -11.786  15.951  72.143  1.00  0.00    -0.517 C  
HETATM   32  O   UNL     1     -13.080  16.303  74.171  1.00  0.00    -0.661 OA 
HETATM   33  C   UNL     1     -12.843  15.606  73.191  1.00  0.00    -0.509 C  
HETATM   34  O   UNL     1     -13.459  14.417  72.989  1.00  0.00    -0.615 OA 
ENDBRANCH  30  31
ENDBRANCH  28  30
ENDBRANCH  19  28
ENDBRANCH  17  19
ENDBRANCH   8  15
TORSDOF 7
ENDMDL
MODEL       16
REMARK 921   NORMALIZED FREE ENERGY PREDICTED BY IDOCK:   -6.69 KCAL/MOL
REMARK 922        TOTAL FREE ENERGY PREDICTED BY IDOCK:  -10.77 KCAL/MOL
REMARK 923 INTER-LIGAND FREE ENERGY PREDICTED BY IDOCK:   -9.10 KCAL/MOL
REMARK 924 INTRA-LIGAND FREE ENERGY PREDICTED BY IDOCK:   -1.68 KCAL/MOL
REMARK 927      BINDING AFFINITY PREDICTED BY RF-SCORE:    0.00 PKD
ROOT
HETATM    1  C   UNL     1     -11.670  12.509  67.736  1.00  0.00    -0.359 C  
HETATM    2  S   UNL     1     -10.053  11.776  67.494  1.00  0.00    -0.194 SA 
HETATM    3  CG2 UNL     1     -10.349  10.315  68.488  1.00  0.00    -0.178 C  
HETATM    4  CB  UNL     1     -11.133  10.496  69.784  1.00  0.00    -0.354 C  
HETATM    5  O   UNL     1     -12.659  14.661  70.020  1.00  0.00    -0.308 OA 
HETATM    6  CA  UNL     1     -11.908  11.590  70.055  1.00  0.00    -0.355 C  
HETATM    7  N   UNL     1     -11.960  12.625  69.156  1.00  0.00    -0.276 N  
HETATM    8  CA  UNL     1     -11.707  14.078  67.693  1.00  0.00    -0.377 C  
HETATM    9  C   UNL     1     -12.721  11.677  71.337  1.00  0.00    -0.339 C  
HETATM   10  C   UNL     1     -12.283  13.930  69.134  1.00  0.00    -0.267 C  
HETATM   11  OXT UNL     1     -13.135  10.697  71.939  1.00  0.00    -0.469 OA 
HETATM   12  O   UNL     1     -13.022  12.906  71.799  1.00  0.00    -0.362 OA 
ENDROOT
BRANCH   4  13
HETATM   13  CG1 UNL     1     -10.899   9.394  70.737  1.00  0.00    -0.372 C  
HETATM   14  CD1 UNL     1      -9.743   9.056  71.330  1.00  0.00    -0.371 C  
ENDBRANCH   4  13
BRANCH   8  15
HETATM   15  N   UNL     1     -10.409  14.830  67.645  1.00  0.00    -0.237 N  
HETATM   16  H   UNL     1      -9.784  14.805  68.451  1.00  0.00     0.000 HD 
HETATM   17  C   UNL     1     -10.052  15.553  66.528  1.00  0.00    -0.279 C  
HETATM   18  O   UNL     1     -10.797  15.706  65.570  1.00  0.00    -0.338 OA 
BRANCH  17  19
HETATM   19  C   UNL     1      -8.681  16.236  66.548  1.00  0.00    -0.292 C  
BRANCH  19  20
HETATM   20  C   UNL     1      -8.600  17.694  66.605  1.00  0.00    -0.257 A  
HETATM   21  N   UNL     1      -7.032  20.590  65.386  1.00  0.00    -0.488 NA 
HETATM   22  C   UNL     1      -9.393  18.505  67.396  1.00  0.00    -0.279 A  
HETATM   23  N   UNL     1      -7.679  18.389  65.819  1.00  0.00    -0.524 NA 
HETATM   24  C   UNL     1      -7.785  19.680  66.019  1.00  0.00    -0.326 A  
HETATM   25  S   UNL     1      -8.977  20.152  67.158  1.00  0.00    -0.363 SA 
HETATM   26  H2  UNL     1      -7.170  21.581  65.584  1.00  0.00     0.000 HD 
HETATM   27  H1  UNL     1      -6.322  20.309  64.709  1.00  0.00     0.000 HD 
ENDBRANCH  19  20
BRANCH  19  28
HETATM   28  N   UNL     1      -7.519  15.639  66.505  1.00  0.00    -0.226 NA 
HETATM   29  H   UNL     1      -6.732  16.023  65.983  1.00  0.00     0.000 HD 
BRANCH  28  30
HETATM   30  O   UNL     1      -7.422  14.443  67.220  1.00  0.00    -0.183 OA 
BRANCH  30  31
HETATM   31  C   UNL     1      -6.480  14.628  68.282  1.00  0.00    -0.121 C  
HETATM   32  O   UNL     1      -6.040  16.373  69.916  1.00  0.00    -0.203 OA 
HETATM   33  C   UNL     1      -6.858  15.670  69.333  1.00  0.00    -0.186 C  
HETATM   34  O   UNL     1      -8.178  15.707  69.629  1.00  0.00    -0.213 OA 
ENDBRANCH  30  31
ENDBRANCH  28  30
ENDBRANCH  19  28
ENDBRANCH  17  19
ENDBRANCH   8  15
TORSDOF 7
ENDMDL
MODEL       17
REMARK 921   NORMALIZED FREE ENERGY PREDICTED BY IDOCK:   -6.67 KCAL/MOL
REMARK 922        TOTAL FREE ENERGY PREDICTED BY IDOCK:  -10.75 KCAL/MOL
REMARK 923 INTER-LIGAND FREE ENERGY PREDICTED BY IDOCK:   -9.38 KCAL/MOL
REMARK 924 INTRA-LIGAND FREE ENERGY PREDICTED BY IDOCK:   -1.37 KCAL/MOL
REMARK 927      BINDING AFFINITY PREDICTED BY RF-SCORE:    0.00 PKD
ROOT
HETATM    1  C   UNL     1     -11.338  10.264  69.035  1.00  0.00    -0.180 C  
HETATM    2  S   UNL     1      -9.587  10.646  69.029  1.00  0.00    -0.171 SA 
HETATM    3  CG2 UNL     1      -9.024   8.985  69.394  1.00  0.00    -0.145 C  
HETATM    4  CB  UNL     1      -9.825   8.180  70.414  1.00  0.00    -0.188 C  
HETATM    5  O   UNL     1     -13.496  10.428  71.512  1.00  0.00    -0.309 OA 
HETATM    6  CA  UNL     1     -11.103   8.493  70.789  1.00  0.00    -0.254 C  
HETATM    7  N   UNL     1     -11.705   9.615  70.281  1.00  0.00    -0.205 N  
HETATM    8  CA  UNL     1     -12.278  11.442  69.475  1.00  0.00    -0.235 C  
HETATM    9  C   UNL     1     -11.872   7.609  71.759  1.00  0.00    -0.290 C  
HETATM   10  C   UNL     1     -12.725  10.439  70.581  1.00  0.00    -0.333 C  
HETATM   11  OXT UNL     1     -11.666   6.411  71.886  1.00  0.00    -0.304 OA 
HETATM   12  O   UNL     1     -12.852   8.186  72.481  1.00  0.00    -0.213 OA 
ENDROOT
BRANCH   4  13
HETATM   13  CG1 UNL     1      -9.037   7.079  71.000  1.00  0.00    -0.151 C  
HETATM   14  CD1 UNL     1      -8.293   6.169  70.352  1.00  0.00    -0.125 C  
ENDBRANCH   4  13
BRANCH   8  15
HETATM   15  N   UNL     1     -11.658  12.694  70.024  1.00  0.00    -0.531 N  
HETATM   16  H   UNL     1     -11.227  12.678  70.948  1.00  0.00     0.000 HD 
HETATM   17  C   UNL     1     -11.665  13.864  69.296  1.00  0.00    -0.334 C  
HETATM   18  O   UNL     1     -12.252  13.977  68.229  1.00  0.00    -0.328 OA 
BRANCH  17  19
HETATM   19  C   UNL     1     -10.954  15.073  69.911  1.00  0.00    -0.261 C  
BRANCH  19  20
HETATM   20  C   UNL     1     -10.245  16.012  69.045  1.00  0.00    -0.236 A  
HETATM   21  N   UNL     1     -10.472  18.879  67.028  1.00  0.00    -0.406 NA 
HETATM   22  C   UNL     1      -8.894  15.966  68.756  1.00  0.00    -0.213 A  
HETATM   23  N   UNL     1     -10.922  17.071  68.435  1.00  0.00    -0.324 NA 
HETATM   24  C   UNL     1     -10.096  17.790  67.715  1.00  0.00    -0.345 A  
HETATM   25  S   UNL     1      -8.468  17.254  67.707  1.00  0.00    -0.220 SA 
HETATM   26  H2  UNL     1      -9.776  19.398  66.492  1.00  0.00     0.000 HD 
HETATM   27  H1  UNL     1     -11.441  19.197  67.033  1.00  0.00     0.000 HD 
ENDBRANCH  19  20
BRANCH  19  28
HETATM   28  N   UNL     1     -10.893  15.370  71.183  1.00  0.00    -0.458 NA 
HETATM   29  H   UNL     1     -10.213  14.938  71.807  1.00  0.00     0.000 HD 
BRANCH  28  30
HETATM   30  O   UNL     1     -11.817  16.315  71.632  1.00  0.00    -0.477 OA 
BRANCH  30  31
HETATM   31  C   UNL     1     -13.070  15.654  71.844  1.00  0.00    -0.464 C  
HETATM   32  O   UNL     1     -13.761  13.523  72.786  1.00  0.00    -0.710 OA 
HETATM   33  C   UNL     1     -13.062  14.526  72.874  1.00  0.00    -0.519 C  
HETATM   34  O   UNL     1     -12.265  14.756  73.944  1.00  0.00    -0.449 OA 
ENDBRANCH  30  31
ENDBRANCH  28  30
ENDBRANCH  19  28
ENDBRANCH  17  19
ENDBRANCH   8  15
TORSDOF 7
ENDMDL
MODEL       18
REMARK 921   NORMALIZED FREE ENERGY PREDICTED BY IDOCK:   -6.62 KCAL/MOL
REMARK 922        TOTAL FREE ENERGY PREDICTED BY IDOCK:  -10.68 KCAL/MOL
REMARK 923 INTER-LIGAND FREE ENERGY PREDICTED BY IDOCK:   -8.82 KCAL/MOL
REMARK 924 INTRA-LIGAND FREE ENERGY PREDICTED BY IDOCK:   -1.86 KCAL/MOL
REMARK 927      BINDING AFFINITY PREDICTED BY RF-SCORE:    0.00 PKD
ROOT
HETATM    1  C   UNL     1     -12.044  14.384  68.310  1.00  0.00    -0.225 C  
HETATM    2  S   UNL     1     -10.830  13.197  67.736  1.00  0.00    -0.251 SA 
HETATM    3  CG2 UNL     1     -11.536  11.776  68.570  1.00  0.00    -0.321 C  
HETATM    4  CB  UNL     1     -12.075  11.988  69.982  1.00  0.00    -0.355 C  
HETATM    5  O   UNL     1     -11.968  16.318  70.970  1.00  0.00    -0.339 OA 
HETATM    6  CA  UNL     1     -12.374  13.218  70.502  1.00  0.00    -0.316 C  
HETATM    7  N   UNL     1     -12.135  14.345  69.760  1.00  0.00    -0.320 N  
HETATM    8  CA  UNL     1     -11.517  15.854  68.471  1.00  0.00    -0.377 C  
HETATM    9  C   UNL     1     -12.975  13.355  71.893  1.00  0.00    -0.326 C  
HETATM   10  C   UNL     1     -11.967  15.666  69.952  1.00  0.00    -0.360 C  
HETATM   11  OXT UNL     1     -13.654  12.487  72.421  1.00  0.00    -0.521 OA 
HETATM   12  O   UNL     1     -12.767  14.515  72.547  1.00  0.00    -0.349 OA 
ENDROOT
BRANCH   4  13
HETATM   13  CG1 UNL     1     -12.163  10.726  70.742  1.00  0.00    -0.480 C  
HETATM   14  CD1 UNL     1     -11.275   9.720  70.764  1.00  0.00    -0.419 C  
ENDBRANCH   4  13
BRANCH   8  15
HETATM   15  N   UNL     1     -10.046  16.114  68.325  1.00  0.00    -0.228 N  
HETATM   16  H   UNL     1      -9.381  15.555  68.859  1.00  0.00     0.000 HD 
HETATM   17  C   UNL     1      -9.583  17.099  67.479  1.00  0.00    -0.254 C  
HETATM   18  O   UNL     1     -10.328  17.869  66.888  1.00  0.00    -0.341 OA 
BRANCH  17  19
HETATM   19  C   UNL     1      -8.065  17.249  67.348  1.00  0.00    -0.190 C  
BRANCH  19  20
HETATM   20  C   UNL     1      -7.428  18.508  67.729  1.00  0.00    -0.230 A  
HETATM   21  N   UNL     1      -6.136  20.463  70.344  1.00  0.00    -0.486 NA 
HETATM   22  C   UNL     1      -7.068  19.515  66.853  1.00  0.00    -0.207 A  
HETATM   23  N   UNL     1      -7.122  18.778  69.064  1.00  0.00    -0.309 NA 
HETATM   24  C   UNL     1      -6.550  19.952  69.176  1.00  0.00    -0.333 A  
HETATM   25  S   UNL     1      -6.346  20.814  67.708  1.00  0.00    -0.344 SA 
HETATM   26  H2  UNL     1      -5.691  21.381  70.361  1.00  0.00     0.000 HD 
HETATM   27  H1  UNL     1      -6.258  19.950  71.218  1.00  0.00     0.000 HD 
ENDBRANCH  19  20
BRANCH  19  28
HETATM   28  N   UNL     1      -7.234  16.344  66.903  1.00  0.00    -0.220 NA 
HETATM   29  H   UNL     1      -6.308  16.586  66.553  1.00  0.00     0.000 HD 
BRANCH  28  30
HETATM   30  O   UNL     1      -7.693  15.025  66.938  1.00  0.00    -0.152 OA 
BRANCH  30  31
HETATM   31  C   UNL     1      -6.730  14.232  67.640  1.00  0.00    -0.169 C  
HETATM   32  O   UNL     1      -5.409  14.509  69.661  1.00  0.00    -0.091 OA 
HETATM   33  C   UNL     1      -6.495  14.611  69.101  1.00  0.00    -0.110 C  
HETATM   34  O   UNL     1      -7.609  15.006  69.760  1.00  0.00    -0.194 OA 
ENDBRANCH  30  31
ENDBRANCH  28  30
ENDBRANCH  19  28
ENDBRANCH  17  19
ENDBRANCH   8  15
TORSDOF 7
ENDMDL
MODEL       19
REMARK 921   NORMALIZED FREE ENERGY PREDICTED BY IDOCK:   -6.59 KCAL/MOL
REMARK 922        TOTAL FREE ENERGY PREDICTED BY IDOCK:  -10.64 KCAL/MOL
REMARK 923 INTER-LIGAND FREE ENERGY PREDICTED BY IDOCK:   -9.40 KCAL/MOL
REMARK 924 INTRA-LIGAND FREE ENERGY PREDICTED BY IDOCK:   -1.24 KCAL/MOL
REMARK 927      BINDING AFFINITY PREDICTED BY RF-SCORE:    0.00 PKD
ROOT
HETATM    1  C   UNL     1      -9.597   9.429  70.386  1.00  0.00    -0.266 C  
HETATM    2  S   UNL     1     -11.053   9.876  71.328  1.00  0.00    -0.095 SA 
HETATM    3  CG2 UNL     1     -11.314   8.264  72.064  1.00  0.00    -0.325 C  
HETATM    4  CB  UNL     1     -11.085   7.043  71.178  1.00  0.00    -0.288 C  
HETATM    5  O   UNL     1      -9.373   8.340  67.289  1.00  0.00    -0.140 OA 
HETATM    6  CA  UNL     1     -10.374   7.078  70.009  1.00  0.00    -0.202 C  
HETATM    7  N   UNL     1      -9.875   8.270  69.554  1.00  0.00    -0.178 N  
HETATM    8  CA  UNL     1      -9.392  10.228  69.050  1.00  0.00    -0.189 C  
HETATM    9  C   UNL     1     -10.122   5.810  69.208  1.00  0.00    -0.205 C  
HETATM   10  C   UNL     1      -9.443   8.811  68.400  1.00  0.00    -0.141 C  
HETATM   11  OXT UNL     1     -10.075   4.696  69.708  1.00  0.00    -0.234 OA 
HETATM   12  O   UNL     1      -9.907   5.945  67.885  1.00  0.00    -0.115 OA 
ENDROOT
BRANCH   4  13
HETATM   13  CG1 UNL     1     -11.779   5.845  71.688  1.00  0.00    -0.111 C  
HETATM   14  CD1 UNL     1     -11.600   5.235  72.869  1.00  0.00    -0.292 C  
ENDBRANCH   4  13
BRANCH   8  15
HETATM   15  N   UNL     1     -10.488  11.138  68.577  1.00  0.00    -0.182 N  
HETATM   16  H   UNL     1     -11.444  10.786  68.521  1.00  0.00     0.000 HD 
HETATM   17  C   UNL     1     -10.220  12.441  68.219  1.00  0.00    -0.229 C  
HETATM   18  O   UNL     1      -9.085  12.894  68.167  1.00  0.00    -0.199 OA 
BRANCH  17  19
HETATM   19  C   UNL     1     -11.411  13.311  67.810  1.00  0.00    -0.317 C  
BRANCH  19  20
HETATM   20  C   UNL     1     -11.626  13.625  66.399  1.00  0.00    -0.350 A  
HETATM   21  N   UNL     1     -11.601  16.107  63.914  1.00  0.00    -1.469 NA 
HETATM   22  C   UNL     1     -11.987  12.712  65.425  1.00  0.00    -0.446 A  
HETATM   23  N   UNL     1     -11.465  14.929  65.925  1.00  0.00    -0.318 NA 
HETATM   24  C   UNL     1     -11.696  14.981  64.636  1.00  0.00    -0.382 A  
HETATM   25  S   UNL     1     -12.130  13.492  63.905  1.00  0.00    -0.376 SA 
HETATM   26  H2  UNL     1     -11.789  16.077  62.912  1.00  0.00     0.000 HD 
HETATM   27  H1  UNL     1     -11.344  16.993  64.349  1.00  0.00     0.000 HD 
ENDBRANCH  19  20
BRANCH  19  28
HETATM   28  N   UNL     1     -12.294  13.842  68.614  1.00  0.00    -0.454 NA 
HETATM   29  H   UNL     1     -13.102  14.357  68.267  1.00  0.00     0.000 HD 
BRANCH  28  30
HETATM   30  O   UNL     1     -12.061  13.661  69.979  1.00  0.00    -0.319 OA 
BRANCH  30  31
HETATM   31  C   UNL     1     -13.001  14.458  70.706  1.00  0.00    -0.326 C  
HETATM   32  O   UNL     1     -12.852  16.133  72.461  1.00  0.00    -0.435 OA 
HETATM   33  C   UNL     1     -12.431  15.696  71.397  1.00  0.00    -0.439 C  
HETATM   34  O   UNL     1     -11.458  16.324  70.696  1.00  0.00    -0.377 OA 
ENDBRANCH  30  31
ENDBRANCH  28  30
ENDBRANCH  19  28
ENDBRANCH  17  19
ENDBRANCH   8  15
TORSDOF 7
ENDMDL
MODEL       20
REMARK 921   NORMALIZED FREE ENERGY PREDICTED BY IDOCK:   -6.59 KCAL/MOL
REMARK 922        TOTAL FREE ENERGY PREDICTED BY IDOCK:  -10.64 KCAL/MOL
REMARK 923 INTER-LIGAND FREE ENERGY PREDICTED BY IDOCK:   -9.17 KCAL/MOL
REMARK 924 INTRA-LIGAND FREE ENERGY PREDICTED BY IDOCK:   -1.47 KCAL/MOL
REMARK 927      BINDING AFFINITY PREDICTED BY RF-SCORE:    0.00 PKD
ROOT
HETATM    1  C   UNL     1      -9.286   8.955  70.073  1.00  0.00    -0.174 C  
HETATM    2  S   UNL     1     -10.454   9.467  71.332  1.00  0.00    -0.193 SA 
HETATM    3  CG2 UNL     1     -10.596   7.868  72.129  1.00  0.00    -0.253 C  
HETATM    4  CB  UNL     1     -10.638   6.637  71.229  1.00  0.00    -0.256 C  
HETATM    5  O   UNL     1      -9.859   7.852  67.027  1.00  0.00    -0.183 OA 
HETATM    6  CA  UNL     1     -10.229   6.639  69.923  1.00  0.00    -0.187 C  
HETATM    7  N   UNL     1      -9.804   7.808  69.346  1.00  0.00    -0.173 N  
HETATM    8  CA  UNL     1      -9.377   9.742  68.717  1.00  0.00    -0.150 C  
HETATM    9  C   UNL     1     -10.229   5.360  69.100  1.00  0.00    -0.232 C  
HETATM   10  C   UNL     1      -9.640   8.328  68.116  1.00  0.00    -0.150 C  
HETATM   11  OXT UNL     1     -10.109   4.246  69.588  1.00  0.00    -0.168 OA 
HETATM   12  O   UNL     1     -10.333   5.483  67.762  1.00  0.00    -0.188 OA 
ENDROOT
BRANCH   4  13
HETATM   13  CG1 UNL     1     -11.239   5.471  71.904  1.00  0.00    -0.188 C  
HETATM   14  CD1 UNL     1     -11.171   5.155  73.207  1.00  0.00    -0.389 C  
ENDBRANCH   4  13
BRANCH   8  15
HETATM   15  N   UNL     1     -10.515  10.697  68.511  1.00  0.00    -0.180 N  
HETATM   16  H   UNL     1     -11.468  10.338  68.448  1.00  0.00     0.000 HD 
HETATM   17  C   UNL     1     -10.291  12.053  68.405  1.00  0.00    -0.214 C  
HETATM   18  O   UNL     1      -9.168  12.538  68.372  1.00  0.00    -0.196 OA 
BRANCH  17  19
HETATM   19  C   UNL     1     -11.520  12.954  68.259  1.00  0.00    -0.311 C  
BRANCH  19  20
HETATM   20  C   UNL     1     -12.005  13.708  69.413  1.00  0.00    -0.342 A  
HETATM   21  N   UNL     1     -13.399  13.558  72.633  1.00  0.00    -0.545 NA 
HETATM   22  C   UNL     1     -12.002  15.086  69.523  1.00  0.00    -0.313 A  
HETATM   23  N   UNL     1     -12.518  13.049  70.532  1.00  0.00    -0.276 NA 
HETATM   24  C   UNL     1     -12.884  13.912  71.447  1.00  0.00    -0.361 A  
HETATM   25  S   UNL     1     -12.652  15.561  71.037  1.00  0.00    -0.464 SA 
HETATM   26  H2  UNL     1     -13.657  14.282  73.304  1.00  0.00     0.000 HD 
HETATM   27  H1  UNL     1     -13.537  12.577  72.877  1.00  0.00     0.000 HD 
ENDBRANCH  19  20
BRANCH  19  28
HETATM   28  N   UNL     1     -12.227  13.127  67.174  1.00  0.00    -0.297 NA 
HETATM   29  H   UNL     1     -12.894  13.893  67.079  1.00  0.00     0.000 HD 
BRANCH  28  30
HETATM   30  O   UNL     1     -12.014  12.198  66.153  1.00  0.00    -0.593 OA 
BRANCH  30  31
HETATM   31  C   UNL     1     -12.529  12.743  64.934  1.00  0.00    -0.497 C  
HETATM   32  O   UNL     1     -12.633  14.959  63.941  1.00  0.00    -0.831 OA 
HETATM   33  C   UNL     1     -11.976  14.108  64.528  1.00  0.00    -0.458 C  
HETATM   34  O   UNL     1     -10.662  14.280  64.808  1.00  0.00    -0.407 OA 
ENDBRANCH  30  31
ENDBRANCH  28  30
ENDBRANCH  19  28
ENDBRANCH  17  19
ENDBRANCH   8  15
TORSDOF 7
ENDMDL
MODEL       21
REMARK 921   NORMALIZED FREE ENERGY PREDICTED BY IDOCK:   -6.54 KCAL/MOL
REMARK 922        TOTAL FREE ENERGY PREDICTED BY IDOCK:  -10.56 KCAL/MOL
REMARK 923 INTER-LIGAND FREE ENERGY PREDICTED BY IDOCK:   -8.79 KCAL/MOL
REMARK 924 INTRA-LIGAND FREE ENERGY PREDICTED BY IDOCK:   -1.78 KCAL/MOL
REMARK 927      BINDING AFFINITY PREDICTED BY RF-SCORE:    0.00 PKD
ROOT
HETATM    1  C   UNL     1      -9.140  10.664  67.222  1.00  0.00    -0.143 C  
HETATM    2  S   UNL     1      -9.453   9.502  65.895  1.00  0.00    -0.263 SA 
HETATM    3  CG2 UNL     1      -9.948  10.721  64.679  1.00  0.00    -0.324 C  
HETATM    4  CB  UNL     1     -10.816  11.879  65.161  1.00  0.00    -0.350 C  
HETATM    5  O   UNL     1     -11.170  11.721  69.586  1.00  0.00    -0.232 OA 
HETATM    6  CA  UNL     1     -10.941  12.237  66.475  1.00  0.00    -0.279 C  
HETATM    7  N   UNL     1     -10.309  11.499  67.443  1.00  0.00    -0.202 N  
HETATM    8  CA  UNL     1      -9.376  10.106  68.670  1.00  0.00    -0.161 C  
HETATM    9  C   UNL     1     -11.768  13.447  66.883  1.00  0.00    -0.389 C  
HETATM   10  C   UNL     1     -10.398  11.279  68.767  1.00  0.00    -0.205 C  
HETATM   11  OXT UNL     1     -11.954  14.411  66.155  1.00  0.00    -0.389 OA 
HETATM   12  O   UNL     1     -12.283  13.455  68.127  1.00  0.00    -0.284 OA 
ENDROOT
BRANCH   4  13
HETATM   13  CG1 UNL     1     -11.559  12.517  64.057  1.00  0.00    -0.485 C  
HETATM   14  CD1 UNL     1     -12.585  12.006  63.358  1.00  0.00    -0.592 C  
ENDBRANCH   4  13
BRANCH   8  15
HETATM   15  N   UNL     1     -10.006   8.754  68.830  1.00  0.00    -0.180 N  
HETATM   16  H   UNL     1     -11.022   8.676  68.887  1.00  0.00     0.000 HD 
HETATM   17  C   UNL     1      -9.231   7.616  68.899  1.00  0.00    -0.139 C  
HETATM   18  O   UNL     1      -8.009   7.648  68.937  1.00  0.00    -0.120 OA 
BRANCH  17  19
HETATM   19  C   UNL     1      -9.966   6.277  68.998  1.00  0.00    -0.146 C  
BRANCH  19  20
HETATM   20  C   UNL     1      -9.891   5.327  67.890  1.00  0.00    -0.149 A  
HETATM   21  N   UNL     1     -11.182   4.357  64.771  1.00  0.00    -0.973 NA 
HETATM   22  C   UNL     1      -8.994   4.279  67.798  1.00  0.00    -0.118 A  
HETATM   23  N   UNL     1     -10.758   5.431  66.800  1.00  0.00    -0.266 NA 
HETATM   24  C   UNL     1     -10.510   4.489  65.924  1.00  0.00    -0.226 A  
HETATM   25  S   UNL     1      -9.240   3.414  66.338  1.00  0.00    -0.145 SA 
HETATM   26  H2  UNL     1     -10.934   3.604  64.129  1.00  0.00     0.000 HD 
HETATM   27  H1  UNL     1     -11.938   4.996  64.525  1.00  0.00     0.000 HD 
ENDBRANCH  19  20
BRANCH  19  28
HETATM   28  N   UNL     1     -10.699   5.868  70.000  1.00  0.00    -0.298 NA 
HETATM   29  H   UNL     1     -10.416   5.090  70.596  1.00  0.00     0.000 HD 
BRANCH  28  30
HETATM   30  O   UNL     1     -11.893   6.564  70.206  1.00  0.00    -0.413 OA 
BRANCH  30  31
HETATM   31  C   UNL     1     -12.137   6.632  71.614  1.00  0.00    -0.355 C  
HETATM   32  O   UNL     1     -10.867   7.360  73.555  1.00  0.00    -0.379 OA 
HETATM   33  C   UNL     1     -11.229   7.573  72.403  1.00  0.00    -0.308 C  
HETATM   34  O   UNL     1     -10.907   8.714  71.749  1.00  0.00    -0.274 OA 
ENDBRANCH  30  31
ENDBRANCH  28  30
ENDBRANCH  19  28
ENDBRANCH  17  19
ENDBRANCH   8  15
TORSDOF 7
ENDMDL
MODEL       22
REMARK 921   NORMALIZED FREE ENERGY PREDICTED BY IDOCK:   -6.52 KCAL/MOL
REMARK 922        TOTAL FREE ENERGY PREDICTED BY IDOCK:  -10.53 KCAL/MOL
REMARK 923 INTER-LIGAND FREE ENERGY PREDICTED BY IDOCK:   -9.23 KCAL/MOL
REMARK 924 INTRA-LIGAND FREE ENERGY PREDICTED BY IDOCK:   -1.30 KCAL/MOL
REMARK 927      BINDING AFFINITY PREDICTED BY RF-SCORE:    0.00 PKD
ROOT
HETATM    1  C   UNL     1     -11.555  14.351  67.768  1.00  0.00    -0.356 C  
HETATM    2  S   UNL     1      -9.897  14.109  68.403  1.00  0.00    -0.231 SA 
HETATM    3  CG2 UNL     1      -9.339  15.791  68.138  1.00  0.00    -0.194 C  
HETATM    4  CB  UNL     1      -9.781  16.482  66.852  1.00  0.00    -0.259 C  
HETATM    5  O   UNL     1     -12.703  13.905  64.717  1.00  0.00    -0.650 OA 
HETATM    6  CA  UNL     1     -10.827  16.054  66.082  1.00  0.00    -0.179 C  
HETATM    7  N   UNL     1     -11.502  14.912  66.429  1.00  0.00    -0.321 N  
HETATM    8  CA  UNL     1     -12.213  13.084  67.115  1.00  0.00    -0.138 C  
HETATM    9  C   UNL     1     -11.261  16.829  64.848  1.00  0.00     0.022 C  
HETATM   10  C   UNL     1     -12.305  13.997  65.855  1.00  0.00    -0.486 C  
HETATM   11  OXT UNL     1     -11.094  18.033  64.715  1.00  0.00    -0.708 OA 
HETATM   12  O   UNL     1     -11.894  16.144  63.875  1.00  0.00    -0.921 OA 
ENDROOT
BRANCH   4  13
HETATM   13  CG1 UNL     1      -8.903  17.615  66.497  1.00  0.00    -0.287 C  
HETATM   14  CD1 UNL     1      -7.585  17.583  66.248  1.00  0.00    -0.343 C  
ENDBRANCH   4  13
BRANCH   8  15
HETATM   15  N   UNL     1     -11.369  11.861  66.902  1.00  0.00    -0.325 N  
HETATM   16  H   UNL     1     -10.771  11.800  66.077  1.00  0.00     0.000 HD 
HETATM   17  C   UNL     1     -11.392  10.820  67.805  1.00  0.00    -0.279 C  
HETATM   18  O   UNL     1     -12.159  10.785  68.757  1.00  0.00    -0.451 OA 
BRANCH  17  19
HETATM   19  C   UNL     1     -10.452   9.642  67.536  1.00  0.00    -0.262 C  
BRANCH  19  20
HETATM   20  C   UNL     1      -9.181   9.874  66.851  1.00  0.00    -0.147 A  
HETATM   21  N   UNL     1      -6.397  11.982  66.478  1.00  0.00    -0.464 NA 
HETATM   22  C   UNL     1      -8.616   9.029  65.913  1.00  0.00    -0.154 A  
HETATM   23  N   UNL     1      -8.421  11.013  67.123  1.00  0.00    -0.134 NA 
HETATM   24  C   UNL     1      -7.322  11.014  66.409  1.00  0.00    -0.128 A  
HETATM   25  S   UNL     1      -7.123   9.670  65.364  1.00  0.00    -0.105 SA 
HETATM   26  H2  UNL     1      -5.560  11.918  65.899  1.00  0.00     0.000 HD 
HETATM   27  H1  UNL     1      -6.516  12.781  67.100  1.00  0.00     0.000 HD 
ENDBRANCH  19  20
BRANCH  19  28
HETATM   28  N   UNL     1     -10.668   8.392  67.850  1.00  0.00    -0.461 NA 
HETATM   29  H   UNL     1     -11.140   7.749  67.216  1.00  0.00     0.000 HD 
BRANCH  28  30
HETATM   30  O   UNL     1     -10.211   7.993  69.108  1.00  0.00    -0.207 OA 
BRANCH  30  31
HETATM   31  C   UNL     1     -10.089   6.567  69.110  1.00  0.00    -0.168 C  
HETATM   32  O   UNL     1     -10.211   4.825  70.801  1.00  0.00    -0.225 OA 
HETATM   33  C   UNL     1     -10.683   5.849  70.321  1.00  0.00    -0.313 C  
HETATM   34  O   UNL     1     -11.830   6.398  70.784  1.00  0.00    -0.361 OA 
ENDBRANCH  30  31
ENDBRANCH  28  30
ENDBRANCH  19  28
ENDBRANCH  17  19
ENDBRANCH   8  15
TORSDOF 7
ENDMDL
MODEL       23
REMARK 921   NORMALIZED FREE ENERGY PREDICTED BY IDOCK:   -6.51 KCAL/MOL
REMARK 922        TOTAL FREE ENERGY PREDICTED BY IDOCK:  -10.52 KCAL/MOL
REMARK 923 INTER-LIGAND FREE ENERGY PREDICTED BY IDOCK:   -8.59 KCAL/MOL
REMARK 924 INTRA-LIGAND FREE ENERGY PREDICTED BY IDOCK:   -1.93 KCAL/MOL
REMARK 927      BINDING AFFINITY PREDICTED BY RF-SCORE:    0.00 PKD
ROOT
HETATM    1  C   UNL     1      -8.559  10.883  67.987  1.00  0.00    -0.131 C  
HETATM    2  S   UNL     1     -10.182  11.089  68.719  1.00  0.00    -0.199 SA 
HETATM    3  CG2 UNL     1     -10.526   9.343  68.926  1.00  0.00    -0.216 C  
HETATM    4  CB  UNL     1     -10.095   8.405  67.803  1.00  0.00    -0.263 C  
HETATM    5  O   UNL     1      -7.718  10.674  64.813  1.00  0.00    -0.052 OA 
HETATM    6  CA  UNL     1      -9.178   8.741  66.845  1.00  0.00    -0.156 C  
HETATM    7  N   UNL     1      -8.638  10.002  66.835  1.00  0.00    -0.125 N  
HETATM    8  CA  UNL     1      -8.130  12.011  66.983  1.00  0.00    -0.158 C  
HETATM    9  C   UNL     1      -8.739   7.735  65.793  1.00  0.00    -0.133 C  
HETATM   10  C   UNL     1      -8.012  10.827  65.976  1.00  0.00    -0.154 C  
HETATM   11  OXT UNL     1      -8.752   6.525  65.971  1.00  0.00    -0.144 OA 
HETATM   12  O   UNL     1      -8.281   8.220  64.623  1.00  0.00    -0.157 OA 
ENDROOT
BRANCH   4  13
HETATM   13  CG1 UNL     1     -10.837   7.129  67.825  1.00  0.00    -0.248 C  
HETATM   14  CD1 UNL     1     -11.020   6.307  68.870  1.00  0.00    -0.435 C  
ENDBRANCH   4  13
BRANCH   8  15
HETATM   15  N   UNL     1      -9.144  13.039  66.575  1.00  0.00    -0.407 N  
HETATM   16  H   UNL     1      -9.994  12.744  66.095  1.00  0.00     0.000 HD 
HETATM   17  C   UNL     1      -8.942  14.376  66.842  1.00  0.00    -0.243 C  
HETATM   18  O   UNL     1      -7.904  14.806  67.323  1.00  0.00    -0.188 OA 
BRANCH  17  19
HETATM   19  C   UNL     1     -10.061  15.343  66.444  1.00  0.00    -0.279 C  
BRANCH  19  20
HETATM   20  C   UNL     1      -9.977  16.747  66.841  1.00  0.00    -0.273 A  
HETATM   21  N   UNL     1      -9.174  20.024  65.864  1.00  0.00    -0.496 NA 
HETATM   22  C   UNL     1     -10.324  17.246  68.083  1.00  0.00    -0.357 A  
HETATM   23  N   UNL     1      -9.528  17.717  65.943  1.00  0.00    -0.526 NA 
HETATM   24  C   UNL     1      -9.542  18.903  66.501  1.00  0.00    -0.346 A  
HETATM   25  S   UNL     1     -10.081  18.943  68.129  1.00  0.00    -0.401 SA 
HETATM   26  H2  UNL     1      -9.216  20.917  66.356  1.00  0.00     0.000 HD 
HETATM   27  H1  UNL     1      -8.853  20.000  64.897  1.00  0.00     0.000 HD 
ENDBRANCH  19  20
BRANCH  19  28
HETATM   28  N   UNL     1     -11.139  15.043  65.770  1.00  0.00    -0.346 NA 
HETATM   29  H   UNL     1     -11.308  15.402  64.831  1.00  0.00     0.000 HD 
BRANCH  28  30
HETATM   30  O   UNL     1     -12.047  14.201  66.417  1.00  0.00    -0.422 OA 
BRANCH  30  31
HETATM   31  C   UNL     1     -12.910  13.627  65.429  1.00  0.00    -0.389 C  
HETATM   32  O   UNL     1     -12.623  12.769  63.173  1.00  0.00    -0.624 OA 
HETATM   33  C   UNL     1     -12.221  12.821  64.330  1.00  0.00    -0.425 C  
HETATM   34  O   UNL     1     -11.157  12.099  64.754  1.00  0.00    -0.299 OA 
ENDBRANCH  30  31
ENDBRANCH  28  30
ENDBRANCH  19  28
ENDBRANCH  17  19
ENDBRANCH   8  15
TORSDOF 7
ENDMDL
MODEL       24
REMARK 921   NORMALIZED FREE ENERGY PREDICTED BY IDOCK:   -6.48 KCAL/MOL
REMARK 922        TOTAL FREE ENERGY PREDICTED BY IDOCK:  -10.48 KCAL/MOL
REMARK 923 INTER-LIGAND FREE ENERGY PREDICTED BY IDOCK:   -8.77 KCAL/MOL
REMARK 924 INTRA-LIGAND FREE ENERGY PREDICTED BY IDOCK:   -1.71 KCAL/MOL
REMARK 927      BINDING AFFINITY PREDICTED BY RF-SCORE:    0.00 PKD
ROOT
HETATM    1  C   UNL     1      -8.878   8.005  69.160  1.00  0.00    -0.145 C  
HETATM    2  S   UNL     1      -8.204   9.524  69.831  1.00  0.00    -0.178 SA 
HETATM    3  CG2 UNL     1      -7.359   8.768  71.218  1.00  0.00    -0.098 C  
HETATM    4  CB  UNL     1      -8.079   7.637  71.946  1.00  0.00    -0.112 C  
HETATM    5  O   UNL     1     -11.788   6.585  69.739  1.00  0.00    -0.345 OA 
HETATM    6  CA  UNL     1      -9.131   6.942  71.414  1.00  0.00    -0.148 C  
HETATM    7  N   UNL     1      -9.624   7.294  70.184  1.00  0.00    -0.168 N  
HETATM    8  CA  UNL     1     -10.242   8.158  68.398  1.00  0.00    -0.209 C  
HETATM    9  C   UNL     1      -9.760   5.778  72.163  1.00  0.00    -0.152 C  
HETATM   10  C   UNL     1     -10.750   7.141  69.464  1.00  0.00    -0.239 C  
HETATM   11  OXT UNL     1      -9.152   5.089  72.969  1.00  0.00    -0.124 OA 
HETATM   12  O   UNL     1     -11.045   5.482  71.886  1.00  0.00    -0.237 OA 
ENDROOT
BRANCH   4  13
HETATM   13  CG1 UNL     1      -7.561   7.433  73.313  1.00  0.00    -0.109 C  
HETATM   14  CD1 UNL     1      -7.918   8.085  74.430  1.00  0.00    -0.299 C  
ENDBRANCH   4  13
BRANCH   8  15
HETATM   15  N   UNL     1     -10.954   9.478  68.448  1.00  0.00    -0.454 N  
HETATM   16  H   UNL     1     -11.552   9.696  69.246  1.00  0.00     0.000 HD 
HETATM   17  C   UNL     1     -10.811  10.398  67.432  1.00  0.00    -0.286 C  
HETATM   18  O   UNL     1     -10.192  10.159  66.405  1.00  0.00    -0.230 OA 
BRANCH  17  19
HETATM   19  C   UNL     1     -11.526  11.741  67.602  1.00  0.00    -0.300 C  
BRANCH  19  20
HETATM   20  C   UNL     1     -11.425  12.751  66.551  1.00  0.00    -0.355 A  
HETATM   21  N   UNL     1     -12.647  13.899  63.465  1.00  0.00    -0.991 NA 
HETATM   22  C   UNL     1     -10.556  13.827  66.560  1.00  0.00    -0.279 A  
HETATM   23  N   UNL     1     -12.246  12.693  65.423  1.00  0.00    -0.530 NA 
HETATM   24  C   UNL     1     -11.996  13.696  64.619  1.00  0.00    -0.407 A  
HETATM   25  S   UNL     1     -10.765  14.769  65.143  1.00  0.00    -0.443 SA 
HETATM   26  H2  UNL     1     -12.406  14.705  62.888  1.00  0.00     0.000 HD 
HETATM   27  H1  UNL     1     -13.379  13.260  63.153  1.00  0.00     0.000 HD 
ENDBRANCH  19  20
BRANCH  19  28
HETATM   28  N   UNL     1     -12.240  12.112  68.631  1.00  0.00    -0.210 NA 
HETATM   29  H   UNL     1     -13.227  12.354  68.547  1.00  0.00     0.000 HD 
BRANCH  28  30
HETATM   30  O   UNL     1     -11.568  12.159  69.854  1.00  0.00    -0.285 OA 
BRANCH  30  31
HETATM   31  C   UNL     1     -12.502  11.847  70.894  1.00  0.00    -0.300 C  
HETATM   32  O   UNL     1     -13.418   9.803  71.836  1.00  0.00    -0.402 OA 
HETATM   33  C   UNL     1     -12.437  10.423  71.442  1.00  0.00    -0.415 C  
HETATM   34  O   UNL     1     -11.185   9.916  71.527  1.00  0.00    -0.322 OA 
ENDBRANCH  30  31
ENDBRANCH  28  30
ENDBRANCH  19  28
ENDBRANCH  17  19
ENDBRANCH   8  15
TORSDOF 7
ENDMDL
MODEL       25
REMARK 921   NORMALIZED FREE ENERGY PREDICTED BY IDOCK:   -6.46 KCAL/MOL
REMARK 922        TOTAL FREE ENERGY PREDICTED BY IDOCK:  -10.46 KCAL/MOL
REMARK 923 INTER-LIGAND FREE ENERGY PREDICTED BY IDOCK:   -9.04 KCAL/MOL
REMARK 924 INTRA-LIGAND FREE ENERGY PREDICTED BY IDOCK:   -1.42 KCAL/MOL
REMARK 927      BINDING AFFINITY PREDICTED BY RF-SCORE:    0.00 PKD
ROOT
HETATM    1  C   UNL     1     -11.316  15.153  68.718  1.00  0.00    -0.300 C  
HETATM    2  S   UNL     1      -9.651  15.352  69.351  1.00  0.00    -0.257 SA 
HETATM    3  CG2 UNL     1      -9.257  16.821  68.405  1.00  0.00    -0.229 C  
HETATM    4  CB  UNL     1      -9.745  16.878  66.960  1.00  0.00    -0.255 C  
HETATM    5  O   UNL     1     -12.370  13.387  66.150  1.00  0.00    -0.415 OA 
HETATM    6  CA  UNL     1     -10.733  16.074  66.463  1.00  0.00    -0.238 C  
HETATM    7  N   UNL     1     -11.298  15.117  67.265  1.00  0.00    -0.330 N  
HETATM    8  CA  UNL     1     -11.837  13.673  68.659  1.00  0.00    -0.374 C  
HETATM    9  C   UNL     1     -11.223  16.229  65.031  1.00  0.00    -0.176 C  
HETATM   10  C   UNL     1     -11.999  13.975  67.139  1.00  0.00    -0.430 C  
HETATM   11  OXT UNL     1     -11.171  17.281  64.412  1.00  0.00    -1.082 OA 
HETATM   12  O   UNL     1     -11.771  15.148  64.442  1.00  0.00    -0.382 OA 
ENDROOT
BRANCH   4  13
HETATM   13  CG1 UNL     1      -8.977  17.843  66.149  1.00  0.00    -0.122 C  
HETATM   14  CD1 UNL     1      -8.197  18.843  66.586  1.00  0.00    -0.295 C  
ENDBRANCH   4  13
BRANCH   8  15
HETATM   15  N   UNL     1     -10.875  12.557  68.944  1.00  0.00    -0.331 N  
HETATM   16  H   UNL     1      -9.875  12.754  68.990  1.00  0.00     0.000 HD 
HETATM   17  C   UNL     1     -11.325  11.270  69.144  1.00  0.00    -0.282 C  
HETATM   18  O   UNL     1     -12.496  10.947  69.004  1.00  0.00    -0.425 OA 
BRANCH  17  19
HETATM   19  C   UNL     1     -10.275  10.210  69.490  1.00  0.00    -0.236 C  
BRANCH  19  20
HETATM   20  C   UNL     1      -9.588   9.495  68.416  1.00  0.00    -0.142 A  
HETATM   21  N   UNL     1      -9.333   8.950  64.956  1.00  0.00    -0.430 NA 
HETATM   22  C   UNL     1      -8.544   8.605  68.592  1.00  0.00    -0.131 A  
HETATM   23  N   UNL     1      -9.957   9.683  67.083  1.00  0.00    -0.182 NA 
HETATM   24  C   UNL     1      -9.208   8.956  66.291  1.00  0.00    -0.207 A  
HETATM   25  S   UNL     1      -8.024   7.995  67.076  1.00  0.00    -0.109 SA 
HETATM   26  H2  UNL     1      -8.712   8.364  64.397  1.00  0.00     0.000 HD 
HETATM   27  H1  UNL     1     -10.037   9.521  64.489  1.00  0.00     0.000 HD 
ENDBRANCH  19  20
BRANCH  19  28
HETATM   28  N   UNL     1      -9.913   9.843  70.691  1.00  0.00    -0.360 NA 
HETATM   29  H   UNL     1      -8.934   9.796  70.970  1.00  0.00     0.000 HD 
BRANCH  28  30
HETATM   30  O   UNL     1     -10.951   9.519  71.568  1.00  0.00    -0.364 OA 
BRANCH  30  31
HETATM   31  C   UNL     1     -10.818   8.142  71.933  1.00  0.00    -0.270 C  
HETATM   32  O   UNL     1      -8.968   6.578  72.131  1.00  0.00    -0.139 OA 
HETATM   33  C   UNL     1      -9.419   7.696  72.353  1.00  0.00    -0.165 C  
HETATM   34  O   UNL     1      -8.731   8.621  73.063  1.00  0.00    -0.380 OA 
ENDBRANCH  30  31
ENDBRANCH  28  30
ENDBRANCH  19  28
ENDBRANCH  17  19
ENDBRANCH   8  15
TORSDOF 7
ENDMDL
MODEL       26
REMARK 921   NORMALIZED FREE ENERGY PREDICTED BY IDOCK:   -6.43 KCAL/MOL
REMARK 922        TOTAL FREE ENERGY PREDICTED BY IDOCK:  -10.42 KCAL/MOL
REMARK 923 INTER-LIGAND FREE ENERGY PREDICTED BY IDOCK:   -8.69 KCAL/MOL
REMARK 924 INTRA-LIGAND FREE ENERGY PREDICTED BY IDOCK:   -1.72 KCAL/MOL
REMARK 927      BINDING AFFINITY PREDICTED BY RF-SCORE:    0.00 PKD
ROOT
HETATM    1  C   UNL     1      -8.988  11.404  67.107  1.00  0.00    -0.162 C  
HETATM    2  S   UNL     1      -9.651   9.881  66.433  1.00  0.00    -0.215 SA 
HETATM    3  CG2 UNL     1     -10.103  10.554  64.835  1.00  0.00    -0.333 C  
HETATM    4  CB  UNL     1     -10.707  11.955  64.809  1.00  0.00    -0.356 C  
HETATM    5  O   UNL     1     -10.500  13.729  68.877  1.00  0.00    -0.233 OA 
HETATM    6  CA  UNL     1     -10.602  12.845  65.843  1.00  0.00    -0.269 C  
HETATM    7  N   UNL     1      -9.972  12.468  67.002  1.00  0.00    -0.212 N  
HETATM    8  CA  UNL     1      -9.118  11.559  68.664  1.00  0.00    -0.120 C  
HETATM    9  C   UNL     1     -11.166  14.252  65.727  1.00  0.00    -0.317 C  
HETATM   10  C   UNL     1      -9.921  12.843  68.293  1.00  0.00    -0.234 C  
HETATM   11  OXT UNL     1     -11.292  14.841  64.663  1.00  0.00    -0.389 OA 
HETATM   12  O   UNL     1     -11.507  14.881  66.868  1.00  0.00    -0.351 OA 
ENDROOT
BRANCH   4  13
HETATM   13  CG1 UNL     1     -11.479  12.208  63.577  1.00  0.00    -0.544 C  
HETATM   14  CD1 UNL     1     -12.769  11.923  63.346  1.00  0.00    -0.496 C  
ENDBRANCH   4  13
BRANCH   8  15
HETATM   15  N   UNL     1      -9.927  10.551  69.425  1.00  0.00    -0.315 N  
HETATM   16  H   UNL     1     -10.937  10.510  69.288  1.00  0.00     0.000 HD 
HETATM   17  C   UNL     1      -9.324   9.680  70.306  1.00  0.00    -0.242 C  
HETATM   18  O   UNL     1      -8.136   9.742  70.591  1.00  0.00    -0.264 OA 
BRANCH  17  19
HETATM   19  C   UNL     1     -10.222   8.646  70.990  1.00  0.00    -0.220 C  
BRANCH  19  20
HETATM   20  C   UNL     1     -10.123   7.238  70.610  1.00  0.00    -0.194 A  
HETATM   21  N   UNL     1      -9.787   3.922  71.716  1.00  0.00    -0.176 NA 
HETATM   22  C   UNL     1     -10.173   6.757  69.314  1.00  0.00    -0.181 A  
HETATM   23  N   UNL     1      -9.973   6.245  71.580  1.00  0.00    -0.184 NA 
HETATM   24  C   UNL     1      -9.915   5.061  71.021  1.00  0.00    -0.211 A  
HETATM   25  S   UNL     1     -10.026   5.049  69.311  1.00  0.00    -0.195 SA 
HETATM   26  H2  UNL     1      -9.754   3.032  71.219  1.00  0.00     0.000 HD 
HETATM   27  H1  UNL     1      -9.720   3.929  72.734  1.00  0.00     0.000 HD 
ENDBRANCH  19  20
BRANCH  19  28
HETATM   28  N   UNL     1     -11.119   8.887  71.909  1.00  0.00    -0.358 NA 
HETATM   29  H   UNL     1     -10.877   9.311  72.804  1.00  0.00     0.000 HD 
BRANCH  28  30
HETATM   30  O   UNL     1     -12.431   8.529  71.589  1.00  0.00    -0.304 OA 
BRANCH  30  31
HETATM   31  C   UNL     1     -13.307   9.557  72.065  1.00  0.00    -0.452 C  
HETATM   32  O   UNL     1     -13.233  11.985  72.152  1.00  0.00    -0.495 OA 
HETATM   33  C   UNL     1     -13.053  10.957  71.509  1.00  0.00    -0.399 C  
HETATM   34  O   UNL     1     -12.678  10.980  70.208  1.00  0.00    -0.270 OA 
ENDBRANCH  30  31
ENDBRANCH  28  30
ENDBRANCH  19  28
ENDBRANCH  17  19
ENDBRANCH   8  15
TORSDOF 7
ENDMDL
MODEL       27
REMARK 921   NORMALIZED FREE ENERGY PREDICTED BY IDOCK:   -6.43 KCAL/MOL
REMARK 922        TOTAL FREE ENERGY PREDICTED BY IDOCK:  -10.42 KCAL/MOL
REMARK 923 INTER-LIGAND FREE ENERGY PREDICTED BY IDOCK:   -8.77 KCAL/MOL
REMARK 924 INTRA-LIGAND FREE ENERGY PREDICTED BY IDOCK:   -1.64 KCAL/MOL
REMARK 927      BINDING AFFINITY PREDICTED BY RF-SCORE:    0.00 PKD
ROOT
HETATM    1  C   UNL     1      -9.393  10.674  67.415  1.00  0.00    -0.143 C  
HETATM    2  S   UNL     1      -9.790   9.471  66.148  1.00  0.00    -0.271 SA 
HETATM    3  CG2 UNL     1     -10.122  10.658  64.848  1.00  0.00    -0.335 C  
HETATM    4  CB  UNL     1     -10.877  11.927  65.233  1.00  0.00    -0.347 C  
HETATM    5  O   UNL     1     -11.363  12.075  69.647  1.00  0.00    -0.247 OA 
HETATM    6  CA  UNL     1     -10.999  12.375  66.521  1.00  0.00    -0.272 C  
HETATM    7  N   UNL     1     -10.474  11.636  67.549  1.00  0.00    -0.195 N  
HETATM    8  CA  UNL     1      -9.724  10.232  68.885  1.00  0.00    -0.189 C  
HETATM    9  C   UNL     1     -11.705  13.686  66.831  1.00  0.00    -0.389 C  
HETATM   10  C   UNL     1     -10.620  11.507  68.880  1.00  0.00    -0.204 C  
HETATM   11  OXT UNL     1     -11.770  14.618  66.042  1.00  0.00    -0.359 OA 
HETATM   12  O   UNL     1     -12.250  13.823  68.055  1.00  0.00    -0.323 OA 
ENDROOT
BRANCH   4  13
HETATM   13  CG1 UNL     1     -11.520  12.570  64.071  1.00  0.00    -0.476 C  
HETATM   14  CD1 UNL     1     -12.408  12.028  63.224  1.00  0.00    -0.553 C  
ENDBRANCH   4  13
BRANCH   8  15
HETATM   15  N   UNL     1     -10.496   8.964  69.101  1.00  0.00    -0.227 N  
HETATM   16  H   UNL     1     -11.511   8.967  68.989  1.00  0.00     0.000 HD 
HETATM   17  C   UNL     1      -9.854   7.795  69.449  1.00  0.00    -0.176 C  
HETATM   18  O   UNL     1      -8.657   7.745  69.696  1.00  0.00    -0.132 OA 
BRANCH  17  19
HETATM   19  C   UNL     1     -10.718   6.538  69.586  1.00  0.00    -0.269 C  
BRANCH  19  20
HETATM   20  C   UNL     1     -10.148   5.231  69.269  1.00  0.00    -0.230 A  
HETATM   21  N   UNL     1      -9.170   2.998  66.740  1.00  0.00    -0.262 NA 
HETATM   22  C   UNL     1      -9.719   4.301  70.198  1.00  0.00    -0.212 A  
HETATM   23  N   UNL     1      -9.987   4.825  67.942  1.00  0.00    -0.133 NA 
HETATM   24  C   UNL     1      -9.452   3.630  67.888  1.00  0.00    -0.169 A  
HETATM   25  S   UNL     1      -9.114   2.907  69.406  1.00  0.00    -0.142 SA 
HETATM   26  H2  UNL     1      -8.748   2.070  66.769  1.00  0.00     0.000 HD 
HETATM   27  H1  UNL     1      -9.372   3.428  65.838  1.00  0.00     0.000 HD 
ENDBRANCH  19  20
BRANCH  19  28
HETATM   28  N   UNL     1     -11.970   6.497  69.960  1.00  0.00    -0.567 NA 
HETATM   29  H   UNL     1     -12.732   6.401  69.290  1.00  0.00     0.000 HD 
BRANCH  28  30
HETATM   30  O   UNL     1     -12.198   6.594  71.334  1.00  0.00    -0.347 OA 
BRANCH  30  31
HETATM   31  C   UNL     1     -13.484   7.190  71.536  1.00  0.00    -0.332 C  
HETATM   32  O   UNL     1     -14.301   9.209  72.615  1.00  0.00    -0.561 OA 
HETATM   33  C   UNL     1     -13.481   8.680  71.874  1.00  0.00    -0.397 C  
HETATM   34  O   UNL     1     -12.533   9.395  71.225  1.00  0.00    -0.316 OA 
ENDBRANCH  30  31
ENDBRANCH  28  30
ENDBRANCH  19  28
ENDBRANCH  17  19
ENDBRANCH   8  15
TORSDOF 7
ENDMDL
MODEL       28
REMARK 921   NORMALIZED FREE ENERGY PREDICTED BY IDOCK:   -6.38 KCAL/MOL
REMARK 922        TOTAL FREE ENERGY PREDICTED BY IDOCK:  -10.34 KCAL/MOL
REMARK 923 INTER-LIGAND FREE ENERGY PREDICTED BY IDOCK:   -9.03 KCAL/MOL
REMARK 924 INTRA-LIGAND FREE ENERGY PREDICTED BY IDOCK:   -1.32 KCAL/MOL
REMARK 927      BINDING AFFINITY PREDICTED BY RF-SCORE:    0.00 PKD
ROOT
HETATM    1  C   UNL     1     -11.854  14.666  68.555  1.00  0.00    -0.311 C  
HETATM    2  S   UNL     1     -10.506  15.391  69.486  1.00  0.00    -0.278 SA 
HETATM    3  CG2 UNL     1     -10.378  16.889  68.513  1.00  0.00    -0.336 C  
HETATM    4  CB  UNL     1     -10.536  16.759  67.001  1.00  0.00    -0.285 C  
HETATM    5  O   UNL     1     -11.742  12.604  65.993  1.00  0.00    -0.373 OA 
HETATM    6  CA  UNL     1     -11.102  15.675  66.389  1.00  0.00    -0.123 C  
HETATM    7  N   UNL     1     -11.512  14.606  67.144  1.00  0.00    -0.357 N  
HETATM    8  CA  UNL     1     -11.877  13.096  68.524  1.00  0.00    -0.342 C  
HETATM    9  C   UNL     1     -11.294  15.637  64.880  1.00  0.00    -0.315 C  
HETATM   10  C   UNL     1     -11.790  13.300  66.981  1.00  0.00    -0.390 C  
HETATM   11  OXT UNL     1     -11.430  16.640  64.194  1.00  0.00    -1.131 OA 
HETATM   12  O   UNL     1     -11.348  14.427  64.291  1.00  0.00    -0.286 OA 
ENDROOT
BRANCH   4  13
HETATM   13  CG1 UNL     1      -9.939  17.898  66.277  1.00  0.00    -0.333 C  
HETATM   14  CD1 UNL     1      -9.670  19.122  66.756  1.00  0.00    -0.396 C  
ENDBRANCH   4  13
BRANCH   8  15
HETATM   15  N   UNL     1     -10.709  12.345  69.091  1.00  0.00    -0.433 N  
HETATM   16  H   UNL     1      -9.974  12.854  69.582  1.00  0.00     0.000 HD 
HETATM   17  C   UNL     1     -10.616  10.976  68.958  1.00  0.00    -0.225 C  
HETATM   18  O   UNL     1     -11.408  10.319  68.297  1.00  0.00    -0.266 OA 
BRANCH  17  19
HETATM   19  C   UNL     1      -9.420  10.290  69.623  1.00  0.00    -0.151 C  
BRANCH  19  20
HETATM   20  C   UNL     1      -8.066  10.595  69.167  1.00  0.00    -0.141 A  
HETATM   21  N   UNL     1      -6.066  11.876  66.580  1.00  0.00    -0.478 NA 
HETATM   22  C   UNL     1      -6.912  10.392  69.902  1.00  0.00    -0.149 A  
HETATM   23  N   UNL     1      -7.845  11.144  67.902  1.00  0.00    -0.108 NA 
HETATM   24  C   UNL     1      -6.565  11.344  67.705  1.00  0.00    -0.074 A  
HETATM   25  S   UNL     1      -5.540  10.887  69.001  1.00  0.00    -0.040 SA 
HETATM   26  H2  UNL     1      -5.059  12.011  66.493  1.00  0.00     0.000 HD 
HETATM   27  H1  UNL     1      -6.676  12.148  65.808  1.00  0.00     0.000 HD 
ENDBRANCH  19  20
BRANCH  19  28
HETATM   28  N   UNL     1      -9.471   9.412  70.590  1.00  0.00    -0.266 NA 
HETATM   29  H   UNL     1      -8.745   8.708  70.721  1.00  0.00     0.000 HD 
BRANCH  28  30
HETATM   30  O   UNL     1     -10.583   9.497  71.432  1.00  0.00    -0.336 OA 
BRANCH  30  31
HETATM   31  C   UNL     1     -10.574   8.363  72.305  1.00  0.00    -0.342 C  
HETATM   32  O   UNL     1      -8.943   6.668  72.918  1.00  0.00    -0.129 OA 
HETATM   33  C   UNL     1      -9.195   7.851  72.717  1.00  0.00    -0.221 C  
HETATM   34  O   UNL     1      -8.277   8.825  72.917  1.00  0.00    -0.410 OA 
ENDBRANCH  30  31
ENDBRANCH  28  30
ENDBRANCH  19  28
ENDBRANCH  17  19
ENDBRANCH   8  15
TORSDOF 7
ENDMDL
MODEL       29
REMARK 921   NORMALIZED FREE ENERGY PREDICTED BY IDOCK:   -6.36 KCAL/MOL
REMARK 922        TOTAL FREE ENERGY PREDICTED BY IDOCK:  -10.31 KCAL/MOL
REMARK 923 INTER-LIGAND FREE ENERGY PREDICTED BY IDOCK:   -9.09 KCAL/MOL
REMARK 924 INTRA-LIGAND FREE ENERGY PREDICTED BY IDOCK:   -1.23 KCAL/MOL
REMARK 927      BINDING AFFINITY PREDICTED BY RF-SCORE:    0.00 PKD
ROOT
HETATM    1  C   UNL     1      -9.204   9.491  69.140  1.00  0.00    -0.163 C  
HETATM    2  S   UNL     1     -10.179  10.063  70.531  1.00  0.00     0.042 SA 
HETATM    3  CG2 UNL     1     -10.469   8.445  71.244  1.00  0.00    -0.216 C  
HETATM    4  CB  UNL     1     -10.755   7.295  70.283  1.00  0.00    -0.252 C  
HETATM    5  O   UNL     1     -10.181   8.687  66.103  1.00  0.00    -0.210 OA 
HETATM    6  CA  UNL     1     -10.463   7.334  68.947  1.00  0.00    -0.206 C  
HETATM    7  N   UNL     1      -9.934   8.475  68.401  1.00  0.00    -0.181 N  
HETATM    8  CA  UNL     1      -9.301  10.375  67.847  1.00  0.00    -0.138 C  
HETATM    9  C   UNL     1     -10.709   6.127  68.055  1.00  0.00    -0.295 C  
HETATM   10  C   UNL     1      -9.806   9.053  67.193  1.00  0.00    -0.203 C  
HETATM   11  OXT UNL     1     -10.701   4.975  68.465  1.00  0.00     0.047 OA 
HETATM   12  O   UNL     1     -10.909   6.355  66.743  1.00  0.00    -0.326 OA 
ENDROOT
BRANCH   4  13
HETATM   13  CG1 UNL     1     -11.450   6.174  70.944  1.00  0.00    -0.317 C  
HETATM   14  CD1 UNL     1     -11.698   6.022  72.254  1.00  0.00    -0.338 C  
ENDBRANCH   4  13
BRANCH   8  15
HETATM   15  N   UNL     1     -10.312  11.484  67.804  1.00  0.00    -0.179 N  
HETATM   16  H   UNL     1     -11.297  11.261  67.662  1.00  0.00     0.000 HD 
HETATM   17  C   UNL     1      -9.926  12.798  67.954  1.00  0.00    -0.229 C  
HETATM   18  O   UNL     1      -8.755  13.141  68.027  1.00  0.00    -0.173 OA 
BRANCH  17  19
HETATM   19  C   UNL     1     -11.035  13.854  67.959  1.00  0.00    -0.251 C  
BRANCH  19  20
HETATM   20  C   UNL     1     -10.916  15.032  67.102  1.00  0.00    -0.329 A  
HETATM   21  N   UNL     1     -11.353  16.370  63.884  1.00  0.00    -1.535 NA 
HETATM   22  C   UNL     1     -10.478  16.277  67.515  1.00  0.00    -0.302 A  
HETATM   23  N   UNL     1     -11.261  14.970  65.750  1.00  0.00    -0.337 NA 
HETATM   24  C   UNL     1     -11.087  16.135  65.177  1.00  0.00    -0.249 A  
HETATM   25  S   UNL     1     -10.494  17.377  66.200  1.00  0.00    -0.208 SA 
HETATM   26  H2  UNL     1     -11.200  17.303  63.502  1.00  0.00     0.000 HD 
HETATM   27  H1  UNL     1     -11.705  15.631  63.276  1.00  0.00     0.000 HD 
ENDBRANCH  19  20
BRANCH  19  28
HETATM   28  N   UNL     1     -12.123  13.831  68.683  1.00  0.00    -0.414 NA 
HETATM   29  H   UNL     1     -12.990  14.268  68.373  1.00  0.00     0.000 HD 
BRANCH  28  30
HETATM   30  O   UNL     1     -12.024  13.169  69.909  1.00  0.00    -0.317 OA 
BRANCH  30  31
HETATM   31  C   UNL     1     -12.271  14.117  70.953  1.00  0.00    -0.363 C  
HETATM   32  O   UNL     1     -14.080  14.523  72.524  1.00  0.00    -0.478 OA 
HETATM   33  C   UNL     1     -13.336  13.720  71.974  1.00  0.00    -0.447 C  
HETATM   34  O   UNL     1     -13.345  12.402  72.284  1.00  0.00    -0.522 OA 
ENDBRANCH  30  31
ENDBRANCH  28  30
ENDBRANCH  19  28
ENDBRANCH  17  19
ENDBRANCH   8  15
TORSDOF 7
ENDMDL
MODEL       30
REMARK 921   NORMALIZED FREE ENERGY PREDICTED BY IDOCK:   -6.30 KCAL/MOL
REMARK 922        TOTAL FREE ENERGY PREDICTED BY IDOCK:  -10.23 KCAL/MOL
REMARK 923 INTER-LIGAND FREE ENERGY PREDICTED BY IDOCK:   -8.42 KCAL/MOL
REMARK 924 INTRA-LIGAND FREE ENERGY PREDICTED BY IDOCK:   -1.81 KCAL/MOL
REMARK 927      BINDING AFFINITY PREDICTED BY RF-SCORE:    0.00 PKD
ROOT
HETATM    1  C   UNL     1     -11.304  13.753  67.791  1.00  0.00    -0.303 C  
HETATM    2  S   UNL     1      -9.570  13.627  68.224  1.00  0.00    -0.204 SA 
HETATM    3  CG2 UNL     1      -9.120  15.284  67.710  1.00  0.00    -0.182 C  
HETATM    4  CB  UNL     1      -9.750  15.816  66.427  1.00  0.00    -0.305 C  
HETATM    5  O   UNL     1     -12.813  12.942  64.982  1.00  0.00    -0.699 OA 
HETATM    6  CA  UNL     1     -10.868  15.277  65.851  1.00  0.00    -0.342 C  
HETATM    7  N   UNL     1     -11.446  14.163  66.404  1.00  0.00    -0.341 N  
HETATM    8  CA  UNL     1     -11.988  12.404  67.368  1.00  0.00    -0.175 C  
HETATM    9  C   UNL     1     -11.487  15.899  64.609  1.00  0.00    -0.263 C  
HETATM   10  C   UNL     1     -12.277  13.170  66.041  1.00  0.00    -0.414 C  
HETATM   11  OXT UNL     1     -11.387  17.084  64.329  1.00  0.00    -1.191 OA 
HETATM   12  O   UNL     1     -12.210  15.094  63.807  1.00  0.00    -0.517 OA 
ENDROOT
BRANCH   4  13
HETATM   13  CG1 UNL     1      -8.972  16.925  65.841  1.00  0.00    -0.075 C  
HETATM   14  CD1 UNL     1      -8.307  17.892  66.491  1.00  0.00    -0.290 C  
ENDBRANCH   4  13
BRANCH   8  15
HETATM   15  N   UNL     1     -11.130  11.188  67.178  1.00  0.00    -0.295 N  
HETATM   16  H   UNL     1     -10.677  11.028  66.277  1.00  0.00     0.000 HD 
HETATM   17  C   UNL     1     -10.945  10.286  68.202  1.00  0.00    -0.274 C  
HETATM   18  O   UNL     1     -11.537  10.365  69.270  1.00  0.00    -0.234 OA 
BRANCH  17  19
HETATM   19  C   UNL     1     -10.003   9.109  67.934  1.00  0.00    -0.186 C  
BRANCH  19  20
HETATM   20  C   UNL     1      -9.716   8.154  69.003  1.00  0.00    -0.163 A  
HETATM   21  N   UNL     1     -10.748   5.254  70.693  1.00  0.00    -0.191 NA 
HETATM   22  C   UNL     1      -8.611   8.196  69.833  1.00  0.00    -0.130 A  
HETATM   23  N   UNL     1     -10.579   7.086  69.256  1.00  0.00    -0.217 NA 
HETATM   24  C   UNL     1     -10.127   6.354  70.245  1.00  0.00    -0.181 A  
HETATM   25  S   UNL     1      -8.655   6.890  70.943  1.00  0.00    -0.137 SA 
HETATM   26  H2  UNL     1     -10.338   4.726  71.464  1.00  0.00     0.000 HD 
HETATM   27  H1  UNL     1     -11.624   4.936  70.278  1.00  0.00     0.000 HD 
ENDBRANCH  19  20
BRANCH  19  28
HETATM   28  N   UNL     1      -9.385   8.853  66.811  1.00  0.00    -0.163 NA 
HETATM   29  H   UNL     1      -9.680   8.100  66.190  1.00  0.00     0.000 HD 
BRANCH  28  30
HETATM   30  O   UNL     1      -8.295   9.675  66.515  1.00  0.00    -0.118 OA 
BRANCH  30  31
HETATM   31  C   UNL     1      -8.010   9.558  65.117  1.00  0.00    -0.117 C  
HETATM   32  O   UNL     1      -9.327   9.616  63.075  1.00  0.00    -0.226 OA 
HETATM   33  C   UNL     1      -9.079  10.104  64.172  1.00  0.00    -0.251 C  
HETATM   34  O   UNL     1      -9.689  11.229  64.613  1.00  0.00    -0.236 OA 
ENDBRANCH  30  31
ENDBRANCH  28  30
ENDBRANCH  19  28
ENDBRANCH  17  19
ENDBRANCH   8  15
TORSDOF 7
ENDMDL
MODEL       31
REMARK 921   NORMALIZED FREE ENERGY PREDICTED BY IDOCK:   -6.27 KCAL/MOL
REMARK 922        TOTAL FREE ENERGY PREDICTED BY IDOCK:  -10.19 KCAL/MOL
REMARK 923 INTER-LIGAND FREE ENERGY PREDICTED BY IDOCK:   -8.91 KCAL/MOL
REMARK 924 INTRA-LIGAND FREE ENERGY PREDICTED BY IDOCK:   -1.28 KCAL/MOL
REMARK 927      BINDING AFFINITY PREDICTED BY RF-SCORE:    0.00 PKD
ROOT
HETATM    1  C   UNL     1      -8.644  12.204  66.908  1.00  0.00    -0.191 C  
HETATM    2  S   UNL     1      -7.405  12.782  68.066  1.00  0.00    -0.134 SA 
HETATM    3  CG2 UNL     1      -6.534  11.224  68.215  1.00  0.00    -0.056 C  
HETATM    4  CB  UNL     1      -7.376   9.952  68.269  1.00  0.00    -0.079 C  
HETATM    5  O   UNL     1     -11.633  10.964  67.504  1.00  0.00    -0.526 OA 
HETATM    6  CA  UNL     1      -8.682   9.890  67.866  1.00  0.00    -0.129 C  
HETATM    7  N   UNL     1      -9.314  11.028  67.437  1.00  0.00    -0.155 N  
HETATM    8  CA  UNL     1     -10.035  12.928  67.000  1.00  0.00    -0.244 C  
HETATM    9  C   UNL     1      -9.444   8.574  67.880  1.00  0.00    -0.139 C  
HETATM   10  C   UNL     1     -10.568  11.489  67.276  1.00  0.00    -0.228 C  
HETATM   11  OXT UNL     1      -8.906   7.483  67.765  1.00  0.00    -0.132 OA 
HETATM   12  O   UNL     1     -10.785   8.635  67.989  1.00  0.00    -0.181 OA 
ENDROOT
BRANCH   4  13
HETATM   13  CG1 UNL     1      -6.643   8.823  68.874  1.00  0.00    -0.053 C  
HETATM   14  CD1 UNL     1      -5.373   8.455  68.647  1.00  0.00    -0.036 C  
ENDBRANCH   4  13
BRANCH   8  15
HETATM   15  N   UNL     1     -10.280  13.880  68.133  1.00  0.00    -0.242 N  
HETATM   16  H   UNL     1      -9.574  13.988  68.862  1.00  0.00     0.000 HD 
HETATM   17  C   UNL     1     -11.446  14.612  68.202  1.00  0.00    -0.323 C  
HETATM   18  O   UNL     1     -12.373  14.457  67.419  1.00  0.00    -0.300 OA 
BRANCH  17  19
HETATM   19  C   UNL     1     -11.580  15.603  69.361  1.00  0.00    -0.370 C  
BRANCH  19  20
HETATM   20  C   UNL     1     -12.248  15.190  70.593  1.00  0.00    -0.351 A  
HETATM   21  N   UNL     1     -13.251  16.108  73.831  1.00  0.00    -0.930 NA 
HETATM   22  C   UNL     1     -12.831  13.955  70.807  1.00  0.00    -0.259 A  
HETATM   23  N   UNL     1     -12.351  16.064  71.677  1.00  0.00    -0.457 NA 
HETATM   24  C   UNL     1     -12.994  15.495  72.667  1.00  0.00    -0.445 A  
HETATM   25  S   UNL     1     -13.509  13.885  72.381  1.00  0.00    -0.594 SA 
HETATM   26  H2  UNL     1     -13.762  15.609  74.559  1.00  0.00     0.000 HD 
HETATM   27  H1  UNL     1     -12.943  17.066  74.002  1.00  0.00     0.000 HD 
ENDBRANCH  19  20
BRANCH  19  28
HETATM   28  N   UNL     1     -11.156  16.840  69.374  1.00  0.00    -0.321 NA 
HETATM   29  H   UNL     1     -11.477  17.515  70.067  1.00  0.00     0.000 HD 
BRANCH  28  30
HETATM   30  O   UNL     1     -10.237  17.179  68.378  1.00  0.00    -0.297 OA 
BRANCH  30  31
HETATM   31  C   UNL     1     -10.760  18.291  67.644  1.00  0.00    -0.348 C  
HETATM   32  O   UNL     1     -10.247  19.351  65.518  1.00  0.00    -0.419 OA 
HETATM   33  C   UNL     1     -10.429  18.319  66.153  1.00  0.00    -0.383 C  
HETATM   34  O   UNL     1     -10.424  17.101  65.562  1.00  0.00    -0.593 OA 
ENDBRANCH  30  31
ENDBRANCH  28  30
ENDBRANCH  19  28
ENDBRANCH  17  19
ENDBRANCH   8  15
TORSDOF 7
ENDMDL
MODEL       32
REMARK 921   NORMALIZED FREE ENERGY PREDICTED BY IDOCK:   -6.27 KCAL/MOL
REMARK 922        TOTAL FREE ENERGY PREDICTED BY IDOCK:  -10.19 KCAL/MOL
REMARK 923 INTER-LIGAND FREE ENERGY PREDICTED BY IDOCK:   -8.59 KCAL/MOL
REMARK 924 INTRA-LIGAND FREE ENERGY PREDICTED BY IDOCK:   -1.60 KCAL/MOL
REMARK 927      BINDING AFFINITY PREDICTED BY RF-SCORE:    0.00 PKD
ROOT
HETATM    1  C   UNL     1      -8.799  11.242  66.844  1.00  0.00    -0.165 C  
HETATM    2  S   UNL     1      -9.603   9.819  66.110  1.00  0.00    -0.247 SA 
HETATM    3  CG2 UNL     1     -10.083  10.629  64.586  1.00  0.00    -0.349 C  
HETATM    4  CB  UNL     1     -10.585  12.067  64.684  1.00  0.00    -0.351 C  
HETATM    5  O   UNL     1     -10.050  13.538  68.842  1.00  0.00    -0.151 OA 
HETATM    6  CA  UNL     1     -10.365  12.874  65.767  1.00  0.00    -0.284 C  
HETATM    7  N   UNL     1      -9.708  12.376  66.862  1.00  0.00    -0.210 N  
HETATM    8  CA  UNL     1      -8.840  11.298  68.413  1.00  0.00    -0.159 C  
HETATM    9  C   UNL     1     -10.831  14.321  65.772  1.00  0.00    -0.303 C  
HETATM   10  C   UNL     1      -9.566  12.657  68.170  1.00  0.00    -0.219 C  
HETATM   11  OXT UNL     1     -10.967  14.989  64.758  1.00  0.00    -0.392 OA 
HETATM   12  O   UNL     1     -11.069  14.892  66.969  1.00  0.00    -0.323 OA 
ENDROOT
BRANCH   4  13
HETATM   13  CG1 UNL     1     -11.396  12.457  63.514  1.00  0.00    -0.553 C  
HETATM   14  CD1 UNL     1     -12.646  12.069  63.219  1.00  0.00    -0.512 C  
ENDBRANCH   4  13
BRANCH   8  15
HETATM   15  N   UNL     1      -9.682  10.298  69.150  1.00  0.00    -0.207 N  
HETATM   16  H   UNL     1     -10.652  10.151  68.868  1.00  0.00     0.000 HD 
HETATM   17  C   UNL     1      -9.162   9.575  70.201  1.00  0.00    -0.244 C  
HETATM   18  O   UNL     1      -8.043   9.773  70.653  1.00  0.00    -0.264 OA 
BRANCH  17  19
HETATM   19  C   UNL     1     -10.077   8.533  70.851  1.00  0.00    -0.201 C  
BRANCH  19  20
HETATM   20  C   UNL     1     -11.401   8.930  71.327  1.00  0.00    -0.300 A  
HETATM   21  N   UNL     1     -13.593  11.588  72.010  1.00  0.00    -0.346 NA 
HETATM   22  C   UNL     1     -12.400   8.059  71.722  1.00  0.00    -0.319 A  
HETATM   23  N   UNL     1     -11.757  10.278  71.407  1.00  0.00    -0.302 NA 
HETATM   24  C   UNL     1     -12.984  10.404  71.847  1.00  0.00    -0.450 A  
HETATM   25  S   UNL     1     -13.793   8.935  72.202  1.00  0.00    -0.468 SA 
HETATM   26  H2  UNL     1     -14.554  11.615  72.351  1.00  0.00     0.000 HD 
HETATM   27  H1  UNL     1     -13.111  12.462  71.799  1.00  0.00     0.000 HD 
ENDBRANCH  19  20
BRANCH  19  28
HETATM   28  N   UNL     1      -9.795   7.273  71.052  1.00  0.00    -0.183 NA 
HETATM   29  H   UNL     1      -9.944   6.822  71.953  1.00  0.00     0.000 HD 
BRANCH  28  30
HETATM   30  O   UNL     1      -9.275   6.583  69.954  1.00  0.00    -0.148 OA 
BRANCH  30  31
HETATM   31  C   UNL     1     -10.369   6.076  69.182  1.00  0.00    -0.229 C  
HETATM   32  O   UNL     1     -11.271   6.517  66.969  1.00  0.00    -0.397 OA 
HETATM   33  C   UNL     1     -10.290   6.319  67.676  1.00  0.00    -0.195 C  
HETATM   34  O   UNL     1      -9.041   6.226  67.163  1.00  0.00    -0.117 OA 
ENDBRANCH  30  31
ENDBRANCH  28  30
ENDBRANCH  19  28
ENDBRANCH  17  19
ENDBRANCH   8  15
TORSDOF 7
ENDMDL
MODEL       33
REMARK 921   NORMALIZED FREE ENERGY PREDICTED BY IDOCK:   -6.25 KCAL/MOL
REMARK 922        TOTAL FREE ENERGY PREDICTED BY IDOCK:  -10.16 KCAL/MOL
REMARK 923 INTER-LIGAND FREE ENERGY PREDICTED BY IDOCK:   -8.97 KCAL/MOL
REMARK 924 INTRA-LIGAND FREE ENERGY PREDICTED BY IDOCK:   -1.19 KCAL/MOL
REMARK 927      BINDING AFFINITY PREDICTED BY RF-SCORE:    0.00 PKD
ROOT
HETATM    1  C   UNL     1     -10.309  14.468  67.732  1.00  0.00    -0.237 C  
HETATM    2  S   UNL     1     -10.861  15.448  69.127  1.00  0.00    -0.268 SA 
HETATM    3  CG2 UNL     1      -9.753  16.828  68.848  1.00  0.00    -0.257 C  
HETATM    4  CB  UNL     1      -8.328  16.506  68.409  1.00  0.00    -0.200 C  
HETATM    5  O   UNL     1      -7.979  12.150  67.609  1.00  0.00    -0.136 OA 
HETATM    6  CA  UNL     1      -7.951  15.299  67.885  1.00  0.00    -0.137 C  
HETATM    7  N   UNL     1      -8.869  14.285  67.788  1.00  0.00    -0.176 N  
HETATM    8  CA  UNL     1     -10.425  12.914  67.919  1.00  0.00    -0.224 C  
HETATM    9  C   UNL     1      -6.529  15.065  67.401  1.00  0.00     0.016 C  
HETATM   10  C   UNL     1      -8.887  12.946  67.665  1.00  0.00    -0.187 C  
HETATM   11  OXT UNL     1      -5.801  15.958  66.993  1.00  0.00    -0.329 OA 
HETATM   12  O   UNL     1      -6.076  13.796  67.396  1.00  0.00    -0.344 OA 
ENDROOT
BRANCH   4  13
HETATM   13  CG1 UNL     1      -7.394  17.614  68.685  1.00  0.00    -0.257 C  
HETATM   14  CD1 UNL     1      -6.524  17.718  69.702  1.00  0.00    -0.130 C  
ENDBRANCH   4  13
BRANCH   8  15
HETATM   15  N   UNL     1     -10.793  12.374  69.270  1.00  0.00    -0.444 N  
HETATM   16  H   UNL     1     -10.284  12.693  70.095  1.00  0.00     0.000 HD 
HETATM   17  C   UNL     1     -11.809  11.454  69.411  1.00  0.00    -0.351 C  
HETATM   18  O   UNL     1     -12.390  10.956  68.457  1.00  0.00    -0.490 OA 
BRANCH  17  19
HETATM   19  C   UNL     1     -12.154  11.008  70.835  1.00  0.00    -0.339 C  
BRANCH  19  20
HETATM   20  C   UNL     1     -11.543   9.798  71.381  1.00  0.00    -0.378 A  
HETATM   21  N   UNL     1      -8.613   7.891  71.718  1.00  0.00    -0.112 NA 
HETATM   22  C   UNL     1     -12.200   8.848  72.142  1.00  0.00    -0.367 A  
HETATM   23  N   UNL     1     -10.192   9.520  71.165  1.00  0.00    -0.283 NA 
HETATM   24  C   UNL     1      -9.855   8.396  71.749  1.00  0.00    -0.243 A  
HETATM   25  S   UNL     1     -11.118   7.593  72.585  1.00  0.00    -0.383 SA 
HETATM   26  H2  UNL     1      -8.416   7.014  72.200  1.00  0.00     0.000 HD 
HETATM   27  H1  UNL     1      -7.862   8.369  71.220  1.00  0.00     0.000 HD 
ENDBRANCH  19  20
BRANCH  19  28
HETATM   28  N   UNL     1     -12.980  11.605  71.653  1.00  0.00    -0.427 NA 
HETATM   29  H   UNL     1     -13.293  11.167  72.519  1.00  0.00     0.000 HD 
BRANCH  28  30
HETATM   30  O   UNL     1     -13.406  12.877  71.268  1.00  0.00    -0.165 OA 
BRANCH  30  31
HETATM   31  C   UNL     1     -13.675  13.639  72.450  1.00  0.00    -0.595 C  
HETATM   32  O   UNL     1     -13.204  15.906  73.187  1.00  0.00    -0.525 OA 
HETATM   33  C   UNL     1     -13.589  15.156  72.298  1.00  0.00    -0.462 C  
HETATM   34  O   UNL     1     -14.046  15.623  71.112  1.00  0.00    -0.539 OA 
ENDBRANCH  30  31
ENDBRANCH  28  30
ENDBRANCH  19  28
ENDBRANCH  17  19
ENDBRANCH   8  15
TORSDOF 7
ENDMDL
MODEL       34
REMARK 921   NORMALIZED FREE ENERGY PREDICTED BY IDOCK:   -6.25 KCAL/MOL
REMARK 922        TOTAL FREE ENERGY PREDICTED BY IDOCK:  -10.15 KCAL/MOL
REMARK 923 INTER-LIGAND FREE ENERGY PREDICTED BY IDOCK:   -8.85 KCAL/MOL
REMARK 924 INTRA-LIGAND FREE ENERGY PREDICTED BY IDOCK:   -1.31 KCAL/MOL
REMARK 927      BINDING AFFINITY PREDICTED BY RF-SCORE:    0.00 PKD
ROOT
HETATM    1  C   UNL     1      -9.293   8.942  70.251  1.00  0.00    -0.185 C  
HETATM    2  S   UNL     1     -10.588   9.561  71.324  1.00  0.00    -0.202 SA 
HETATM    3  CG2 UNL     1     -10.869   8.023  72.199  1.00  0.00    -0.279 C  
HETATM    4  CB  UNL     1     -10.837   6.735  71.382  1.00  0.00    -0.269 C  
HETATM    5  O   UNL     1      -9.530   7.648  67.235  1.00  0.00    -0.138 OA 
HETATM    6  CA  UNL     1     -10.275   6.640  70.138  1.00  0.00    -0.187 C  
HETATM    7  N   UNL     1      -9.753   7.759  69.543  1.00  0.00    -0.164 N  
HETATM    8  CA  UNL     1      -9.199   9.637  68.846  1.00  0.00    -0.147 C  
HETATM    9  C   UNL     1     -10.214   5.309  69.405  1.00  0.00    -0.251 C  
HETATM   10  C   UNL     1      -9.429   8.192  68.310  1.00  0.00    -0.141 C  
HETATM   11  OXT UNL     1     -10.184   4.228  69.975  1.00  0.00    -0.113 OA 
HETATM   12  O   UNL     1     -10.154   5.344  68.060  1.00  0.00    -0.161 OA 
ENDROOT
BRANCH   4  13
HETATM   13  CG1 UNL     1     -11.547   5.629  72.054  1.00  0.00    -0.148 C  
HETATM   14  CD1 UNL     1     -11.187   4.988  73.177  1.00  0.00    -0.408 C  
ENDBRANCH   4  13
BRANCH   8  15
HETATM   15  N   UNL     1     -10.278  10.599  68.443  1.00  0.00    -0.166 N  
HETATM   16  H   UNL     1     -11.234  10.263  68.325  1.00  0.00     0.000 HD 
HETATM   17  C   UNL     1      -9.994  11.931  68.230  1.00  0.00    -0.202 C  
HETATM   18  O   UNL     1      -8.856  12.379  68.257  1.00  0.00    -0.185 OA 
BRANCH  17  19
HETATM   19  C   UNL     1     -11.170  12.848  67.883  1.00  0.00    -0.269 C  
BRANCH  19  20
HETATM   20  C   UNL     1     -11.527  13.068  66.483  1.00  0.00    -0.340 A  
HETATM   21  N   UNL     1     -12.227  11.594  63.373  1.00  0.00    -0.822 NA 
HETATM   22  C   UNL     1     -11.752  14.302  65.902  1.00  0.00    -0.372 A  
HETATM   23  N   UNL     1     -11.676  11.991  65.607  1.00  0.00    -0.404 NA 
HETATM   24  C   UNL     1     -12.005  12.413  64.411  1.00  0.00    -0.407 A  
HETATM   25  S   UNL     1     -12.149  14.114  64.245  1.00  0.00    -0.384 SA 
HETATM   26  H2  UNL     1     -12.486  11.989  62.469  1.00  0.00     0.000 HD 
HETATM   27  H1  UNL     1     -12.141  10.583  63.471  1.00  0.00     0.000 HD 
ENDBRANCH  19  20
BRANCH  19  28
HETATM   28  N   UNL     1     -11.921  13.498  68.732  1.00  0.00    -0.350 NA 
HETATM   29  H   UNL     1     -12.187  14.472  68.585  1.00  0.00     0.000 HD 
BRANCH  28  30
HETATM   30  O   UNL     1     -12.337  12.778  69.854  1.00  0.00    -0.195 OA 
BRANCH  30  31
HETATM   31  C   UNL     1     -12.385  13.672  70.971  1.00  0.00    -0.354 C  
HETATM   32  O   UNL     1     -13.959  14.102  72.772  1.00  0.00    -0.638 OA 
HETATM   33  C   UNL     1     -13.349  13.286  72.092  1.00  0.00    -0.523 C  
HETATM   34  O   UNL     1     -13.422  11.954  72.327  1.00  0.00    -0.442 OA 
ENDBRANCH  30  31
ENDBRANCH  28  30
ENDBRANCH  19  28
ENDBRANCH  17  19
ENDBRANCH   8  15
TORSDOF 7
ENDMDL
MODEL       35
REMARK 921   NORMALIZED FREE ENERGY PREDICTED BY IDOCK:   -6.22 KCAL/MOL
REMARK 922        TOTAL FREE ENERGY PREDICTED BY IDOCK:  -10.12 KCAL/MOL
REMARK 923 INTER-LIGAND FREE ENERGY PREDICTED BY IDOCK:   -8.82 KCAL/MOL
REMARK 924 INTRA-LIGAND FREE ENERGY PREDICTED BY IDOCK:   -1.30 KCAL/MOL
REMARK 927      BINDING AFFINITY PREDICTED BY RF-SCORE:    0.00 PKD
ROOT
HETATM    1  C   UNL     1     -11.768   6.404  71.200  1.00  0.00    -0.298 C  
HETATM    2  S   UNL     1     -11.293   6.789  69.515  1.00  0.00    -0.191 SA 
HETATM    3  CG2 UNL     1     -10.408   5.262  69.208  1.00  0.00    -0.215 C  
HETATM    4  CB  UNL     1      -9.550   4.708  70.342  1.00  0.00    -0.271 C  
HETATM    5  O   UNL     1     -10.220   7.118  74.014  1.00  0.00    -0.342 OA 
HETATM    6  CA  UNL     1      -9.685   5.088  71.649  1.00  0.00    -0.170 C  
HETATM    7  N   UNL     1     -10.595   6.057  71.984  1.00  0.00    -0.215 N  
HETATM    8  CA  UNL     1     -11.926   7.644  72.150  1.00  0.00    -0.302 C  
HETATM    9  C   UNL     1      -8.846   4.446  72.743  1.00  0.00    -0.108 C  
HETATM   10  C   UNL     1     -10.831   6.920  72.989  1.00  0.00    -0.296 C  
HETATM   11  OXT UNL     1      -8.397   3.311  72.668  1.00  0.00    -0.077 OA 
HETATM   12  O   UNL     1      -8.625   5.166  73.860  1.00  0.00    -0.113 OA 
ENDROOT
BRANCH   4  13
HETATM   13  CG1 UNL     1      -8.512   3.778  69.855  1.00  0.00    -0.089 C  
HETATM   14  CD1 UNL     1      -8.692   2.618  69.206  1.00  0.00    -0.134 C  
ENDBRANCH   4  13
BRANCH   8  15
HETATM   15  N   UNL     1     -11.499   8.994  71.653  1.00  0.00    -0.336 N  
HETATM   16  H   UNL     1     -10.518   9.268  71.723  1.00  0.00     0.000 HD 
HETATM   17  C   UNL     1     -12.412   9.868  71.104  1.00  0.00    -0.368 C  
HETATM   18  O   UNL     1     -13.614   9.642  71.082  1.00  0.00    -0.340 OA 
BRANCH  17  19
HETATM   19  C   UNL     1     -11.872  11.196  70.568  1.00  0.00    -0.351 C  
BRANCH  19  20
HETATM   20  C   UNL     1     -12.492  12.451  70.987  1.00  0.00    -0.256 A  
HETATM   21  N   UNL     1     -13.042  15.839  70.242  1.00  0.00    -0.705 NA 
HETATM   22  C   UNL     1     -13.255  12.620  72.128  1.00  0.00    -0.421 A  
HETATM   23  N   UNL     1     -12.352  13.608  70.219  1.00  0.00    -0.336 NA 
HETATM   24  C   UNL     1     -12.994  14.608  70.772  1.00  0.00    -0.347 A  
HETATM   25  S   UNL     1     -13.797  14.243  72.242  1.00  0.00    -0.547 SA 
HETATM   26  H2  UNL     1     -13.565  16.571  70.722  1.00  0.00     0.000 HD 
HETATM   27  H1  UNL     1     -12.564  16.056  69.368  1.00  0.00     0.000 HD 
ENDBRANCH  19  20
BRANCH  19  28
HETATM   28  N   UNL     1     -10.881  11.346  69.728  1.00  0.00    -0.460 NA 
HETATM   29  H   UNL     1     -10.266  12.159  69.757  1.00  0.00     0.000 HD 
BRANCH  28  30
HETATM   30  O   UNL     1     -10.717  10.324  68.790  1.00  0.00    -0.197 OA 
BRANCH  30  31
HETATM   31  C   UNL     1     -10.108  10.880  67.621  1.00  0.00    -0.179 C  
HETATM   32  O   UNL     1     -10.870  11.464  65.388  1.00  0.00    -0.281 OA 
HETATM   33  C   UNL     1     -11.065  11.490  66.598  1.00  0.00    -0.295 C  
HETATM   34  O   UNL     1     -12.124  12.135  67.142  1.00  0.00    -0.575 OA 
ENDBRANCH  30  31
ENDBRANCH  28  30
ENDBRANCH  19  28
ENDBRANCH  17  19
ENDBRANCH   8  15
TORSDOF 7
ENDMDL
MODEL       36
REMARK 921   NORMALIZED FREE ENERGY PREDICTED BY IDOCK:   -6.13 KCAL/MOL
REMARK 922        TOTAL FREE ENERGY PREDICTED BY IDOCK:   -9.99 KCAL/MOL
REMARK 923 INTER-LIGAND FREE ENERGY PREDICTED BY IDOCK:   -8.78 KCAL/MOL
REMARK 924 INTRA-LIGAND FREE ENERGY PREDICTED BY IDOCK:   -1.21 KCAL/MOL
REMARK 927      BINDING AFFINITY PREDICTED BY RF-SCORE:    0.00 PKD
ROOT
HETATM    1  C   UNL     1     -11.162   6.657  71.984  1.00  0.00    -0.266 C  
HETATM    2  S   UNL     1     -11.531   6.601  70.231  1.00  0.00    -0.388 SA 
HETATM    3  CG2 UNL     1     -10.522   5.166  69.865  1.00  0.00    -0.226 C  
HETATM    4  CB  UNL     1      -9.168   5.064  70.562  1.00  0.00    -0.195 C  
HETATM    5  O   UNL     1      -8.802   8.319  73.562  1.00  0.00    -0.252 OA 
HETATM    6  CA  UNL     1      -8.835   5.780  71.678  1.00  0.00    -0.136 C  
HETATM    7  N   UNL     1      -9.724   6.689  72.192  1.00  0.00    -0.154 N  
HETATM    8  CA  UNL     1     -11.197   8.088  72.629  1.00  0.00    -0.397 C  
HETATM    9  C   UNL     1      -7.494   5.580  72.367  1.00  0.00    -0.096 C  
HETATM   10  C   UNL     1      -9.717   7.767  72.997  1.00  0.00    -0.267 C  
HETATM   11  OXT UNL     1      -6.865   4.533  72.323  1.00  0.00    -0.047 OA 
HETATM   12  O   UNL     1      -7.006   6.608  73.087  1.00  0.00    -0.076 OA 
ENDROOT
BRANCH   4  13
HETATM   13  CG1 UNL     1      -8.240   4.164  69.850  1.00  0.00    -0.068 C  
HETATM   14  CD1 UNL     1      -7.822   4.259  68.578  1.00  0.00    -0.074 C  
ENDBRANCH   4  13
BRANCH   8  15
HETATM   15  N   UNL     1     -11.342   9.282  71.732  1.00  0.00    -0.385 N  
HETATM   16  H   UNL     1     -10.533   9.619  71.209  1.00  0.00     0.000 HD 
HETATM   17  C   UNL     1     -12.553   9.928  71.604  1.00  0.00    -0.424 C  
HETATM   18  O   UNL     1     -13.533   9.638  72.275  1.00  0.00    -0.441 OA 
BRANCH  17  19
HETATM   19  C   UNL     1     -12.618  11.097  70.618  1.00  0.00    -0.318 C  
BRANCH  19  20
HETATM   20  C   UNL     1     -12.847  12.452  71.116  1.00  0.00    -0.205 A  
HETATM   21  N   UNL     1     -12.295  15.885  70.627  1.00  0.00    -0.468 NA 
HETATM   22  C   UNL     1     -13.581  12.772  72.244  1.00  0.00    -0.465 A  
HETATM   23  N   UNL     1     -12.320  13.558  70.447  1.00  0.00    -0.341 NA 
HETATM   24  C   UNL     1     -12.653  14.668  71.059  1.00  0.00    -0.329 A  
HETATM   25  S   UNL     1     -13.606  14.472  72.470  1.00  0.00    -0.490 SA 
HETATM   26  H2  UNL     1     -12.594  16.710  71.147  1.00  0.00     0.000 HD 
HETATM   27  H1  UNL     1     -11.728  16.002  69.787  1.00  0.00     0.000 HD 
ENDBRANCH  19  20
BRANCH  19  28
HETATM   28  N   UNL     1     -12.501  11.021  69.318  1.00  0.00    -0.574 NA 
HETATM   29  H   UNL     1     -13.278  11.228  68.692  1.00  0.00     0.000 HD 
BRANCH  28  30
HETATM   30  O   UNL     1     -11.245  10.638  68.841  1.00  0.00    -0.239 OA 
BRANCH  30  31
HETATM   31  C   UNL     1     -11.260  10.728  67.413  1.00  0.00    -0.241 C  
HETATM   32  O   UNL     1     -12.213  12.264  65.789  1.00  0.00    -0.622 OA 
HETATM   33  C   UNL     1     -11.597  12.101  66.836  1.00  0.00    -0.341 C  
HETATM   34  O   UNL     1     -11.093  13.140  67.543  1.00  0.00    -0.256 OA 
ENDBRANCH  30  31
ENDBRANCH  28  30
ENDBRANCH  19  28
ENDBRANCH  17  19
ENDBRANCH   8  15
TORSDOF 7
ENDMDL
MODEL       37
REMARK 921   NORMALIZED FREE ENERGY PREDICTED BY IDOCK:   -6.09 KCAL/MOL
REMARK 922        TOTAL FREE ENERGY PREDICTED BY IDOCK:   -9.94 KCAL/MOL
REMARK 923 INTER-LIGAND FREE ENERGY PREDICTED BY IDOCK:   -8.66 KCAL/MOL
REMARK 924 INTRA-LIGAND FREE ENERGY PREDICTED BY IDOCK:   -1.28 KCAL/MOL
REMARK 927      BINDING AFFINITY PREDICTED BY RF-SCORE:    0.00 PKD
ROOT
HETATM    1  C   UNL     1      -9.886  10.367  67.675  1.00  0.00    -0.170 C  
HETATM    2  S   UNL     1      -8.638  11.598  67.303  1.00  0.00    -0.160 SA 
HETATM    3  CG2 UNL     1      -7.228  10.506  67.482  1.00  0.00    -0.090 C  
HETATM    4  CB  UNL     1      -7.265   9.494  68.624  1.00  0.00    -0.074 C  
HETATM    5  O   UNL     1     -11.259   9.602  70.566  1.00  0.00    -0.255 OA 
HETATM    6  CA  UNL     1      -8.410   9.131  69.277  1.00  0.00    -0.123 C  
HETATM    7  N   UNL     1      -9.599   9.731  68.950  1.00  0.00    -0.161 N  
HETATM    8  CA  UNL     1     -11.192  10.922  68.348  1.00  0.00    -0.285 C  
HETATM    9  C   UNL     1      -8.389   8.063  70.360  1.00  0.00    -0.120 C  
HETATM   10  C   UNL     1     -10.814   9.930  69.490  1.00  0.00    -0.246 C  
HETATM   11  OXT UNL     1      -7.566   7.161  70.400  1.00  0.00    -0.086 OA 
HETATM   12  O   UNL     1      -9.357   8.109  71.296  1.00  0.00    -0.144 OA 
ENDROOT
BRANCH   4  13
HETATM   13  CG1 UNL     1      -5.918   9.015  68.988  1.00  0.00    -0.043 C  
HETATM   14  CD1 UNL     1      -5.141   8.159  68.306  1.00  0.00    -0.032 C  
ENDBRANCH   4  13
BRANCH   8  15
HETATM   15  N   UNL     1     -11.224  12.355  68.791  1.00  0.00    -0.255 N  
HETATM   16  H   UNL     1     -10.837  12.609  69.701  1.00  0.00     0.000 HD 
HETATM   17  C   UNL     1     -11.768  13.332  67.986  1.00  0.00    -0.359 C  
HETATM   18  O   UNL     1     -12.337  13.082  66.933  1.00  0.00    -0.351 OA 
BRANCH  17  19
HETATM   19  C   UNL     1     -11.699  14.774  68.496  1.00  0.00    -0.317 C  
BRANCH  19  20
HETATM   20  C   UNL     1     -11.982  15.059  69.901  1.00  0.00    -0.334 A  
HETATM   21  N   UNL     1     -13.894  14.233  72.729  1.00  0.00    -0.626 NA 
HETATM   22  C   UNL     1     -11.336  16.012  70.667  1.00  0.00    -0.399 A  
HETATM   23  N   UNL     1     -12.964  14.345  70.591  1.00  0.00    -0.339 NA 
HETATM   24  C   UNL     1     -13.044  14.754  71.833  1.00  0.00    -0.334 A  
HETATM   25  S   UNL     1     -11.967  16.018  72.261  1.00  0.00    -0.563 SA 
HETATM   26  H2  UNL     1     -13.900  14.594  73.683  1.00  0.00     0.000 HD 
HETATM   27  H1  UNL     1     -14.535  13.482  72.474  1.00  0.00     0.000 HD 
ENDBRANCH  19  20
BRANCH  19  28
HETATM   28  N   UNL     1     -11.416  15.833  67.785  1.00  0.00    -0.241 NA 
HETATM   29  H   UNL     1     -12.089  16.585  67.642  1.00  0.00     0.000 HD 
BRANCH  28  30
HETATM   30  O   UNL     1     -10.134  15.871  67.232  1.00  0.00    -0.250 OA 
BRANCH  30  31
HETATM   31  C   UNL     1     -10.242  15.622  65.827  1.00  0.00    -0.367 C  
HETATM   32  O   UNL     1     -11.500  16.600  63.992  1.00  0.00    -1.192 OA 
HETATM   33  C   UNL     1     -10.809  16.767  64.990  1.00  0.00    -0.117 C  
HETATM   34  O   UNL     1     -10.423  17.999  65.399  1.00  0.00    -0.621 OA 
ENDBRANCH  30  31
ENDBRANCH  28  30
ENDBRANCH  19  28
ENDBRANCH  17  19
ENDBRANCH   8  15
TORSDOF 7
ENDMDL
MODEL       38
REMARK 921   NORMALIZED FREE ENERGY PREDICTED BY IDOCK:   -6.09 KCAL/MOL
REMARK 922        TOTAL FREE ENERGY PREDICTED BY IDOCK:   -9.93 KCAL/MOL
REMARK 923 INTER-LIGAND FREE ENERGY PREDICTED BY IDOCK:   -9.03 KCAL/MOL
REMARK 924 INTRA-LIGAND FREE ENERGY PREDICTED BY IDOCK:   -0.90 KCAL/MOL
REMARK 927      BINDING AFFINITY PREDICTED BY RF-SCORE:    0.00 PKD
ROOT
HETATM    1  C   UNL     1     -11.185  13.740  67.455  1.00  0.00    -0.294 C  
HETATM    2  S   UNL     1      -9.457  13.454  67.833  1.00  0.00    -0.223 SA 
HETATM    3  CG2 UNL     1      -8.940  15.164  67.690  1.00  0.00    -0.180 C  
HETATM    4  CB  UNL     1      -9.549  15.989  66.560  1.00  0.00    -0.283 C  
HETATM    5  O   UNL     1     -12.729  13.624  64.552  1.00  0.00    -0.636 OA 
HETATM    6  CA  UNL     1     -10.689  15.634  65.892  1.00  0.00    -0.329 C  
HETATM    7  N   UNL     1     -11.311  14.449  66.193  1.00  0.00    -0.343 N  
HETATM    8  CA  UNL     1     -11.923  12.545  66.754  1.00  0.00    -0.257 C  
HETATM    9  C   UNL     1     -11.284  16.536  64.822  1.00  0.00    -0.143 C  
HETATM   10  C   UNL     1     -12.183  13.593  65.630  1.00  0.00    -0.454 C  
HETATM   11  OXT UNL     1     -11.136  17.749  64.807  1.00  0.00    -0.852 OA 
HETATM   12  O   UNL     1     -12.040  15.956  63.870  1.00  0.00    -0.768 OA 
ENDROOT
BRANCH   4  13
HETATM   13  CG1 UNL     1      -8.728  17.168  66.224  1.00  0.00    -0.268 C  
HETATM   14  CD1 UNL     1      -7.396  17.293  66.324  1.00  0.00    -0.342 C  
ENDBRANCH   4  13
BRANCH   8  15
HETATM   15  N   UNL     1     -11.115  11.367  66.294  1.00  0.00    -0.264 N  
HETATM   16  H   UNL     1     -10.781  11.332  65.330  1.00  0.00     0.000 HD 
HETATM   17  C   UNL     1     -10.818  10.333  67.155  1.00  0.00    -0.212 C  
HETATM   18  O   UNL     1     -11.270  10.265  68.290  1.00  0.00    -0.276 OA 
BRANCH  17  19
HETATM   19  C   UNL     1      -9.936   9.205  66.613  1.00  0.00    -0.273 C  
BRANCH  19  20
HETATM   20  C   UNL     1      -9.288   9.356  65.312  1.00  0.00    -0.238 A  
HETATM   21  N   UNL     1      -8.660  11.473  62.580  1.00  0.00    -0.632 NA 
HETATM   22  C   UNL     1      -8.525   8.388  64.685  1.00  0.00    -0.075 A  
HETATM   23  N   UNL     1      -9.400  10.547  64.592  1.00  0.00    -0.225 NA 
HETATM   24  C   UNL     1      -8.738  10.468  63.465  1.00  0.00    -0.185 A  
HETATM   25  S   UNL     1      -7.947   8.973  63.180  1.00  0.00    -0.159 SA 
HETATM   26  H2  UNL     1      -8.122  11.346  61.723  1.00  0.00     0.000 HD 
HETATM   27  H1  UNL     1      -9.131  12.361  62.749  1.00  0.00     0.000 HD 
ENDBRANCH  19  20
BRANCH  19  28
HETATM   28  N   UNL     1      -9.692   8.063  67.200  1.00  0.00    -0.178 NA 
HETATM   29  H   UNL     1      -8.743   7.747  67.395  1.00  0.00     0.000 HD 
BRANCH  28  30
HETATM   30  O   UNL     1     -10.813   7.304  67.544  1.00  0.00    -0.249 OA 
BRANCH  30  31
HETATM   31  C   UNL     1     -10.805   6.108  66.757  1.00  0.00    -0.285 C  
HETATM   32  O   UNL     1      -9.113   4.842  65.557  1.00  0.00    -0.142 OA 
HETATM   33  C   UNL     1      -9.443   5.441  66.574  1.00  0.00    -0.149 C  
HETATM   34  O   UNL     1      -8.644   5.500  67.665  1.00  0.00    -0.109 OA 
ENDBRANCH  30  31
ENDBRANCH  28  30
ENDBRANCH  19  28
ENDBRANCH  17  19
ENDBRANCH   8  15
TORSDOF 7
ENDMDL
MODEL       39
REMARK 921   NORMALIZED FREE ENERGY PREDICTED BY IDOCK:   -6.05 KCAL/MOL
REMARK 922        TOTAL FREE ENERGY PREDICTED BY IDOCK:   -9.88 KCAL/MOL
REMARK 923 INTER-LIGAND FREE ENERGY PREDICTED BY IDOCK:   -8.60 KCAL/MOL
REMARK 924 INTRA-LIGAND FREE ENERGY PREDICTED BY IDOCK:   -1.28 KCAL/MOL
REMARK 927      BINDING AFFINITY PREDICTED BY RF-SCORE:    0.00 PKD
ROOT
HETATM    1  C   UNL     1     -10.298   9.826  70.450  1.00  0.00    -0.293 C  
HETATM    2  S   UNL     1     -11.842  10.546  71.005  1.00  0.00    -0.298 SA 
HETATM    3  CG2 UNL     1     -12.386   9.130  71.958  1.00  0.00    -0.377 C  
HETATM    4  CB  UNL     1     -12.133   7.746  71.367  1.00  0.00    -0.335 C  
HETATM    5  O   UNL     1      -9.657   8.139  67.699  1.00  0.00    -0.145 OA 
HETATM    6  CA  UNL     1     -11.233   7.504  70.366  1.00  0.00    -0.253 C  
HETATM    7  N   UNL     1     -10.544   8.548  69.804  1.00  0.00    -0.225 N  
HETATM    8  CA  UNL     1      -9.787  10.332  69.054  1.00  0.00    -0.207 C  
HETATM    9  C   UNL     1     -10.976   6.090  69.868  1.00  0.00    -0.388 C  
HETATM   10  C   UNL     1      -9.868   8.823  68.674  1.00  0.00    -0.168 C  
HETATM   11  OXT UNL     1     -11.128   5.095  70.561  1.00  0.00     0.047 OA 
HETATM   12  O   UNL     1     -10.525   5.948  68.607  1.00  0.00    -0.192 OA 
ENDROOT
BRANCH   4  13
HETATM   13  CG1 UNL     1     -13.022   6.720  71.945  1.00  0.00    -0.229 C  
HETATM   14  CD1 UNL     1     -14.348   6.596  71.775  1.00  0.00    -0.192 C  
ENDBRANCH   4  13
BRANCH   8  15
HETATM   15  N   UNL     1     -10.688  11.203  68.228  1.00  0.00    -0.183 N  
HETATM   16  H   UNL     1     -11.557  10.818  67.857  1.00  0.00     0.000 HD 
HETATM   17  C   UNL     1     -10.357  12.514  67.964  1.00  0.00    -0.222 C  
HETATM   18  O   UNL     1      -9.287  13.006  68.292  1.00  0.00    -0.212 OA 
BRANCH  17  19
HETATM   19  C   UNL     1     -11.368  13.342  67.165  1.00  0.00    -0.317 C  
BRANCH  19  20
HETATM   20  C   UNL     1     -11.548  13.083  65.738  1.00  0.00    -0.356 A  
HETATM   21  N   UNL     1     -10.658  11.086  62.989  1.00  0.00    -0.805 NA 
HETATM   22  C   UNL     1     -12.392  13.788  64.900  1.00  0.00    -0.405 A  
HETATM   23  N   UNL     1     -10.849  12.052  65.106  1.00  0.00    -0.291 NA 
HETATM   24  C   UNL     1     -11.167  11.992  63.836  1.00  0.00    -0.417 A  
HETATM   25  S   UNL     1     -12.307  13.158  63.308  1.00  0.00    -0.039 SA 
HETATM   26  H2  UNL     1     -10.953  11.091  62.013  1.00  0.00     0.000 HD 
HETATM   27  H1  UNL     1      -9.979  10.393  63.303  1.00  0.00     0.000 HD 
ENDBRANCH  19  20
BRANCH  19  28
HETATM   28  N   UNL     1     -12.116  14.308  67.630  1.00  0.00    -0.576 NA 
HETATM   29  H   UNL     1     -12.427  15.081  67.043  1.00  0.00     0.000 HD 
BRANCH  28  30
HETATM   30  O   UNL     1     -12.461  14.215  68.980  1.00  0.00    -0.211 OA 
BRANCH  30  31
HETATM   31  C   UNL     1     -11.827  15.289  69.681  1.00  0.00    -0.339 C  
HETATM   32  O   UNL     1     -12.120  16.347  71.850  1.00  0.00    -0.430 OA 
HETATM   33  C   UNL     1     -12.041  15.315  71.193  1.00  0.00    -0.348 C  
HETATM   34  O   UNL     1     -12.065  14.091  71.772  1.00  0.00    -0.196 OA 
ENDBRANCH  30  31
ENDBRANCH  28  30
ENDBRANCH  19  28
ENDBRANCH  17  19
ENDBRANCH   8  15
TORSDOF 7
ENDMDL
MODEL       40
REMARK 921   NORMALIZED FREE ENERGY PREDICTED BY IDOCK:   -6.03 KCAL/MOL
REMARK 922        TOTAL FREE ENERGY PREDICTED BY IDOCK:   -9.85 KCAL/MOL
REMARK 923 INTER-LIGAND FREE ENERGY PREDICTED BY IDOCK:   -8.63 KCAL/MOL
REMARK 924 INTRA-LIGAND FREE ENERGY PREDICTED BY IDOCK:   -1.21 KCAL/MOL
REMARK 927      BINDING AFFINITY PREDICTED BY RF-SCORE:    0.00 PKD
ROOT
HETATM    1  C   UNL     1     -10.179  10.801  68.389  1.00  0.00    -0.175 C  
HETATM    2  S   UNL     1      -8.821  11.970  68.399  1.00  0.00    -0.108 SA 
HETATM    3  CG2 UNL     1      -7.540  10.779  68.786  1.00  0.00    -0.113 C  
HETATM    4  CB  UNL     1      -7.876   9.693  69.804  1.00  0.00    -0.144 C  
HETATM    5  O   UNL     1     -12.189   9.924  70.842  1.00  0.00    -0.300 OA 
HETATM    6  CA  UNL     1      -9.153   9.360  70.163  1.00  0.00    -0.231 C  
HETATM    7  N   UNL     1     -10.210  10.059  69.638  1.00  0.00    -0.225 N  
HETATM    8  CA  UNL     1     -11.573  11.390  68.809  1.00  0.00    -0.313 C  
HETATM    9  C   UNL     1      -9.423   8.220  71.133  1.00  0.00    -0.164 C  
HETATM   10  C   UNL     1     -11.504  10.298  69.919  1.00  0.00    -0.273 C  
HETATM   11  OXT UNL     1      -8.673   7.265  71.274  1.00  0.00    -0.126 OA 
HETATM   12  O   UNL     1     -10.569   8.263  71.838  1.00  0.00    -0.241 OA 
ENDROOT
BRANCH   4  13
HETATM   13  CG1 UNL     1      -6.667   9.102  70.409  1.00  0.00    -0.058 C  
HETATM   14  CD1 UNL     1      -5.780   9.700  71.219  1.00  0.00    -0.075 C  
ENDBRANCH   4  13
BRANCH   8  15
HETATM   15  N   UNL     1     -11.632  12.788  69.352  1.00  0.00    -0.320 N  
HETATM   16  H   UNL     1     -11.488  12.946  70.350  1.00  0.00     0.000 HD 
HETATM   17  C   UNL     1     -11.876  13.860  68.521  1.00  0.00    -0.366 C  
HETATM   18  O   UNL     1     -12.155  13.731  67.337  1.00  0.00    -0.386 OA 
BRANCH  17  19
HETATM   19  C   UNL     1     -11.856  15.253  69.156  1.00  0.00    -0.321 C  
BRANCH  19  20
HETATM   20  C   UNL     1     -12.418  15.448  70.491  1.00  0.00    -0.422 A  
HETATM   21  N   UNL     1     -11.965  16.834  73.686  1.00  0.00    -0.293 NA 
HETATM   22  C   UNL     1     -13.655  14.993  70.908  1.00  0.00    -0.307 A  
HETATM   23  N   UNL     1     -11.708  16.145  71.470  1.00  0.00    -0.477 NA 
HETATM   24  C   UNL     1     -12.398  16.209  72.581  1.00  0.00    -0.487 A  
HETATM   25  S   UNL     1     -13.930  15.439  72.541  1.00  0.00    -0.499 SA 
HETATM   26  H2  UNL     1     -12.556  16.851  74.517  1.00  0.00     0.000 HD 
HETATM   27  H1  UNL     1     -11.054  17.291  73.710  1.00  0.00     0.000 HD 
ENDBRANCH  19  20
BRANCH  19  28
HETATM   28  N   UNL     1     -11.383  16.343  68.612  1.00  0.00    -0.339 NA 
HETATM   29  H   UNL     1     -11.993  17.088  68.276  1.00  0.00     0.000 HD 
BRANCH  28  30
HETATM   30  O   UNL     1      -9.992  16.425  68.521  1.00  0.00    -0.223 OA 
BRANCH  30  31
HETATM   31  C   UNL     1      -9.642  16.634  67.149  1.00  0.00    -0.241 C  
HETATM   32  O   UNL     1     -10.696  17.712  65.243  1.00  0.00    -0.649 OA 
HETATM   33  C   UNL     1     -10.399  17.750  66.431  1.00  0.00    -0.351 C  
HETATM   34  O   UNL     1     -10.656  18.832  67.203  1.00  0.00    -0.406 OA 
ENDBRANCH  30  31
ENDBRANCH  28  30
ENDBRANCH  19  28
ENDBRANCH  17  19
ENDBRANCH   8  15
TORSDOF 7
ENDMDL
MODEL       41
REMARK 921   NORMALIZED FREE ENERGY PREDICTED BY IDOCK:   -6.00 KCAL/MOL
REMARK 922        TOTAL FREE ENERGY PREDICTED BY IDOCK:   -9.81 KCAL/MOL
REMARK 923 INTER-LIGAND FREE ENERGY PREDICTED BY IDOCK:   -8.37 KCAL/MOL
REMARK 924 INTRA-LIGAND FREE ENERGY PREDICTED BY IDOCK:   -1.44 KCAL/MOL
REMARK 927      BINDING AFFINITY PREDICTED BY RF-SCORE:    0.00 PKD
ROOT
HETATM    1  C   UNL     1     -12.174  13.212  67.204  1.00  0.00    -0.191 C  
HETATM    2  S   UNL     1     -11.903  12.266  68.701  1.00  0.00    -0.255 SA 
HETATM    3  CG2 UNL     1     -12.000  13.654  69.830  1.00  0.00    -0.348 C  
HETATM    4  CB  UNL     1     -11.347  14.961  69.393  1.00  0.00    -0.312 C  
HETATM    5  O   UNL     1      -9.972  14.590  65.185  1.00  0.00    -0.354 OA 
HETATM    6  CA  UNL     1     -11.016  15.246  68.096  1.00  0.00    -0.292 C  
HETATM    7  N   UNL     1     -11.218  14.303  67.121  1.00  0.00    -0.311 N  
HETATM    8  CA  UNL     1     -11.490  12.634  65.914  1.00  0.00    -0.363 C  
HETATM    9  C   UNL     1     -10.431  16.597  67.715  1.00  0.00    -0.316 C  
HETATM   10  C   UNL     1     -10.782  14.022  65.880  1.00  0.00    -0.293 C  
HETATM   11  OXT UNL     1     -10.649  17.625  68.340  1.00  0.00    -0.366 OA 
HETATM   12  O   UNL     1      -9.664  16.652  66.610  1.00  0.00    -0.243 OA 
ENDROOT
BRANCH   4  13
HETATM   13  CG1 UNL     1     -11.047  15.846  70.535  1.00  0.00    -0.381 C  
HETATM   14  CD1 UNL     1     -11.772  16.015  71.652  1.00  0.00    -0.583 C  
ENDBRANCH   4  13
BRANCH   8  15
HETATM   15  N   UNL     1     -10.537  11.483  66.056  1.00  0.00    -0.255 N  
HETATM   16  H   UNL     1     -10.098  11.302  66.959  1.00  0.00     0.000 HD 
HETATM   17  C   UNL     1     -10.248  10.669  64.983  1.00  0.00    -0.310 C  
HETATM   18  O   UNL     1     -10.660  10.890  63.853  1.00  0.00    -0.359 OA 
BRANCH  17  19
HETATM   19  C   UNL     1      -9.313   9.483  65.239  1.00  0.00    -0.253 C  
BRANCH  19  20
HETATM   20  C   UNL     1      -8.034   9.406  64.535  1.00  0.00    -0.126 A  
HETATM   21  N   UNL     1      -5.139  11.117  63.524  1.00  0.00    -0.463 NA 
HETATM   22  C   UNL     1      -7.521   8.268  63.939  1.00  0.00    -0.114 A  
HETATM   23  N   UNL     1      -7.211  10.527  64.425  1.00  0.00     0.020 NA 
HETATM   24  C   UNL     1      -6.117  10.232  63.767  1.00  0.00    -0.127 A  
HETATM   25  S   UNL     1      -5.997   8.608  63.230  1.00  0.00    -0.082 SA 
HETATM   26  H2  UNL     1      -4.309  10.819  63.011  1.00  0.00     0.000 HD 
HETATM   27  H1  UNL     1      -5.210  12.083  63.843  1.00  0.00     0.000 HD 
ENDBRANCH  19  20
BRANCH  19  28
HETATM   28  N   UNL     1      -9.541   8.478  66.043  1.00  0.00    -0.416 NA 
HETATM   29  H   UNL     1      -9.280   7.523  65.801  1.00  0.00     0.000 HD 
BRANCH  28  30
HETATM   30  O   UNL     1     -10.164   8.794  67.252  1.00  0.00    -0.219 OA 
BRANCH  30  31
HETATM   31  C   UNL     1      -9.912   7.732  68.179  1.00  0.00    -0.178 C  
HETATM   32  O   UNL     1     -11.243   5.960  69.176  1.00  0.00    -0.340 OA 
HETATM   33  C   UNL     1     -10.927   6.591  68.174  1.00  0.00    -0.281 C  
HETATM   34  O   UNL     1     -11.404   6.276  66.947  1.00  0.00    -0.260 OA 
ENDBRANCH  30  31
ENDBRANCH  28  30
ENDBRANCH  19  28
ENDBRANCH  17  19
ENDBRANCH   8  15
TORSDOF 7
ENDMDL
MODEL       42
REMARK 921   NORMALIZED FREE ENERGY PREDICTED BY IDOCK:   -6.00 KCAL/MOL
REMARK 922        TOTAL FREE ENERGY PREDICTED BY IDOCK:   -9.80 KCAL/MOL
REMARK 923 INTER-LIGAND FREE ENERGY PREDICTED BY IDOCK:   -7.96 KCAL/MOL
REMARK 924 INTRA-LIGAND FREE ENERGY PREDICTED BY IDOCK:   -1.84 KCAL/MOL
REMARK 927      BINDING AFFINITY PREDICTED BY RF-SCORE:    0.00 PKD
ROOT
HETATM    1  C   UNL     1     -12.021  12.764  67.476  1.00  0.00    -0.281 C  
HETATM    2  S   UNL     1     -11.782  11.872  69.012  1.00  0.00    -0.336 SA 
HETATM    3  CG2 UNL     1     -12.035  13.277  70.095  1.00  0.00    -0.318 C  
HETATM    4  CB  UNL     1     -11.439  14.613  69.661  1.00  0.00    -0.329 C  
HETATM    5  O   UNL     1      -9.791  14.233  65.553  1.00  0.00    -0.315 OA 
HETATM    6  CA  UNL     1     -11.048  14.888  68.380  1.00  0.00    -0.273 C  
HETATM    7  N   UNL     1     -11.132  13.912  67.420  1.00  0.00    -0.291 N  
HETATM    8  CA  UNL     1     -11.225  12.201  66.245  1.00  0.00    -0.334 C  
HETATM    9  C   UNL     1     -10.527  16.264  67.998  1.00  0.00    -0.293 C  
HETATM   10  C   UNL     1     -10.604  13.630  66.215  1.00  0.00    -0.289 C  
HETATM   11  OXT UNL     1     -10.846  17.290  68.580  1.00  0.00    -0.307 OA 
HETATM   12  O   UNL     1      -9.699  16.343  66.938  1.00  0.00    -0.238 OA 
ENDROOT
BRANCH   4  13
HETATM   13  CG1 UNL     1     -11.265  15.541  70.796  1.00  0.00    -0.384 C  
HETATM   14  CD1 UNL     1     -11.661  15.365  72.066  1.00  0.00    -0.544 C  
ENDBRANCH   4  13
BRANCH   8  15
HETATM   15  N   UNL     1     -10.213  11.117  66.474  1.00  0.00    -0.223 N  
HETATM   16  H   UNL     1      -9.772  11.026  67.389  1.00  0.00     0.000 HD 
HETATM   17  C   UNL     1      -9.870  10.245  65.463  1.00  0.00    -0.282 C  
HETATM   18  O   UNL     1     -10.285  10.361  64.318  1.00  0.00    -0.323 OA 
BRANCH  17  19
HETATM   19  C   UNL     1      -8.875   9.133  65.809  1.00  0.00    -0.175 C  
BRANCH  19  20
HETATM   20  C   UNL     1      -9.352   7.909  66.449  1.00  0.00    -0.189 A  
HETATM   21  N   UNL     1     -11.554   6.496  68.792  1.00  0.00    -0.529 NA 
HETATM   22  C   UNL     1      -8.901   6.633  66.165  1.00  0.00    -0.149 A  
HETATM   23  N   UNL     1     -10.345   7.956  67.429  1.00  0.00    -0.253 NA 
HETATM   24  C   UNL     1     -10.625   6.751  67.859  1.00  0.00    -0.242 A  
HETATM   25  S   UNL     1      -9.724   5.484  67.135  1.00  0.00    -0.156 SA 
HETATM   26  H2  UNL     1     -11.727   5.532  69.077  1.00  0.00     0.000 HD 
HETATM   27  H1  UNL     1     -12.090   7.249  69.223  1.00  0.00     0.000 HD 
ENDBRANCH  19  20
BRANCH  19  28
HETATM   28  N   UNL     1      -7.585   9.158  65.600  1.00  0.00    -0.093 NA 
HETATM   29  H   UNL     1      -6.996   8.341  65.758  1.00  0.00     0.000 HD 
BRANCH  28  30
HETATM   30  O   UNL     1      -7.065  10.372  65.146  1.00  0.00    -0.134 OA 
BRANCH  30  31
HETATM   31  C   UNL     1      -5.995  10.756  66.016  1.00  0.00    -0.138 C  
HETATM   32  O   UNL     1      -5.433  12.751  67.285  1.00  0.00    -0.299 OA 
HETATM   33  C   UNL     1      -6.282  11.935  66.943  1.00  0.00    -0.115 C  
HETATM   34  O   UNL     1      -7.547  11.970  67.423  1.00  0.00    -0.133 OA 
ENDBRANCH  30  31
ENDBRANCH  28  30
ENDBRANCH  19  28
ENDBRANCH  17  19
ENDBRANCH   8  15
TORSDOF 7
ENDMDL
MODEL       43
REMARK 921   NORMALIZED FREE ENERGY PREDICTED BY IDOCK:   -5.99 KCAL/MOL
REMARK 922        TOTAL FREE ENERGY PREDICTED BY IDOCK:   -9.79 KCAL/MOL
REMARK 923 INTER-LIGAND FREE ENERGY PREDICTED BY IDOCK:   -8.41 KCAL/MOL
REMARK 924 INTRA-LIGAND FREE ENERGY PREDICTED BY IDOCK:   -1.38 KCAL/MOL
REMARK 927      BINDING AFFINITY PREDICTED BY RF-SCORE:    0.00 PKD
ROOT
HETATM    1  C   UNL     1     -10.683   7.981  69.748  1.00  0.00    -0.231 C  
HETATM    2  S   UNL     1     -10.353   8.647  68.118  1.00  0.00    -0.197 SA 
HETATM    3  CG2 UNL     1      -9.106   7.443  67.663  1.00  0.00    -0.125 C  
HETATM    4  CB  UNL     1      -8.114   7.019  68.742  1.00  0.00    -0.121 C  
HETATM    5  O   UNL     1      -9.326   8.780  72.637  1.00  0.00    -0.300 OA 
HETATM    6  CA  UNL     1      -8.322   7.214  70.080  1.00  0.00    -0.137 C  
HETATM    7  N   UNL     1      -9.447   7.873  70.505  1.00  0.00    -0.162 N  
HETATM    8  CA  UNL     1     -11.142   9.032  70.820  1.00  0.00    -0.272 C  
HETATM    9  C   UNL     1      -7.325   6.704  71.110  1.00  0.00    -0.079 C  
HETATM   10  C   UNL     1      -9.881   8.536  71.591  1.00  0.00    -0.247 C  
HETATM   11  OXT UNL     1      -6.598   5.740  70.922  1.00  0.00    -0.041 OA 
HETATM   12  O   UNL     1      -7.280   7.337  72.298  1.00  0.00    -0.067 OA 
ENDROOT
BRANCH   4  13
HETATM   13  CG1 UNL     1      -6.879   6.447  68.172  1.00  0.00    -0.071 C  
HETATM   14  CD1 UNL     1      -6.518   6.402  66.880  1.00  0.00    -0.046 C  
ENDBRANCH   4  13
BRANCH   8  15
HETATM   15  N   UNL     1     -11.089  10.491  70.471  1.00  0.00    -0.427 N  
HETATM   16  H   UNL     1     -10.243  10.877  70.052  1.00  0.00     0.000 HD 
HETATM   17  C   UNL     1     -12.168  11.314  70.708  1.00  0.00    -0.380 C  
HETATM   18  O   UNL     1     -13.172  10.938  71.297  1.00  0.00    -0.333 OA 
BRANCH  17  19
HETATM   19  C   UNL     1     -12.044  12.773  70.260  1.00  0.00    -0.297 C  
BRANCH  19  20
HETATM   20  C   UNL     1     -11.622  13.077  68.895  1.00  0.00    -0.311 A  
HETATM   21  N   UNL     1     -11.801  12.175  65.505  1.00  0.00    -0.440 NA 
HETATM   22  C   UNL     1     -10.813  14.137  68.527  1.00  0.00    -0.252 A  
HETATM   23  N   UNL     1     -12.037  12.281  67.825  1.00  0.00    -0.446 NA 
HETATM   24  C   UNL     1     -11.552  12.737  66.697  1.00  0.00    -0.370 A  
HETATM   25  S   UNL     1     -10.567  14.134  66.831  1.00  0.00    -0.282 SA 
HETATM   26  H2  UNL     1     -11.397  12.586  64.663  1.00  0.00     0.000 HD 
HETATM   27  H1  UNL     1     -12.386  11.344  65.425  1.00  0.00     0.000 HD 
ENDBRANCH  19  20
BRANCH  19  28
HETATM   28  N   UNL     1     -12.269  13.830  70.996  1.00  0.00    -0.411 NA 
HETATM   29  H   UNL     1     -11.659  14.090  71.770  1.00  0.00     0.000 HD 
BRANCH  28  30
HETATM   30  O   UNL     1     -13.397  14.580  70.655  1.00  0.00    -0.295 OA 
BRANCH  30  31
HETATM   31  C   UNL     1     -13.896  15.205  71.842  1.00  0.00    -0.503 C  
HETATM   32  O   UNL     1     -12.941  15.877  73.973  1.00  0.00    -0.575 OA 
HETATM   33  C   UNL     1     -12.847  15.841  72.752  1.00  0.00    -0.472 C  
HETATM   34  O   UNL     1     -11.825  16.434  72.091  1.00  0.00    -0.525 OA 
ENDBRANCH  30  31
ENDBRANCH  28  30
ENDBRANCH  19  28
ENDBRANCH  17  19
ENDBRANCH   8  15
TORSDOF 7
ENDMDL
MODEL       44
REMARK 921   NORMALIZED FREE ENERGY PREDICTED BY IDOCK:   -5.98 KCAL/MOL
REMARK 922        TOTAL FREE ENERGY PREDICTED BY IDOCK:   -9.78 KCAL/MOL
REMARK 923 INTER-LIGAND FREE ENERGY PREDICTED BY IDOCK:   -8.16 KCAL/MOL
REMARK 924 INTRA-LIGAND FREE ENERGY PREDICTED BY IDOCK:   -1.63 KCAL/MOL
REMARK 927      BINDING AFFINITY PREDICTED BY RF-SCORE:    0.00 PKD
ROOT
HETATM    1  C   UNL     1      -9.749   9.971  69.882  1.00  0.00    -0.203 C  
HETATM    2  S   UNL     1     -11.154  11.049  69.603  1.00  0.00    -0.234 SA 
HETATM    3  CG2 UNL     1     -12.187  10.362  70.896  1.00  0.00    -0.383 C  
HETATM    4  CB  UNL     1     -12.164   8.848  71.083  1.00  0.00    -0.303 C  
HETATM    5  O   UNL     1      -9.028   7.085  68.476  1.00  0.00    -0.125 OA 
HETATM    6  CA  UNL     1     -11.177   8.039  70.590  1.00  0.00    -0.261 C  
HETATM    7  N   UNL     1     -10.168   8.581  69.836  1.00  0.00    -0.199 N  
HETATM    8  CA  UNL     1      -8.883   9.659  68.610  1.00  0.00    -0.128 C  
HETATM    9  C   UNL     1     -11.176   6.544  70.871  1.00  0.00    -0.311 C  
HETATM   10  C   UNL     1      -9.248   8.180  68.940  1.00  0.00    -0.147 C  
HETATM   11  OXT UNL     1     -11.687   6.046  71.863  1.00  0.00    -0.295 OA 
HETATM   12  O   UNL     1     -10.545   5.747  69.988  1.00  0.00    -0.255 OA 
ENDROOT
BRANCH   4  13
HETATM   13  CG1 UNL     1     -13.363   8.354  71.787  1.00  0.00    -0.378 C  
HETATM   14  CD1 UNL     1     -14.240   9.067  72.509  1.00  0.00    -0.356 C  
ENDBRANCH   4  13
BRANCH   8  15
HETATM   15  N   UNL     1      -9.381  10.110  67.268  1.00  0.00    -0.151 N  
HETATM   16  H   UNL     1     -10.009   9.507  66.736  1.00  0.00     0.000 HD 
HETATM   17  C   UNL     1      -9.002  11.327  66.745  1.00  0.00    -0.171 C  
HETATM   18  O   UNL     1      -8.176  12.051  67.283  1.00  0.00    -0.157 OA 
BRANCH  17  19
HETATM   19  C   UNL     1      -9.611  11.728  65.399  1.00  0.00    -0.190 C  
BRANCH  19  20
HETATM   20  C   UNL     1     -10.564  12.834  65.337  1.00  0.00    -0.287 A  
HETATM   21  N   UNL     1     -11.159  16.134  64.294  1.00  0.00    -1.134 NA 
HETATM   22  C   UNL     1     -11.860  12.796  65.819  1.00  0.00    -0.434 A  
HETATM   23  N   UNL     1     -10.210  14.051  64.752  1.00  0.00    -0.384 NA 
HETATM   24  C   UNL     1     -11.213  14.892  64.796  1.00  0.00    -0.386 A  
HETATM   25  S   UNL     1     -12.639  14.298  65.542  1.00  0.00    -0.335 SA 
HETATM   26  H2  UNL     1     -11.980  16.736  64.356  1.00  0.00     0.000 HD 
HETATM   27  H1  UNL     1     -10.311  16.487  63.851  1.00  0.00     0.000 HD 
ENDBRANCH  19  20
BRANCH  19  28
HETATM   28  N   UNL     1      -9.376  11.162  64.244  1.00  0.00    -0.325 NA 
HETATM   29  H   UNL     1     -10.046  11.199  63.477  1.00  0.00     0.000 HD 
BRANCH  28  30
HETATM   30  O   UNL     1      -8.150  10.503  64.127  1.00  0.00    -0.129 OA 
BRANCH  30  31
HETATM   31  C   UNL     1      -8.347   9.322  63.343  1.00  0.00    -0.193 C  
HETATM   32  O   UNL     1      -7.831   6.963  63.614  1.00  0.00    -0.120 OA 
HETATM   33  C   UNL     1      -8.269   7.999  64.101  1.00  0.00    -0.057 C  
HETATM   34  O   UNL     1      -8.796   8.040  65.347  1.00  0.00    -0.126 OA 
ENDBRANCH  30  31
ENDBRANCH  28  30
ENDBRANCH  19  28
ENDBRANCH  17  19
ENDBRANCH   8  15
TORSDOF 7
ENDMDL
MODEL       45
REMARK 921   NORMALIZED FREE ENERGY PREDICTED BY IDOCK:   -5.98 KCAL/MOL
REMARK 922        TOTAL FREE ENERGY PREDICTED BY IDOCK:   -9.78 KCAL/MOL
REMARK 923 INTER-LIGAND FREE ENERGY PREDICTED BY IDOCK:   -8.68 KCAL/MOL
REMARK 924 INTRA-LIGAND FREE ENERGY PREDICTED BY IDOCK:   -1.11 KCAL/MOL
REMARK 927      BINDING AFFINITY PREDICTED BY RF-SCORE:    0.00 PKD
ROOT
HETATM    1  C   UNL     1     -11.213   6.623  71.871  1.00  0.00    -0.264 C  
HETATM    2  S   UNL     1     -11.388   6.778  70.095  1.00  0.00    -0.347 SA 
HETATM    3  CG2 UNL     1     -10.415   5.332  69.675  1.00  0.00    -0.250 C  
HETATM    4  CB  UNL     1      -9.154   5.074  70.494  1.00  0.00    -0.180 C  
HETATM    5  O   UNL     1      -8.965   7.960  73.867  1.00  0.00    -0.271 OA 
HETATM    6  CA  UNL     1      -8.913   5.645  71.714  1.00  0.00    -0.136 C  
HETATM    7  N   UNL     1      -9.808   6.545  72.231  1.00  0.00    -0.157 N  
HETATM    8  CA  UNL     1     -11.251   7.975  72.668  1.00  0.00    -0.397 C  
HETATM    9  C   UNL     1      -7.667   5.290  72.512  1.00  0.00    -0.098 C  
HETATM   10  C   UNL     1      -9.837   7.528  73.149  1.00  0.00    -0.262 C  
HETATM   11  OXT UNL     1      -7.089   4.218  72.416  1.00  0.00    -0.056 OA 
HETATM   12  O   UNL     1      -7.213   6.204  73.391  1.00  0.00    -0.087 OA 
ENDROOT
BRANCH   4  13
HETATM   13  CG1 UNL     1      -8.197   4.202  69.786  1.00  0.00    -0.068 C  
HETATM   14  CD1 UNL     1      -8.410   2.962  69.319  1.00  0.00    -0.087 C  
ENDBRANCH   4  13
BRANCH   8  15
HETATM   15  N   UNL     1     -11.237   9.265  71.901  1.00  0.00    -0.344 N  
HETATM   16  H   UNL     1     -10.348   9.649  71.578  1.00  0.00     0.000 HD 
HETATM   17  C   UNL     1     -12.408   9.939  71.629  1.00  0.00    -0.406 C  
HETATM   18  O   UNL     1     -13.493   9.588  72.072  1.00  0.00    -0.405 OA 
BRANCH  17  19
HETATM   19  C   UNL     1     -12.300  11.213  70.788  1.00  0.00    -0.406 C  
BRANCH  19  20
HETATM   20  C   UNL     1     -11.779  11.138  69.424  1.00  0.00    -0.332 A  
HETATM   21  N   UNL     1     -10.201   9.148  66.998  1.00  0.00    -0.247 NA 
HETATM   22  C   UNL     1     -11.826  12.161  68.495  1.00  0.00    -0.310 A  
HETATM   23  N   UNL     1     -11.180   9.968  68.953  1.00  0.00    -0.177 NA 
HETATM   24  C   UNL     1     -10.795  10.117  67.709  1.00  0.00    -0.292 A  
HETATM   25  S   UNL     1     -11.111  11.656  67.021  1.00  0.00    -0.312 SA 
HETATM   26  H2  UNL     1      -9.932   9.329  66.031  1.00  0.00     0.000 HD 
HETATM   27  H1  UNL     1     -10.013   8.233  67.407  1.00  0.00     0.000 HD 
ENDBRANCH  19  20
BRANCH  19  28
HETATM   28  N   UNL     1     -12.623  12.421  71.168  1.00  0.00    -0.325 NA 
HETATM   29  H   UNL     1     -12.300  13.250  70.671  1.00  0.00     0.000 HD 
BRANCH  28  30
HETATM   30  O   UNL     1     -13.439  12.506  72.299  1.00  0.00    -0.556 OA 
BRANCH  30  31
HETATM   31  C   UNL     1     -14.143  13.751  72.253  1.00  0.00    -0.531 C  
HETATM   32  O   UNL     1     -13.771  15.979  73.151  1.00  0.00    -0.597 OA 
HETATM   33  C   UNL     1     -13.318  14.995  72.578  1.00  0.00    -0.424 C  
HETATM   34  O   UNL     1     -12.047  14.955  72.114  1.00  0.00    -0.351 OA 
ENDBRANCH  30  31
ENDBRANCH  28  30
ENDBRANCH  19  28
ENDBRANCH  17  19
ENDBRANCH   8  15
TORSDOF 7
ENDMDL
MODEL       46
REMARK 921   NORMALIZED FREE ENERGY PREDICTED BY IDOCK:   -5.98 KCAL/MOL
REMARK 922        TOTAL FREE ENERGY PREDICTED BY IDOCK:   -9.77 KCAL/MOL
REMARK 923 INTER-LIGAND FREE ENERGY PREDICTED BY IDOCK:   -8.39 KCAL/MOL
REMARK 924 INTRA-LIGAND FREE ENERGY PREDICTED BY IDOCK:   -1.38 KCAL/MOL
REMARK 927      BINDING AFFINITY PREDICTED BY RF-SCORE:    0.00 PKD
ROOT
HETATM    1  C   UNL     1      -8.916  11.666  67.610  1.00  0.00    -0.166 C  
HETATM    2  S   UNL     1      -8.428  10.102  68.336  1.00  0.00    -0.122 SA 
HETATM    3  CG2 UNL     1      -7.802   9.371  66.824  1.00  0.00    -0.105 C  
HETATM    4  CB  UNL     1      -8.590   9.627  65.543  1.00  0.00    -0.162 C  
HETATM    5  O   UNL     1     -11.823  12.562  66.358  1.00  0.00    -0.428 OA 
HETATM    6  CA  UNL     1      -9.507  10.633  65.406  1.00  0.00    -0.215 C  
HETATM    7  N   UNL     1      -9.797  11.438  66.477  1.00  0.00    -0.203 N  
HETATM    8  CA  UNL     1     -10.135  12.373  68.301  1.00  0.00    -0.227 C  
HETATM    9  C   UNL     1     -10.208  10.878  64.078  1.00  0.00    -0.357 C  
HETATM   10  C   UNL     1     -10.777  12.264  66.885  1.00  0.00    -0.232 C  
HETATM   11  OXT UNL     1      -9.719  10.590  62.996  1.00  0.00    -0.320 OA 
HETATM   12  O   UNL     1     -11.413  11.478  64.114  1.00  0.00    -0.320 OA 
ENDROOT
BRANCH   4  13
HETATM   13  CG1 UNL     1      -8.305   8.621  64.502  1.00  0.00    -0.157 C  
HETATM   14  CD1 UNL     1      -7.118   8.331  63.946  1.00  0.00    -0.087 C  
ENDBRANCH   4  13
BRANCH   8  15
HETATM   15  N   UNL     1     -10.897  11.629  69.358  1.00  0.00    -0.430 N  
HETATM   16  H   UNL     1     -10.651  10.661  69.569  1.00  0.00     0.000 HD 
HETATM   17  C   UNL     1     -11.925  12.235  70.047  1.00  0.00    -0.304 C  
HETATM   18  O   UNL     1     -12.336  13.354  69.776  1.00  0.00    -0.261 OA 
BRANCH  17  19
HETATM   19  C   UNL     1     -12.603  11.417  71.150  1.00  0.00    -0.386 C  
BRANCH  19  20
HETATM   20  C   UNL     1     -12.230  10.018  71.346  1.00  0.00    -0.416 A  
HETATM   21  N   UNL     1      -9.629   7.739  71.963  1.00  0.00    -0.160 NA 
HETATM   22  C   UNL     1     -13.109   8.951  71.344  1.00  0.00    -0.269 A  
HETATM   23  N   UNL     1     -10.899   9.658  71.564  1.00  0.00    -0.261 NA 
HETATM   24  C   UNL     1     -10.792   8.361  71.723  1.00  0.00    -0.284 A  
HETATM   25  S   UNL     1     -12.262   7.484  71.614  1.00  0.00    -0.336 SA 
HETATM   26  H2  UNL     1      -9.618   6.726  72.083  1.00  0.00     0.000 HD 
HETATM   27  H1  UNL     1      -8.755   8.261  72.027  1.00  0.00     0.000 HD 
ENDBRANCH  19  20
BRANCH  19  28
HETATM   28  N   UNL     1     -13.530  11.840  71.968  1.00  0.00    -0.436 NA 
HETATM   29  H   UNL     1     -14.492  11.505  71.916  1.00  0.00     0.000 HD 
BRANCH  28  30
HETATM   30  O   UNL     1     -13.123  12.780  72.917  1.00  0.00    -0.076 OA 
BRANCH  30  31
HETATM   31  C   UNL     1     -13.828  14.002  72.672  1.00  0.00    -0.405 C  
HETATM   32  O   UNL     1     -13.467  16.343  73.214  1.00  0.00    -0.419 OA 
HETATM   33  C   UNL     1     -13.008  15.283  72.806  1.00  0.00    -0.438 C  
HETATM   34  O   UNL     1     -11.733  15.175  72.363  1.00  0.00    -0.406 OA 
ENDBRANCH  30  31
ENDBRANCH  28  30
ENDBRANCH  19  28
ENDBRANCH  17  19
ENDBRANCH   8  15
TORSDOF 7
ENDMDL
MODEL       47
REMARK 921   NORMALIZED FREE ENERGY PREDICTED BY IDOCK:   -5.96 KCAL/MOL
REMARK 922        TOTAL FREE ENERGY PREDICTED BY IDOCK:   -9.76 KCAL/MOL
REMARK 923 INTER-LIGAND FREE ENERGY PREDICTED BY IDOCK:   -8.87 KCAL/MOL
REMARK 924 INTRA-LIGAND FREE ENERGY PREDICTED BY IDOCK:   -0.89 KCAL/MOL
REMARK 927      BINDING AFFINITY PREDICTED BY RF-SCORE:    0.00 PKD
ROOT
HETATM    1  C   UNL     1      -8.047  16.059  68.725  1.00  0.00    -0.212 C  
HETATM    2  S   UNL     1      -6.893  15.382  67.533  1.00  0.00    -0.178 SA 
HETATM    3  CG2 UNL     1      -6.297  16.957  66.921  1.00  0.00    -0.202 C  
HETATM    4  CB  UNL     1      -7.322  18.071  66.734  1.00  0.00    -0.233 C  
HETATM    5  O   UNL     1     -11.242  16.759  68.365  1.00  0.00    -0.332 OA 
HETATM    6  CA  UNL     1      -8.560  18.066  67.318  1.00  0.00    -0.239 C  
HETATM    7  N   UNL     1      -8.951  16.991  68.073  1.00  0.00    -0.225 N  
HETATM    8  CA  UNL     1      -9.311  15.172  69.011  1.00  0.00    -0.219 C  
HETATM    9  C   UNL     1      -9.510  19.242  67.148  1.00  0.00    -0.323 C  
HETATM   10  C   UNL     1     -10.088  16.433  68.526  1.00  0.00    -0.248 C  
HETATM   11  OXT UNL     1      -9.134  20.387  66.942  1.00  0.00    -0.334 OA 
HETATM   12  O   UNL     1     -10.829  18.997  67.269  1.00  0.00    -0.472 OA 
ENDROOT
BRANCH   4  13
HETATM   13  CG1 UNL     1      -6.855  19.108  65.795  1.00  0.00    -0.307 C  
HETATM   14  CD1 UNL     1      -5.589  19.474  65.543  1.00  0.00    -0.189 C  
ENDBRANCH   4  13
BRANCH   8  15
HETATM   15  N   UNL     1      -9.551  13.961  68.159  1.00  0.00    -0.213 N  
HETATM   16  H   UNL     1      -8.841  13.669  67.487  1.00  0.00     0.000 HD 
HETATM   17  C   UNL     1     -10.718  13.237  68.272  1.00  0.00    -0.252 C  
HETATM   18  O   UNL     1     -11.650  13.588  68.983  1.00  0.00    -0.266 OA 
BRANCH  17  19
HETATM   19  C   UNL     1     -10.847  11.981  67.406  1.00  0.00    -0.242 C  
BRANCH  19  20
HETATM   20  C   UNL     1     -11.061  12.114  65.967  1.00  0.00    -0.313 A  
HETATM   21  N   UNL     1      -9.757  11.575  62.750  1.00  0.00    -0.564 NA 
HETATM   22  C   UNL     1     -12.196  12.635  65.374  1.00  0.00    -0.459 A  
HETATM   23  N   UNL     1     -10.086  11.695  65.058  1.00  0.00    -0.253 NA 
HETATM   24  C   UNL     1     -10.487  11.897  63.827  1.00  0.00    -0.423 A  
HETATM   25  S   UNL     1     -12.041  12.605  63.667  1.00  0.00    -0.565 SA 
HETATM   26  H2  UNL     1     -10.132  11.754  61.818  1.00  0.00     0.000 HD 
HETATM   27  H1  UNL     1      -8.833  11.155  62.846  1.00  0.00     0.000 HD 
ENDBRANCH  19  20
BRANCH  19  28
HETATM   28  N   UNL     1     -10.798  10.744  67.825  1.00  0.00    -0.247 NA 
HETATM   29  H   UNL     1     -10.317  10.014  67.302  1.00  0.00     0.000 HD 
BRANCH  28  30
HETATM   30  O   UNL     1     -11.448  10.485  69.034  1.00  0.00    -0.257 OA 
BRANCH  30  31
HETATM   31  C   UNL     1     -10.461  10.126  70.007  1.00  0.00    -0.274 C  
HETATM   32  O   UNL     1     -10.469   8.892  72.101  1.00  0.00    -0.336 OA 
HETATM   33  C   UNL     1     -10.829   8.967  70.932  1.00  0.00    -0.248 C  
HETATM   34  O   UNL     1     -11.532   7.978  70.331  1.00  0.00    -0.241 OA 
ENDBRANCH  30  31
ENDBRANCH  28  30
ENDBRANCH  19  28
ENDBRANCH  17  19
ENDBRANCH   8  15
TORSDOF 7
ENDMDL
MODEL       48
REMARK 921   NORMALIZED FREE ENERGY PREDICTED BY IDOCK:   -5.96 KCAL/MOL
REMARK 922        TOTAL FREE ENERGY PREDICTED BY IDOCK:   -9.75 KCAL/MOL
REMARK 923 INTER-LIGAND FREE ENERGY PREDICTED BY IDOCK:   -8.21 KCAL/MOL
REMARK 924 INTRA-LIGAND FREE ENERGY PREDICTED BY IDOCK:   -1.54 KCAL/MOL
REMARK 927      BINDING AFFINITY PREDICTED BY RF-SCORE:    0.00 PKD
ROOT
HETATM    1  C   UNL     1      -8.203  16.005  69.328  1.00  0.00    -0.212 C  
HETATM    2  S   UNL     1      -6.995  15.187  68.287  1.00  0.00    -0.125 SA 
HETATM    3  CG2 UNL     1      -6.216  16.682  67.679  1.00  0.00    -0.148 C  
HETATM    4  CB  UNL     1      -7.126  17.861  67.345  1.00  0.00    -0.201 C  
HETATM    5  O   UNL     1     -11.279  16.929  68.617  1.00  0.00    -0.258 OA 
HETATM    6  CA  UNL     1      -8.411  17.978  67.799  1.00  0.00    -0.247 C  
HETATM    7  N   UNL     1      -8.960  16.972  68.551  1.00  0.00    -0.256 N  
HETATM    8  CA  UNL     1      -9.556  15.231  69.517  1.00  0.00    -0.215 C  
HETATM    9  C   UNL     1      -9.242  19.213  67.488  1.00  0.00    -0.296 C  
HETATM   10  C   UNL     1     -10.178  16.523  68.907  1.00  0.00    -0.268 C  
HETATM   11  OXT UNL     1      -8.757  20.315  67.278  1.00  0.00    -0.337 OA 
HETATM   12  O   UNL     1     -10.582  19.075  67.483  1.00  0.00    -0.428 OA 
ENDROOT
BRANCH   4  13
HETATM   13  CG1 UNL     1      -6.486  18.815  66.419  1.00  0.00    -0.223 C  
HETATM   14  CD1 UNL     1      -6.239  18.647  65.111  1.00  0.00    -0.285 C  
ENDBRANCH   4  13
BRANCH   8  15
HETATM   15  N   UNL     1      -9.808  14.003  68.692  1.00  0.00    -0.299 N  
HETATM   16  H   UNL     1      -9.137  13.736  67.971  1.00  0.00     0.000 HD 
HETATM   17  C   UNL     1     -10.932  13.232  68.896  1.00  0.00    -0.240 C  
HETATM   18  O   UNL     1     -11.822  13.551  69.672  1.00  0.00    -0.300 OA 
BRANCH  17  19
HETATM   19  C   UNL     1     -11.071  11.965  68.049  1.00  0.00    -0.240 C  
BRANCH  19  20
HETATM   20  C   UNL     1     -10.233  10.804  68.342  1.00  0.00    -0.175 A  
HETATM   21  N   UNL     1      -7.416   9.580  70.044  1.00  0.00    -0.107 NA 
HETATM   22  C   UNL     1     -10.453   9.523  67.870  1.00  0.00    -0.241 A  
HETATM   23  N   UNL     1      -9.110  10.923  69.163  1.00  0.00    -0.101 NA 
HETATM   24  C   UNL     1      -8.514   9.764  69.298  1.00  0.00    -0.152 A  
HETATM   25  S   UNL     1      -9.241   8.460  68.454  1.00  0.00    -0.134 SA 
HETATM   26  H2  UNL     1      -7.005   8.649  70.112  1.00  0.00     0.000 HD 
HETATM   27  H1  UNL     1      -6.983  10.356  70.546  1.00  0.00     0.000 HD 
ENDBRANCH  19  20
BRANCH  19  28
HETATM   28  N   UNL     1     -11.882  11.795  67.038  1.00  0.00    -0.607 NA 
HETATM   29  H   UNL     1     -12.183  10.869  66.735  1.00  0.00     0.000 HD 
BRANCH  28  30
HETATM   30  O   UNL     1     -12.309  12.960  66.398  1.00  0.00    -0.463 OA 
BRANCH  30  31
HETATM   31  C   UNL     1     -11.597  13.082  65.162  1.00  0.00    -0.324 C  
HETATM   32  O   UNL     1     -11.198  11.637  63.249  1.00  0.00    -0.347 OA 
HETATM   33  C   UNL     1     -11.989  12.092  64.067  1.00  0.00    -0.440 C  
HETATM   34  O   UNL     1     -13.312  11.807  64.024  1.00  0.00    -0.541 OA 
ENDBRANCH  30  31
ENDBRANCH  28  30
ENDBRANCH  19  28
ENDBRANCH  17  19
ENDBRANCH   8  15
TORSDOF 7
ENDMDL
MODEL       49
REMARK 921   NORMALIZED FREE ENERGY PREDICTED BY IDOCK:   -5.96 KCAL/MOL
REMARK 922        TOTAL FREE ENERGY PREDICTED BY IDOCK:   -9.75 KCAL/MOL
REMARK 923 INTER-LIGAND FREE ENERGY PREDICTED BY IDOCK:   -8.61 KCAL/MOL
REMARK 924 INTRA-LIGAND FREE ENERGY PREDICTED BY IDOCK:   -1.14 KCAL/MOL
REMARK 927      BINDING AFFINITY PREDICTED BY RF-SCORE:    0.00 PKD
ROOT
HETATM    1  C   UNL     1      -8.687   8.987  69.170  1.00  0.00    -0.135 C  
HETATM    2  S   UNL     1      -9.610   9.216  70.688  1.00  0.00    -0.273 SA 
HETATM    3  CG2 UNL     1      -9.538   7.507  71.221  1.00  0.00    -0.156 C  
HETATM    4  CB  UNL     1      -9.705   6.431  70.153  1.00  0.00    -0.185 C  
HETATM    5  O   UNL     1      -9.792   8.336  66.140  1.00  0.00    -0.196 OA 
HETATM    6  CA  UNL     1      -9.554   6.664  68.813  1.00  0.00    -0.131 C  
HETATM    7  N   UNL     1      -9.292   7.935  68.370  1.00  0.00    -0.141 N  
HETATM    8  CA  UNL     1      -9.064   9.967  68.003  1.00  0.00    -0.131 C  
HETATM    9  C   UNL     1      -9.666   5.532  67.803  1.00  0.00    -0.130 C  
HETATM   10  C   UNL     1      -9.386   8.650  67.235  1.00  0.00    -0.152 C  
HETATM   11  OXT UNL     1      -9.413   4.366  68.069  1.00  0.00    -0.140 OA 
HETATM   12  O   UNL     1     -10.028   5.854  66.547  1.00  0.00    -0.162 OA 
ENDROOT
BRANCH   4  13
HETATM   13  CG1 UNL     1     -10.122   5.136  70.724  1.00  0.00    -0.303 C  
HETATM   14  CD1 UNL     1      -9.659   4.545  71.837  1.00  0.00    -0.211 C  
ENDBRANCH   4  13
BRANCH   8  15
HETATM   15  N   UNL     1     -10.256  10.864  68.170  1.00  0.00    -0.170 N  
HETATM   16  H   UNL     1     -11.194  10.464  68.145  1.00  0.00     0.000 HD 
HETATM   17  C   UNL     1     -10.099  12.220  68.357  1.00  0.00    -0.215 C  
HETATM   18  O   UNL     1      -9.012  12.777  68.297  1.00  0.00    -0.194 OA 
BRANCH  17  19
HETATM   19  C   UNL     1     -11.370  13.045  68.580  1.00  0.00    -0.291 C  
BRANCH  19  20
HETATM   20  C   UNL     1     -12.102  12.919  69.839  1.00  0.00    -0.265 A  
HETATM   21  N   UNL     1     -13.419  10.736  72.255  1.00  0.00    -0.539 NA 
HETATM   22  C   UNL     1     -12.567  13.976  70.600  1.00  0.00    -0.344 A  
HETATM   23  N   UNL     1     -12.381  11.662  70.379  1.00  0.00    -0.312 NA 
HETATM   24  C   UNL     1     -13.033  11.782  71.510  1.00  0.00    -0.341 A  
HETATM   25  S   UNL     1     -13.365  13.391  72.000  1.00  0.00    -0.480 SA 
HETATM   26  H2  UNL     1     -13.919  10.901  73.129  1.00  0.00     0.000 HD 
HETATM   27  H1  UNL     1     -13.222   9.779  71.963  1.00  0.00     0.000 HD 
ENDBRANCH  19  20
BRANCH  19  28
HETATM   28  N   UNL     1     -11.910  13.879  67.731  1.00  0.00    -0.364 NA 
HETATM   29  H   UNL     1     -12.907  13.862  67.515  1.00  0.00     0.000 HD 
BRANCH  28  30
HETATM   30  O   UNL     1     -11.039  14.795  67.138  1.00  0.00    -0.314 OA 
BRANCH  30  31
HETATM   31  C   UNL     1     -11.338  14.861  65.740  1.00  0.00    -0.314 C  
HETATM   32  O   UNL     1     -11.437  16.630  64.077  1.00  0.00    -1.192 OA 
HETATM   33  C   UNL     1     -10.840  16.107  65.011  1.00  0.00    -0.363 C  
HETATM   34  O   UNL     1      -9.634  16.555  65.434  1.00  0.00    -0.462 OA 
ENDBRANCH  30  31
ENDBRANCH  28  30
ENDBRANCH  19  28
ENDBRANCH  17  19
ENDBRANCH   8  15
TORSDOF 7
ENDMDL
MODEL       50
REMARK 921   NORMALIZED FREE ENERGY PREDICTED BY IDOCK:   -5.95 KCAL/MOL
REMARK 922        TOTAL FREE ENERGY PREDICTED BY IDOCK:   -9.74 KCAL/MOL
REMARK 923 INTER-LIGAND FREE ENERGY PREDICTED BY IDOCK:   -8.62 KCAL/MOL
REMARK 924 INTRA-LIGAND FREE ENERGY PREDICTED BY IDOCK:   -1.12 KCAL/MOL
REMARK 927      BINDING AFFINITY PREDICTED BY RF-SCORE:    0.00 PKD
ROOT
HETATM    1  C   UNL     1      -9.056   7.786  70.712  1.00  0.00    -0.149 C  
HETATM    2  S   UNL     1     -10.395   8.507  71.658  1.00  0.00    -0.291 SA 
HETATM    3  CG2 UNL     1     -10.580   7.144  72.807  1.00  0.00    -0.268 C  
HETATM    4  CB  UNL     1     -10.458   5.731  72.244  1.00  0.00    -0.253 C  
HETATM    5  O   UNL     1      -9.186   5.938  67.992  1.00  0.00    -0.114 OA 
HETATM    6  CA  UNL     1      -9.883   5.444  71.036  1.00  0.00    -0.187 C  
HETATM    7  N   UNL     1      -9.431   6.464  70.239  1.00  0.00    -0.161 N  
HETATM    8  CA  UNL     1      -8.998   8.211  69.202  1.00  0.00    -0.144 C  
HETATM    9  C   UNL     1      -9.729   4.006  70.564  1.00  0.00    -0.188 C  
HETATM   10  C   UNL     1      -9.129   6.679  68.946  1.00  0.00    -0.132 C  
HETATM   11  OXT UNL     1      -9.631   3.055  71.325  1.00  0.00    -0.141 OA 
HETATM   12  O   UNL     1      -9.663   3.793  69.236  1.00  0.00    -0.176 OA 
ENDROOT
BRANCH   4  13
HETATM   13  CG1 UNL     1     -11.097   4.726  73.115  1.00  0.00    -0.388 C  
HETATM   14  CD1 UNL     1     -10.665   4.279  74.304  1.00  0.00    -0.268 C  
ENDBRANCH   4  13
BRANCH   8  15
HETATM   15  N   UNL     1     -10.136   9.008  68.632  1.00  0.00    -0.184 N  
HETATM   16  H   UNL     1     -11.065   8.590  68.579  1.00  0.00     0.000 HD 
HETATM   17  C   UNL     1      -9.941  10.295  68.181  1.00  0.00    -0.146 C  
HETATM   18  O   UNL     1      -8.836  10.818  68.123  1.00  0.00    -0.125 OA 
BRANCH  17  19
HETATM   19  C   UNL     1     -11.173  11.051  67.675  1.00  0.00    -0.305 C  
BRANCH  19  20
HETATM   20  C   UNL     1     -11.176  11.604  66.322  1.00  0.00    -0.271 A  
HETATM   21  N   UNL     1     -12.619  13.917  64.108  1.00  0.00    -0.684 NA 
HETATM   22  C   UNL     1     -10.326  11.220  65.302  1.00  0.00    -0.280 A  
HETATM   23  N   UNL     1     -12.078  12.608  65.964  1.00  0.00    -0.574 NA 
HETATM   24  C   UNL     1     -11.900  12.961  64.714  1.00  0.00    -0.363 A  
HETATM   25  S   UNL     1     -10.660  12.120  63.881  1.00  0.00    -0.458 SA 
HETATM   26  H2  UNL     1     -12.425  14.147  63.133  1.00  0.00     0.000 HD 
HETATM   27  H1  UNL     1     -13.357  14.417  64.603  1.00  0.00     0.000 HD 
ENDBRANCH  19  20
BRANCH  19  28
HETATM   28  N   UNL     1     -12.269  11.281  68.347  1.00  0.00    -0.638 NA 
HETATM   29  H   UNL     1     -13.103  11.667  67.907  1.00  0.00     0.000 HD 
BRANCH  28  30
HETATM   30  O   UNL     1     -12.228  10.965  69.707  1.00  0.00    -0.326 OA 
BRANCH  30  31
HETATM   31  C   UNL     1     -12.222  12.187  70.453  1.00  0.00    -0.294 C  
HETATM   32  O   UNL     1     -13.754  13.276  71.994  1.00  0.00    -0.462 OA 
HETATM   33  C   UNL     1     -13.189  12.250  71.634  1.00  0.00    -0.257 C  
HETATM   34  O   UNL     1     -13.319  11.083  72.309  1.00  0.00    -0.390 OA 
ENDBRANCH  30  31
ENDBRANCH  28  30
ENDBRANCH  19  28
ENDBRANCH  17  19
ENDBRANCH   8  15
TORSDOF 7
ENDMDL
MODEL       51
REMARK 921   NORMALIZED FREE ENERGY PREDICTED BY IDOCK:   -5.93 KCAL/MOL
REMARK 922        TOTAL FREE ENERGY PREDICTED BY IDOCK:   -9.71 KCAL/MOL
REMARK 923 INTER-LIGAND FREE ENERGY PREDICTED BY IDOCK:   -8.34 KCAL/MOL
REMARK 924 INTRA-LIGAND FREE ENERGY PREDICTED BY IDOCK:   -1.37 KCAL/MOL
REMARK 927      BINDING AFFINITY PREDICTED BY RF-SCORE:    0.00 PKD
ROOT
HETATM    1  C   UNL     1     -10.319  18.117  67.000  1.00  0.00    -0.380 C  
HETATM    2  S   UNL     1     -10.425  18.771  68.664  1.00  0.00     0.092 SA 
HETATM    3  CG2 UNL     1      -9.201  20.062  68.446  1.00  0.00    -0.136 C  
HETATM    4  CB  UNL     1      -7.959  19.719  67.630  1.00  0.00    -0.325 C  
HETATM    5  O   UNL     1      -8.435  15.684  65.835  1.00  0.00    -0.024 OA 
HETATM    6  CA  UNL     1      -7.881  18.649  66.781  1.00  0.00    -0.245 C  
HETATM    7  N   UNL     1      -8.941  17.785  66.679  1.00  0.00    -0.259 N  
HETATM    8  CA  UNL     1     -10.626  16.583  66.862  1.00  0.00    -0.238 C  
HETATM    9  C   UNL     1      -6.636  18.403  65.942  1.00  0.00    -0.271 C  
HETATM   10  C   UNL     1      -9.184  16.526  66.273  1.00  0.00    -0.310 C  
HETATM   11  OXT UNL     1      -5.881  19.294  65.582  1.00  0.00    -0.158 OA 
HETATM   12  O   UNL     1      -6.389  17.137  65.554  1.00  0.00     0.243 OA 
ENDROOT
BRANCH   4  13
HETATM   13  CG1 UNL     1      -6.833  20.629  67.918  1.00  0.00    -0.335 C  
HETATM   14  CD1 UNL     1      -6.008  20.599  68.976  1.00  0.00    -0.380 C  
ENDBRANCH   4  13
BRANCH   8  15
HETATM   15  N   UNL     1     -10.791  15.765  68.110  1.00  0.00    -0.295 N  
HETATM   16  H   UNL     1     -10.236  15.990  68.936  1.00  0.00     0.000 HD 
HETATM   17  C   UNL     1     -11.681  14.714  68.153  1.00  0.00    -0.330 C  
HETATM   18  O   UNL     1     -12.301  14.330  67.172  1.00  0.00    -0.360 OA 
BRANCH  17  19
HETATM   19  C   UNL     1     -11.826  13.978  69.488  1.00  0.00    -0.325 C  
BRANCH  19  20
HETATM   20  C   UNL     1     -12.390  14.676  70.641  1.00  0.00    -0.331 A  
HETATM   21  N   UNL     1     -11.820  16.958  73.249  1.00  0.00    -0.198 NA 
HETATM   22  C   UNL     1     -13.695  14.559  71.084  1.00  0.00    -0.272 A  
HETATM   23  N   UNL     1     -11.608  15.552  71.398  1.00  0.00    -0.379 NA 
HETATM   24  C   UNL     1     -12.313  16.072  72.373  1.00  0.00    -0.497 A  
HETATM   25  S   UNL     1     -13.944  15.550  72.461  1.00  0.00    -0.488 SA 
HETATM   26  H2  UNL     1     -12.425  17.330  73.981  1.00  0.00     0.000 HD 
HETATM   27  H1  UNL     1     -10.849  17.268  73.197  1.00  0.00     0.000 HD 
ENDBRANCH  19  20
BRANCH  19  28
HETATM   28  N   UNL     1     -11.476  12.743  69.732  1.00  0.00    -0.492 NA 
HETATM   29  H   UNL     1     -10.795  12.505  70.453  1.00  0.00     0.000 HD 
BRANCH  28  30
HETATM   30  O   UNL     1     -12.092  11.768  68.943  1.00  0.00    -0.300 OA 
BRANCH  30  31
HETATM   31  C   UNL     1     -11.796  10.484  69.502  1.00  0.00    -0.215 C  
HETATM   32  O   UNL     1     -11.151   9.663  71.697  1.00  0.00    -0.348 OA 
HETATM   33  C   UNL     1     -11.877  10.385  71.024  1.00  0.00    -0.361 C  
HETATM   34  O   UNL     1     -12.876  11.114  71.576  1.00  0.00    -0.423 OA 
ENDBRANCH  30  31
ENDBRANCH  28  30
ENDBRANCH  19  28
ENDBRANCH  17  19
ENDBRANCH   8  15
TORSDOF 7
ENDMDL
MODEL       52
REMARK 921   NORMALIZED FREE ENERGY PREDICTED BY IDOCK:   -5.91 KCAL/MOL
REMARK 922        TOTAL FREE ENERGY PREDICTED BY IDOCK:   -9.68 KCAL/MOL
REMARK 923 INTER-LIGAND FREE ENERGY PREDICTED BY IDOCK:   -7.75 KCAL/MOL
REMARK 924 INTRA-LIGAND FREE ENERGY PREDICTED BY IDOCK:   -1.93 KCAL/MOL
REMARK 927      BINDING AFFINITY PREDICTED BY RF-SCORE:    0.00 PKD
ROOT
HETATM    1  C   UNL     1     -10.641   8.332  68.821  1.00  0.00    -0.123 C  
HETATM    2  S   UNL     1     -10.636   7.672  67.155  1.00  0.00    -0.294 SA 
HETATM    3  CG2 UNL     1     -10.059   6.034  67.595  1.00  0.00    -0.160 C  
HETATM    4  CB  UNL     1      -8.977   5.936  68.666  1.00  0.00    -0.116 C  
HETATM    5  O   UNL     1      -8.269   9.954  70.425  1.00  0.00    -0.172 OA 
HETATM    6  CA  UNL     1      -8.682   6.946  69.540  1.00  0.00    -0.133 C  
HETATM    7  N   UNL     1      -9.338   8.146  69.437  1.00  0.00    -0.155 N  
HETATM    8  CA  UNL     1     -10.372   9.875  68.930  1.00  0.00    -0.205 C  
HETATM    9  C   UNL     1      -7.640   6.759  70.631  1.00  0.00    -0.095 C  
HETATM   10  C   UNL     1      -9.171   9.426  69.815  1.00  0.00    -0.196 C  
HETATM   11  OXT UNL     1      -7.365   5.673  71.120  1.00  0.00    -0.080 OA 
HETATM   12  O   UNL     1      -7.023   7.863  71.097  1.00  0.00    -0.047 OA 
ENDROOT
BRANCH   4  13
HETATM   13  CG1 UNL     1      -8.240   4.659  68.601  1.00  0.00    -0.082 C  
HETATM   14  CD1 UNL     1      -8.752   3.422  68.502  1.00  0.00    -0.139 C  
ENDBRANCH   4  13
BRANCH   8  15
HETATM   15  N   UNL     1      -9.956  10.625  67.698  1.00  0.00    -0.166 N  
HETATM   16  H   UNL     1      -8.984  10.588  67.392  1.00  0.00     0.000 HD 
HETATM   17  C   UNL     1     -10.870  11.362  66.977  1.00  0.00    -0.282 C  
HETATM   18  O   UNL     1     -12.025  11.529  67.344  1.00  0.00    -0.623 OA 
BRANCH  17  19
HETATM   19  C   UNL     1     -10.366  12.041  65.700  1.00  0.00    -0.253 C  
BRANCH  19  20
HETATM   20  C   UNL     1     -10.357  13.500  65.613  1.00  0.00    -0.297 A  
HETATM   21  N   UNL     1     -11.537  16.339  63.916  1.00  0.00    -1.573 NA 
HETATM   22  C   UNL     1      -9.673  14.346  66.467  1.00  0.00    -0.290 A  
HETATM   23  N   UNL     1     -11.081  14.160  64.618  1.00  0.00    -0.381 NA 
HETATM   24  C   UNL     1     -10.941  15.458  64.731  1.00  0.00    -0.393 A  
HETATM   25  S   UNL     1      -9.935  15.980  66.017  1.00  0.00    -0.363 SA 
HETATM   26  H2  UNL     1     -11.390  17.338  64.063  1.00  0.00     0.000 HD 
HETATM   27  H1  UNL     1     -12.135  16.029  63.150  1.00  0.00     0.000 HD 
ENDBRANCH  19  20
BRANCH  19  28
HETATM   28  N   UNL     1      -9.934  11.441  64.623  1.00  0.00    -0.254 NA 
HETATM   29  H   UNL     1      -9.571  11.958  63.823  1.00  0.00     0.000 HD 
BRANCH  28  30
HETATM   30  O   UNL     1     -10.000  10.045  64.635  1.00  0.00    -0.309 OA 
BRANCH  30  31
HETATM   31  C   UNL     1      -8.770   9.532  64.115  1.00  0.00    -0.215 C  
HETATM   32  O   UNL     1      -6.414  10.022  64.453  1.00  0.00    -0.119 OA 
HETATM   33  C   UNL     1      -7.521   9.831  64.942  1.00  0.00    -0.129 C  
HETATM   34  O   UNL     1      -7.719   9.798  66.281  1.00  0.00    -0.100 OA 
ENDBRANCH  30  31
ENDBRANCH  28  30
ENDBRANCH  19  28
ENDBRANCH  17  19
ENDBRANCH   8  15
TORSDOF 7
ENDMDL
MODEL       53
REMARK 921   NORMALIZED FREE ENERGY PREDICTED BY IDOCK:   -5.90 KCAL/MOL
REMARK 922        TOTAL FREE ENERGY PREDICTED BY IDOCK:   -9.67 KCAL/MOL
REMARK 923 INTER-LIGAND FREE ENERGY PREDICTED BY IDOCK:   -8.84 KCAL/MOL
REMARK 924 INTRA-LIGAND FREE ENERGY PREDICTED BY IDOCK:   -0.84 KCAL/MOL
REMARK 927      BINDING AFFINITY PREDICTED BY RF-SCORE:    0.00 PKD
ROOT
HETATM    1  C   UNL     1      -9.385  11.708  67.373  1.00  0.00    -0.168 C  
HETATM    2  S   UNL     1     -10.435  10.377  66.792  1.00  0.00    -0.201 SA 
HETATM    3  CG2 UNL     1     -10.672  11.022  65.137  1.00  0.00    -0.183 C  
HETATM    4  CB  UNL     1     -10.869  12.529  64.994  1.00  0.00    -0.324 C  
HETATM    5  O   UNL     1     -10.215  14.486  68.928  1.00  0.00    -0.231 OA 
HETATM    6  CA  UNL     1     -10.532  13.432  65.964  1.00  0.00    -0.294 C  
HETATM    7  N   UNL     1     -10.039  12.988  67.164  1.00  0.00    -0.241 N  
HETATM    8  CA  UNL     1      -9.480  12.011  68.910  1.00  0.00     0.148 C  
HETATM    9  C   UNL     1     -10.688  14.927  65.731  1.00  0.00    -0.331 C  
HETATM   10  C   UNL     1      -9.897  13.433  68.426  1.00  0.00    -0.216 C  
HETATM   11  OXT UNL     1     -10.639  15.444  64.624  1.00  0.00    -0.328 OA 
HETATM   12  O   UNL     1     -10.853  15.711  66.814  1.00  0.00    -0.317 OA 
ENDROOT
BRANCH   4  13
HETATM   13  CG1 UNL     1     -11.532  12.887  63.725  1.00  0.00    -0.519 C  
HETATM   14  CD1 UNL     1     -12.490  12.204  63.080  1.00  0.00    -0.365 C  
ENDBRANCH   4  13
BRANCH   8  15
HETATM   15  N   UNL     1     -10.540  11.323  69.719  1.00  0.00    -0.441 N  
HETATM   16  H   UNL     1     -11.458  11.758  69.817  1.00  0.00     0.000 HD 
HETATM   17  C   UNL     1     -10.291  10.113  70.329  1.00  0.00    -0.174 C  
HETATM   18  O   UNL     1      -9.186   9.589  70.335  1.00  0.00    -0.242 OA 
BRANCH  17  19
HETATM   19  C   UNL     1     -11.453   9.458  71.080  1.00  0.00    -0.352 C  
BRANCH  19  20
HETATM   20  C   UNL     1     -11.254   8.167  71.735  1.00  0.00    -0.272 A  
HETATM   21  N   UNL     1      -9.890   6.456  74.482  1.00  0.00    -0.308 NA 
HETATM   22  C   UNL     1     -11.729   6.955  71.268  1.00  0.00    -0.328 A  
HETATM   23  N   UNL     1     -10.546   8.076  72.935  1.00  0.00    -0.356 NA 
HETATM   24  C   UNL     1     -10.497   6.834  73.348  1.00  0.00    -0.310 A  
HETATM   25  S   UNL     1     -11.280   5.692  72.337  1.00  0.00    -0.262 SA 
HETATM   26  H2  UNL     1      -9.895   5.471  74.749  1.00  0.00     0.000 HD 
HETATM   27  H1  UNL     1      -9.424   7.135  75.083  1.00  0.00     0.000 HD 
ENDBRANCH  19  20
BRANCH  19  28
HETATM   28  N   UNL     1     -12.664   9.935  71.199  1.00  0.00    -0.347 NA 
HETATM   29  H   UNL     1     -13.451   9.350  71.479  1.00  0.00     0.000 HD 
BRANCH  28  30
HETATM   30  O   UNL     1     -12.814  11.295  70.918  1.00  0.00    -0.319 OA 
BRANCH  30  31
HETATM   31  C   UNL     1     -13.394  11.930  72.063  1.00  0.00    -0.320 C  
HETATM   32  O   UNL     1     -13.122  14.076  73.170  1.00  0.00    -0.525 OA 
HETATM   33  C   UNL     1     -13.251  13.449  72.125  1.00  0.00    -0.462 C  
HETATM   34  O   UNL     1     -13.352  14.067  70.924  1.00  0.00    -0.252 OA 
ENDBRANCH  30  31
ENDBRANCH  28  30
ENDBRANCH  19  28
ENDBRANCH  17  19
ENDBRANCH   8  15
TORSDOF 7
ENDMDL
MODEL       54
REMARK 921   NORMALIZED FREE ENERGY PREDICTED BY IDOCK:   -5.90 KCAL/MOL
REMARK 922        TOTAL FREE ENERGY PREDICTED BY IDOCK:   -9.66 KCAL/MOL
REMARK 923 INTER-LIGAND FREE ENERGY PREDICTED BY IDOCK:   -8.35 KCAL/MOL
REMARK 924 INTRA-LIGAND FREE ENERGY PREDICTED BY IDOCK:   -1.32 KCAL/MOL
REMARK 927      BINDING AFFINITY PREDICTED BY RF-SCORE:    0.00 PKD
ROOT
HETATM    1  C   UNL     1      -8.361  10.812  68.090  1.00  0.00    -0.120 C  
HETATM    2  S   UNL     1     -10.095  11.175  68.359  1.00  0.00    -0.190 SA 
HETATM    3  CG2 UNL     1     -10.648   9.471  68.397  1.00  0.00    -0.219 C  
HETATM    4  CB  UNL     1     -10.015   8.506  67.399  1.00  0.00    -0.275 C  
HETATM    5  O   UNL     1      -6.701  10.553  65.261  1.00  0.00    -0.117 OA 
HETATM    6  CA  UNL     1      -8.841   8.757  66.742  1.00  0.00    -0.129 C  
HETATM    7  N   UNL     1      -8.202   9.956  66.927  1.00  0.00    -0.120 N  
HETATM    8  CA  UNL     1      -7.566  11.901  67.285  1.00  0.00    -0.154 C  
HETATM    9  C   UNL     1      -8.227   7.722  65.812  1.00  0.00    -0.132 C  
HETATM   10  C   UNL     1      -7.289  10.722  66.305  1.00  0.00    -0.138 C  
HETATM   11  OXT UNL     1      -8.404   6.519  65.933  1.00  0.00    -0.127 OA 
HETATM   12  O   UNL     1      -7.420   8.170  64.831  1.00  0.00    -0.083 OA 
ENDROOT
BRANCH   4  13
HETATM   13  CG1 UNL     1     -10.851   7.312  67.169  1.00  0.00    -0.378 C  
HETATM   14  CD1 UNL     1     -11.101   6.310  68.026  1.00  0.00    -0.365 C  
ENDBRANCH   4  13
BRANCH   8  15
HETATM   15  N   UNL     1      -8.326  13.032  66.656  1.00  0.00    -0.416 N  
HETATM   16  H   UNL     1      -8.578  12.980  65.669  1.00  0.00     0.000 HD 
HETATM   17  C   UNL     1      -8.687  14.138  67.394  1.00  0.00    -0.210 C  
HETATM   18  O   UNL     1      -8.330  14.309  68.551  1.00  0.00    -0.151 OA 
BRANCH  17  19
HETATM   19  C   UNL     1      -9.515  15.212  66.681  1.00  0.00    -0.263 C  
BRANCH  19  20
HETATM   20  C   UNL     1      -9.281  16.623  66.982  1.00  0.00    -0.220 A  
HETATM   21  N   UNL     1     -10.421  19.485  68.669  1.00  0.00    -0.507 NA 
HETATM   22  C   UNL     1      -8.204  17.366  66.535  1.00  0.00    -0.276 A  
HETATM   23  N   UNL     1     -10.171  17.338  67.787  1.00  0.00    -0.317 NA 
HETATM   24  C   UNL     1      -9.766  18.575  67.933  1.00  0.00    -0.314 A  
HETATM   25  S   UNL     1      -8.310  18.974  67.121  1.00  0.00    -0.285 SA 
HETATM   26  H2  UNL     1     -10.047  20.431  68.746  1.00  0.00     0.000 HD 
HETATM   27  H1  UNL     1     -11.288  19.248  69.152  1.00  0.00     0.000 HD 
ENDBRANCH  19  20
BRANCH  19  28
HETATM   28  N   UNL     1     -10.459  15.004  65.803  1.00  0.00    -0.315 NA 
HETATM   29  H   UNL     1     -11.431  15.255  65.983  1.00  0.00     0.000 HD 
BRANCH  28  30
HETATM   30  O   UNL     1     -10.056  14.416  64.601  1.00  0.00    -0.293 OA 
BRANCH  30  31
HETATM   31  C   UNL     1     -10.881  13.271  64.361  1.00  0.00    -0.403 C  
HETATM   32  O   UNL     1     -13.131  12.602  64.987  1.00  0.00    -0.808 OA 
HETATM   33  C   UNL     1     -12.380  13.476  64.569  1.00  0.00    -0.355 C  
HETATM   34  O   UNL     1     -12.835  14.691  64.183  1.00  0.00    -0.667 OA 
ENDBRANCH  30  31
ENDBRANCH  28  30
ENDBRANCH  19  28
ENDBRANCH  17  19
ENDBRANCH   8  15
TORSDOF 7
ENDMDL
MODEL       55
REMARK 921   NORMALIZED FREE ENERGY PREDICTED BY IDOCK:   -5.89 KCAL/MOL
REMARK 922        TOTAL FREE ENERGY PREDICTED BY IDOCK:   -9.66 KCAL/MOL
REMARK 923 INTER-LIGAND FREE ENERGY PREDICTED BY IDOCK:   -8.19 KCAL/MOL
REMARK 924 INTRA-LIGAND FREE ENERGY PREDICTED BY IDOCK:   -1.46 KCAL/MOL
REMARK 927      BINDING AFFINITY PREDICTED BY RF-SCORE:    0.00 PKD
ROOT
HETATM    1  C   UNL     1      -8.629   9.604  68.565  1.00  0.00    -0.119 C  
HETATM    2  S   UNL     1      -9.843  10.404  69.613  1.00  0.00    -0.072 SA 
HETATM    3  CG2 UNL     1     -10.323   8.932  70.515  1.00  0.00    -0.203 C  
HETATM    4  CB  UNL     1     -10.449   7.634  69.724  1.00  0.00    -0.232 C  
HETATM    5  O   UNL     1      -9.006   8.288  65.573  1.00  0.00    -0.154 OA 
HETATM    6  CA  UNL     1      -9.894   7.444  68.487  1.00  0.00    -0.159 C  
HETATM    7  N   UNL     1      -9.230   8.475  67.875  1.00  0.00    -0.139 N  
HETATM    8  CA  UNL     1      -8.438  10.253  67.148  1.00  0.00    -0.125 C  
HETATM    9  C   UNL     1      -9.997   6.101  67.781  1.00  0.00    -0.127 C  
HETATM   10  C   UNL     1      -8.845   8.837  66.638  1.00  0.00    -0.131 C  
HETATM   11  OXT UNL     1     -10.108   5.037  68.372  1.00  0.00    -0.157 OA 
HETATM   12  O   UNL     1      -9.923   6.099  66.436  1.00  0.00    -0.151 OA 
ENDROOT
BRANCH   4  13
HETATM   13  CG1 UNL     1     -11.298   6.641  70.410  1.00  0.00    -0.421 C  
HETATM   14  CD1 UNL     1     -12.252   6.873  71.324  1.00  0.00    -0.427 C  
ENDBRANCH   4  13
BRANCH   8  15
HETATM   15  N   UNL     1      -9.383  11.335  66.715  1.00  0.00    -0.174 N  
HETATM   16  H   UNL     1     -10.290  11.083  66.322  1.00  0.00     0.000 HD 
HETATM   17  C   UNL     1      -9.041  12.664  66.841  1.00  0.00    -0.218 C  
HETATM   18  O   UNL     1      -7.934  13.032  67.209  1.00  0.00    -0.172 OA 
BRANCH  17  19
HETATM   19  C   UNL     1     -10.095  13.697  66.431  1.00  0.00    -0.295 C  
BRANCH  19  20
HETATM   20  C   UNL     1     -10.418  14.798  67.336  1.00  0.00    -0.256 A  
HETATM   21  N   UNL     1     -12.348  15.875  70.065  1.00  0.00    -0.408 NA 
HETATM   22  C   UNL     1      -9.830  16.050  67.311  1.00  0.00    -0.236 A  
HETATM   23  N   UNL     1     -11.381  14.642  68.335  1.00  0.00    -0.278 NA 
HETATM   24  C   UNL     1     -11.504  15.745  69.032  1.00  0.00    -0.391 A  
HETATM   25  S   UNL     1     -10.493  17.040  68.544  1.00  0.00    -0.386 SA 
HETATM   26  H2  UNL     1     -12.390  16.761  70.570  1.00  0.00     0.000 HD 
HETATM   27  H1  UNL     1     -12.950  15.105  70.355  1.00  0.00     0.000 HD 
ENDBRANCH  19  20
BRANCH  19  28
HETATM   28  N   UNL     1     -10.780  13.703  65.319  1.00  0.00    -0.320 NA 
HETATM   29  H   UNL     1     -11.723  14.089  65.266  1.00  0.00     0.000 HD 
BRANCH  28  30
HETATM   30  O   UNL     1     -10.143  13.148  64.207  1.00  0.00    -0.343 OA 
BRANCH  30  31
HETATM   31  C   UNL     1     -10.980  12.114  63.678  1.00  0.00    -0.461 C  
HETATM   32  O   UNL     1     -13.355  11.606  63.757  1.00  0.00    -0.351 OA 
HETATM   33  C   UNL     1     -12.470  12.439  63.600  1.00  0.00    -0.508 C  
HETATM   34  O   UNL     1     -12.743  13.723  63.269  1.00  0.00    -0.783 OA 
ENDBRANCH  30  31
ENDBRANCH  28  30
ENDBRANCH  19  28
ENDBRANCH  17  19
ENDBRANCH   8  15
TORSDOF 7
ENDMDL
MODEL       56
REMARK 921   NORMALIZED FREE ENERGY PREDICTED BY IDOCK:   -5.89 KCAL/MOL
REMARK 922        TOTAL FREE ENERGY PREDICTED BY IDOCK:   -9.65 KCAL/MOL
REMARK 923 INTER-LIGAND FREE ENERGY PREDICTED BY IDOCK:   -8.35 KCAL/MOL
REMARK 924 INTRA-LIGAND FREE ENERGY PREDICTED BY IDOCK:   -1.30 KCAL/MOL
REMARK 927      BINDING AFFINITY PREDICTED BY RF-SCORE:    0.00 PKD
ROOT
HETATM    1  C   UNL     1      -8.502   7.936  68.739  1.00  0.00    -0.128 C  
HETATM    2  S   UNL     1      -9.420   8.564  70.144  1.00  0.00    -0.168 SA 
HETATM    3  CG2 UNL     1      -9.368   7.052  71.104  1.00  0.00    -0.158 C  
HETATM    4  CB  UNL     1      -9.551   5.737  70.351  1.00  0.00    -0.210 C  
HETATM    5  O   UNL     1      -9.619   6.533  65.981  1.00  0.00    -0.048 OA 
HETATM    6  CA  UNL     1      -9.398   5.612  68.998  1.00  0.00    -0.124 C  
HETATM    7  N   UNL     1      -9.121   6.720  68.240  1.00  0.00    -0.126 N  
HETATM    8  CA  UNL     1      -8.868   8.584  67.357  1.00  0.00    -0.134 C  
HETATM    9  C   UNL     1      -9.525   4.257  68.317  1.00  0.00    -0.154 C  
HETATM   10  C   UNL     1      -9.207   7.116  66.957  1.00  0.00    -0.144 C  
HETATM   11  OXT UNL     1      -9.287   3.198  68.878  1.00  0.00    -0.154 OA 
HETATM   12  O   UNL     1      -9.885   4.246  67.019  1.00  0.00    -0.209 OA 
ENDROOT
BRANCH   4  13
HETATM   13  CG1 UNL     1      -9.983   4.641  71.239  1.00  0.00    -0.268 C  
HETATM   14  CD1 UNL     1      -9.441   4.274  72.411  1.00  0.00    -0.175 C  
ENDBRANCH   4  13
BRANCH   8  15
HETATM   15  N   UNL     1     -10.049   9.508  67.282  1.00  0.00    -0.200 N  
HETATM   16  H   UNL     1     -10.990   9.130  67.385  1.00  0.00     0.000 HD 
HETATM   17  C   UNL     1      -9.876  10.860  67.077  1.00  0.00    -0.183 C  
HETATM   18  O   UNL     1      -8.785  11.361  66.846  1.00  0.00    -0.154 OA 
BRANCH  17  19
HETATM   19  C   UNL     1     -11.135  11.731  67.078  1.00  0.00    -0.304 C  
BRANCH  19  20
HETATM   20  C   UNL     1     -11.259  12.824  66.115  1.00  0.00    -0.298 A  
HETATM   21  N   UNL     1     -12.425  13.827  62.958  1.00  0.00    -1.000 NA 
HETATM   22  C   UNL     1     -10.812  14.117  66.315  1.00  0.00    -0.300 A  
HETATM   23  N   UNL     1     -11.873  12.619  64.878  1.00  0.00    -0.365 NA 
HETATM   24  C   UNL     1     -11.884  13.728  64.181  1.00  0.00    -0.401 A  
HETATM   25  S   UNL     1     -11.159  15.083  64.942  1.00  0.00    -0.403 SA 
HETATM   26  H2  UNL     1     -12.405  14.723  62.471  1.00  0.00     0.000 HD 
HETATM   27  H1  UNL     1     -12.855  13.021  62.505  1.00  0.00     0.000 HD 
ENDBRANCH  19  20
BRANCH  19  28
HETATM   28  N   UNL     1     -12.155  11.615  67.886  1.00  0.00    -0.585 NA 
HETATM   29  H   UNL     1     -12.994  12.186  67.784  1.00  0.00     0.000 HD 
BRANCH  28  30
HETATM   30  O   UNL     1     -12.025  10.662  68.899  1.00  0.00    -0.330 OA 
BRANCH  30  31
HETATM   31  C   UNL     1     -11.932  11.348  70.152  1.00  0.00    -0.377 C  
HETATM   32  O   UNL     1     -13.252  11.405  72.192  1.00  0.00    -0.490 OA 
HETATM   33  C   UNL     1     -12.730  10.740  71.304  1.00  0.00    -0.441 C  
HETATM   34  O   UNL     1     -12.756   9.387  71.310  1.00  0.00    -0.318 OA 
ENDBRANCH  30  31
ENDBRANCH  28  30
ENDBRANCH  19  28
ENDBRANCH  17  19
ENDBRANCH   8  15
TORSDOF 7
ENDMDL
MODEL       57
REMARK 921   NORMALIZED FREE ENERGY PREDICTED BY IDOCK:   -5.89 KCAL/MOL
REMARK 922        TOTAL FREE ENERGY PREDICTED BY IDOCK:   -9.65 KCAL/MOL
REMARK 923 INTER-LIGAND FREE ENERGY PREDICTED BY IDOCK:   -7.80 KCAL/MOL
REMARK 924 INTRA-LIGAND FREE ENERGY PREDICTED BY IDOCK:   -1.84 KCAL/MOL
REMARK 927      BINDING AFFINITY PREDICTED BY RF-SCORE:    0.00 PKD
ROOT
HETATM    1  C   UNL     1     -11.760   6.460  70.254  1.00  0.00    -0.320 C  
HETATM    2  S   UNL     1     -10.675   6.137  68.865  1.00  0.00    -0.339 SA 
HETATM    3  CG2 UNL     1     -10.106   4.535  69.429  1.00  0.00    -0.054 C  
HETATM    4  CB  UNL     1      -9.825   4.375  70.920  1.00  0.00    -0.266 C  
HETATM    5  O   UNL     1     -11.125   8.040  73.069  1.00  0.00    -0.382 OA 
HETATM    6  CA  UNL     1     -10.301   5.230  71.877  1.00  0.00    -0.215 C  
HETATM    7  N   UNL     1     -11.028   6.331  71.502  1.00  0.00    -0.260 N  
HETATM    8  CA  UNL     1     -11.944   7.975  70.622  1.00  0.00    -0.033 C  
HETATM    9  C   UNL     1     -10.043   4.975  73.354  1.00  0.00    -0.165 C  
HETATM   10  C   UNL     1     -11.386   7.526  72.006  1.00  0.00    -0.273 C  
HETATM   11  OXT UNL     1      -9.862   3.861  73.823  1.00  0.00    -0.105 OA 
HETATM   12  O   UNL     1     -10.053   6.040  74.178  1.00  0.00    -0.221 OA 
ENDROOT
BRANCH   4  13
HETATM   13  CG1 UNL     1      -8.921   3.243  71.201  1.00  0.00    -0.163 C  
HETATM   14  CD1 UNL     1      -7.602   3.287  71.440  1.00  0.00    -0.047 C  
ENDBRANCH   4  13
BRANCH   8  15
HETATM   15  N   UNL     1     -11.083   8.994  69.936  1.00  0.00    -0.372 N  
HETATM   16  H   UNL     1     -10.156   8.727  69.603  1.00  0.00     0.000 HD 
HETATM   17  C   UNL     1     -11.527  10.286  69.751  1.00  0.00    -0.256 C  
HETATM   18  O   UNL     1     -12.582  10.697  70.213  1.00  0.00    -0.324 OA 
BRANCH  17  19
HETATM   19  C   UNL     1     -10.604  11.238  68.985  1.00  0.00    -0.208 C  
BRANCH  19  20
HETATM   20  C   UNL     1     -11.181  12.256  68.110  1.00  0.00    -0.269 A  
HETATM   21  N   UNL     1     -12.752  12.932  65.043  1.00  0.00    -0.724 NA 
HETATM   22  C   UNL     1     -11.274  13.603  68.408  1.00  0.00    -0.276 A  
HETATM   23  N   UNL     1     -11.705  11.911  66.863  1.00  0.00    -0.589 NA 
HETATM   24  C   UNL     1     -12.176  12.971  66.253  1.00  0.00    -0.320 A  
HETATM   25  S   UNL     1     -12.020  14.446  67.114  1.00  0.00    -0.324 SA 
HETATM   26  H2  UNL     1     -13.104  13.795  64.627  1.00  0.00     0.000 HD 
HETATM   27  H1  UNL     1     -12.845  12.055  64.530  1.00  0.00     0.000 HD 
ENDBRANCH  19  20
BRANCH  19  28
HETATM   28  N   UNL     1      -9.297  11.238  69.014  1.00  0.00    -0.400 NA 
HETATM   29  H   UNL     1      -8.767  11.976  69.476  1.00  0.00     0.000 HD 
BRANCH  28  30
HETATM   30  O   UNL     1      -8.673  10.166  68.373  1.00  0.00    -0.118 OA 
BRANCH  30  31
HETATM   31  C   UNL     1      -7.359  10.017  68.921  1.00  0.00    -0.080 C  
HETATM   32  O   UNL     1      -6.332  10.439  71.083  1.00  0.00    -0.339 OA 
HETATM   33  C   UNL     1      -7.274   9.982  70.446  1.00  0.00    -0.108 C  
HETATM   34  O   UNL     1      -8.300   9.335  71.046  1.00  0.00    -0.255 OA 
ENDBRANCH  30  31
ENDBRANCH  28  30
ENDBRANCH  19  28
ENDBRANCH  17  19
ENDBRANCH   8  15
TORSDOF 7
ENDMDL
MODEL       58
REMARK 921   NORMALIZED FREE ENERGY PREDICTED BY IDOCK:   -5.84 KCAL/MOL
REMARK 922        TOTAL FREE ENERGY PREDICTED BY IDOCK:   -9.59 KCAL/MOL
REMARK 923 INTER-LIGAND FREE ENERGY PREDICTED BY IDOCK:   -8.22 KCAL/MOL
REMARK 924 INTRA-LIGAND FREE ENERGY PREDICTED BY IDOCK:   -1.37 KCAL/MOL
REMARK 927      BINDING AFFINITY PREDICTED BY RF-SCORE:    0.00 PKD
ROOT
HETATM    1  C   UNL     1     -11.480  14.258  68.126  1.00  0.00    -0.308 C  
HETATM    2  S   UNL     1      -9.770  14.251  68.660  1.00  0.00    -0.181 SA 
HETATM    3  CG2 UNL     1      -9.321  15.810  67.899  1.00  0.00    -0.200 C  
HETATM    4  CB  UNL     1      -9.890  16.105  66.514  1.00  0.00    -0.283 C  
HETATM    5  O   UNL     1     -12.822  12.952  65.421  1.00  0.00    -0.599 OA 
HETATM    6  CA  UNL     1     -10.966  15.449  65.983  1.00  0.00    -0.286 C  
HETATM    7  N   UNL     1     -11.554  14.428  66.684  1.00  0.00    -0.371 N  
HETATM    8  CA  UNL     1     -12.117  12.841  67.901  1.00  0.00    -0.132 C  
HETATM    9  C   UNL     1     -11.529  15.839  64.624  1.00  0.00    -0.282 C  
HETATM   10  C   UNL     1     -12.348  13.367  66.452  1.00  0.00    -0.321 C  
HETATM   11  OXT UNL     1     -11.434  16.963  64.154  1.00  0.00    -1.174 OA 
HETATM   12  O   UNL     1     -12.194  14.893  63.933  1.00  0.00    -0.567 OA 
ENDROOT
BRANCH   4  13
HETATM   13  CG1 UNL     1      -9.101  17.121  65.791  1.00  0.00     0.137 C  
HETATM   14  CD1 UNL     1      -7.832  17.491  66.024  1.00  0.00    -0.213 C  
ENDBRANCH   4  13
BRANCH   8  15
HETATM   15  N   UNL     1     -11.229  11.632  67.961  1.00  0.00    -0.242 N  
HETATM   16  H   UNL     1     -10.504  11.506  67.253  1.00  0.00     0.000 HD 
HETATM   17  C   UNL     1     -11.379  10.693  68.957  1.00  0.00    -0.277 C  
HETATM   18  O   UNL     1     -12.289  10.732  69.774  1.00  0.00    -0.327 OA 
BRANCH  17  19
HETATM   19  C   UNL     1     -10.386   9.527  68.972  1.00  0.00    -0.206 C  
BRANCH  19  20
HETATM   20  C   UNL     1      -9.598   9.233  67.777  1.00  0.00    -0.142 A  
HETATM   21  N   UNL     1      -6.602   9.799  66.033  1.00  0.00    -0.078 NA 
HETATM   22  C   UNL     1      -9.983   8.383  66.757  1.00  0.00    -0.284 A  
HETATM   23  N   UNL     1      -8.344   9.817  67.588  1.00  0.00    -0.114 NA 
HETATM   24  C   UNL     1      -7.812   9.410  66.462  1.00  0.00    -0.097 A  
HETATM   25  S   UNL     1      -8.767   8.317  65.550  1.00  0.00    -0.100 SA 
HETATM   26  H2  UNL     1      -6.244   9.438  65.148  1.00  0.00     0.000 HD 
HETATM   27  H1  UNL     1      -6.034  10.449  66.575  1.00  0.00     0.000 HD 
ENDBRANCH  19  20
BRANCH  19  28
HETATM   28  N   UNL     1     -10.160   8.716  69.972  1.00  0.00    -0.185 NA 
HETATM   29  H   UNL     1     -10.353   7.717  69.912  1.00  0.00     0.000 HD 
BRANCH  28  30
HETATM   30  O   UNL     1      -9.637   9.304  71.126  1.00  0.00    -0.273 OA 
BRANCH  30  31
HETATM   31  C   UNL     1      -9.215   8.260  72.010  1.00  0.00    -0.204 C  
HETATM   32  O   UNL     1     -10.081   7.275  74.056  1.00  0.00    -0.307 OA 
HETATM   33  C   UNL     1     -10.297   7.680  72.920  1.00  0.00    -0.322 C  
HETATM   34  O   UNL     1     -11.516   7.580  72.340  1.00  0.00    -0.284 OA 
ENDBRANCH  30  31
ENDBRANCH  28  30
ENDBRANCH  19  28
ENDBRANCH  17  19
ENDBRANCH   8  15
TORSDOF 7
ENDMDL
MODEL       59
REMARK 921   NORMALIZED FREE ENERGY PREDICTED BY IDOCK:   -5.84 KCAL/MOL
REMARK 922        TOTAL FREE ENERGY PREDICTED BY IDOCK:   -9.58 KCAL/MOL
REMARK 923 INTER-LIGAND FREE ENERGY PREDICTED BY IDOCK:   -8.05 KCAL/MOL
REMARK 924 INTRA-LIGAND FREE ENERGY PREDICTED BY IDOCK:   -1.52 KCAL/MOL
REMARK 927      BINDING AFFINITY PREDICTED BY RF-SCORE:    0.00 PKD
ROOT
HETATM    1  C   UNL     1     -12.158  13.061  67.118  1.00  0.00    -0.264 C  
HETATM    2  S   UNL     1     -11.763  12.226  68.654  1.00  0.00    -0.322 SA 
HETATM    3  CG2 UNL     1     -11.955  13.661  69.711  1.00  0.00    -0.341 C  
HETATM    4  CB  UNL     1     -11.434  14.995  69.184  1.00  0.00    -0.320 C  
HETATM    5  O   UNL     1     -10.145  14.514  64.960  1.00  0.00    -0.393 OA 
HETATM    6  CA  UNL     1     -11.164  15.235  67.865  1.00  0.00    -0.331 C  
HETATM    7  N   UNL     1     -11.307  14.226  66.948  1.00  0.00    -0.329 N  
HETATM    8  CA  UNL     1     -11.460  12.475  65.839  1.00  0.00    -0.373 C  
HETATM    9  C   UNL     1     -10.713  16.610  67.395  1.00  0.00    -0.253 C  
HETATM   10  C   UNL     1     -10.881  13.916  65.710  1.00  0.00    -0.289 C  
HETATM   11  OXT UNL     1     -11.006  17.647  67.971  1.00  0.00    -0.308 OA 
HETATM   12  O   UNL     1      -9.984  16.671  66.264  1.00  0.00    -0.286 OA 
ENDROOT
BRANCH   4  13
HETATM   13  CG1 UNL     1     -11.183  15.964  70.269  1.00  0.00    -0.388 C  
HETATM   14  CD1 UNL     1     -11.713  15.967  71.502  1.00  0.00    -0.554 C  
ENDBRANCH   4  13
BRANCH   8  15
HETATM   15  N   UNL     1     -10.404  11.423  66.011  1.00  0.00    -0.242 N  
HETATM   16  H   UNL     1      -9.888  11.367  66.889  1.00  0.00     0.000 HD 
HETATM   17  C   UNL     1     -10.123  10.531  64.999  1.00  0.00    -0.321 C  
HETATM   18  O   UNL     1     -10.633  10.606  63.889  1.00  0.00    -0.223 OA 
BRANCH  17  19
HETATM   19  C   UNL     1      -9.074   9.454  65.289  1.00  0.00    -0.232 C  
BRANCH  19  20
HETATM   20  C   UNL     1      -7.686   9.843  65.529  1.00  0.00    -0.124 A  
HETATM   21  N   UNL     1      -5.508  12.280  66.815  1.00  0.00    -0.433 NA 
HETATM   22  C   UNL     1      -6.578   9.079  65.213  1.00  0.00    -0.068 A  
HETATM   23  N   UNL     1      -7.381  11.066  66.129  1.00  0.00    -0.103 NA 
HETATM   24  C   UNL     1      -6.085  11.206  66.257  1.00  0.00    -0.117 A  
HETATM   25  S   UNL     1      -5.143   9.900  65.666  1.00  0.00    -0.044 SA 
HETATM   26  H2  UNL     1      -4.492  12.322  66.889  1.00  0.00     0.000 HD 
HETATM   27  H1  UNL     1      -6.069  13.057  67.166  1.00  0.00     0.000 HD 
ENDBRANCH  19  20
BRANCH  19  28
HETATM   28  N   UNL     1      -9.282   8.165  65.336  1.00  0.00    -0.399 NA 
HETATM   29  H   UNL     1      -9.490   7.619  64.501  1.00  0.00     0.000 HD 
BRANCH  28  30
HETATM   30  O   UNL     1      -9.202   7.581  66.603  1.00  0.00    -0.148 OA 
BRANCH  30  31
HETATM   31  C   UNL     1     -10.396   7.904  67.323  1.00  0.00    -0.307 C  
HETATM   32  O   UNL     1     -10.970   8.208  69.665  1.00  0.00    -0.201 OA 
HETATM   33  C   UNL     1     -10.194   8.430  68.743  1.00  0.00    -0.207 C  
HETATM   34  O   UNL     1      -9.115   9.234  68.890  1.00  0.00    -0.137 OA 
ENDBRANCH  30  31
ENDBRANCH  28  30
ENDBRANCH  19  28
ENDBRANCH  17  19
ENDBRANCH   8  15
TORSDOF 7
ENDMDL
MODEL       60
REMARK 921   NORMALIZED FREE ENERGY PREDICTED BY IDOCK:   -5.83 KCAL/MOL
REMARK 922        TOTAL FREE ENERGY PREDICTED BY IDOCK:   -9.57 KCAL/MOL
REMARK 923 INTER-LIGAND FREE ENERGY PREDICTED BY IDOCK:   -8.37 KCAL/MOL
REMARK 924 INTRA-LIGAND FREE ENERGY PREDICTED BY IDOCK:   -1.20 KCAL/MOL
REMARK 927      BINDING AFFINITY PREDICTED BY RF-SCORE:    0.00 PKD
ROOT
HETATM    1  C   UNL     1     -10.080   9.435  69.143  1.00  0.00    -0.195 C  
HETATM    2  S   UNL     1      -8.414   9.846  69.659  1.00  0.00    -0.189 SA 
HETATM    3  CG2 UNL     1      -8.344   8.696  71.031  1.00  0.00    -0.161 C  
HETATM    4  CB  UNL     1      -9.600   8.544  71.883  1.00  0.00    -0.353 C  
HETATM    5  O   UNL     1     -12.933  10.818  70.023  1.00  0.00    -0.169 OA 
HETATM    6  CA  UNL     1     -10.845   8.940  71.476  1.00  0.00    -0.326 C  
HETATM    7  N   UNL     1     -10.997   9.561  70.263  1.00  0.00    -0.252 N  
HETATM    8  CA  UNL     1     -10.881  10.607  68.471  1.00  0.00    -0.233 C  
HETATM    9  C   UNL     1     -12.068   8.697  72.346  1.00  0.00    -0.345 C  
HETATM   10  C   UNL     1     -11.884  10.356  69.638  1.00  0.00    -0.180 C  
HETATM   11  OXT UNL     1     -12.150   7.781  73.152  1.00  0.00    -0.020 OA 
HETATM   12  O   UNL     1     -13.121   9.521  72.182  1.00  0.00    -0.404 OA 
ENDROOT
BRANCH   4  13
HETATM   13  CG1 UNL     1      -9.305   7.993  73.220  1.00  0.00    -0.344 C  
HETATM   14  CD1 UNL     1      -8.130   8.003  73.868  1.00  0.00    -0.288 C  
ENDBRANCH   4  13
BRANCH   8  15
HETATM   15  N   UNL     1     -10.288  11.986  68.482  1.00  0.00    -0.217 N  
HETATM   16  H   UNL     1      -9.479  12.181  69.072  1.00  0.00     0.000 HD 
HETATM   17  C   UNL     1     -10.824  12.991  67.707  1.00  0.00    -0.240 C  
HETATM   18  O   UNL     1     -11.850  12.852  67.057  1.00  0.00    -0.371 OA 
BRANCH  17  19
HETATM   19  C   UNL     1     -10.114  14.348  67.736  1.00  0.00    -0.226 C  
BRANCH  19  20
HETATM   20  C   UNL     1      -8.776  14.451  68.314  1.00  0.00    -0.180 A  
HETATM   21  N   UNL     1      -5.548  13.078  68.491  1.00  0.00    -0.065 NA 
HETATM   22  C   UNL     1      -8.357  15.442  69.183  1.00  0.00    -0.242 A  
HETATM   23  N   UNL     1      -7.789  13.514  68.002  1.00  0.00    -0.132 NA 
HETATM   24  C   UNL     1      -6.669  13.801  68.619  1.00  0.00    -0.099 A  
HETATM   25  S   UNL     1      -6.716  15.195  69.616  1.00  0.00    -0.188 SA 
HETATM   26  H2  UNL     1      -4.708  13.361  68.996  1.00  0.00     0.000 HD 
HETATM   27  H1  UNL     1      -5.520  12.248  67.898  1.00  0.00     0.000 HD 
ENDBRANCH  19  20
BRANCH  19  28
HETATM   28  N   UNL     1     -10.593  15.481  67.296  1.00  0.00    -0.294 NA 
HETATM   29  H   UNL     1     -11.299  16.007  67.810  1.00  0.00     0.000 HD 
BRANCH  28  30
HETATM   30  O   UNL     1     -10.077  15.927  66.077  1.00  0.00    -0.291 OA 
BRANCH  30  31
HETATM   31  C   UNL     1     -10.500  15.023  65.051  1.00  0.00    -0.386 C  
HETATM   32  O   UNL     1     -12.566  14.641  63.829  1.00  0.00    -0.820 OA 
HETATM   33  C   UNL     1     -11.745  15.438  64.269  1.00  0.00    -0.206 C  
HETATM   34  O   UNL     1     -11.836  16.768  64.034  1.00  0.00    -0.956 OA 
ENDBRANCH  30  31
ENDBRANCH  28  30
ENDBRANCH  19  28
ENDBRANCH  17  19
ENDBRANCH   8  15
TORSDOF 7
ENDMDL
MODEL       61
REMARK 921   NORMALIZED FREE ENERGY PREDICTED BY IDOCK:   -5.83 KCAL/MOL
REMARK 922        TOTAL FREE ENERGY PREDICTED BY IDOCK:   -9.56 KCAL/MOL
REMARK 923 INTER-LIGAND FREE ENERGY PREDICTED BY IDOCK:   -8.55 KCAL/MOL
REMARK 924 INTRA-LIGAND FREE ENERGY PREDICTED BY IDOCK:   -1.01 KCAL/MOL
REMARK 927      BINDING AFFINITY PREDICTED BY RF-SCORE:    0.00 PKD
ROOT
HETATM    1  C   UNL     1      -8.632  15.226  66.821  1.00  0.00    -0.265 C  
HETATM    2  S   UNL     1     -10.403  15.490  66.746  1.00  0.00    -0.294 SA 
HETATM    3  CG2 UNL     1     -10.326  17.257  66.460  1.00  0.00    -0.308 C  
HETATM    4  CB  UNL     1      -9.272  18.047  67.230  1.00  0.00    -0.255 C  
HETATM    5  O   UNL     1      -6.635  15.233  69.435  1.00  0.00    -0.129 OA 
HETATM    6  CA  UNL     1      -8.185  17.474  67.832  1.00  0.00    -0.231 C  
HETATM    7  N   UNL     1      -8.035  16.111  67.807  1.00  0.00    -0.140 N  
HETATM    8  CA  UNL     1      -8.171  14.039  67.739  1.00  0.00    -0.168 C  
HETATM    9  C   UNL     1      -7.134  18.326  68.525  1.00  0.00    -0.268 C  
HETATM   10  C   UNL     1      -7.374  15.154  68.482  1.00  0.00    -0.119 C  
HETATM   11  OXT UNL     1      -6.893  19.484  68.214  1.00  0.00    -0.265 OA 
HETATM   12  O   UNL     1      -6.414  17.748  69.506  1.00  0.00    -0.245 OA 
ENDROOT
BRANCH   4  13
HETATM   13  CG1 UNL     1      -9.602  19.483  67.314  1.00  0.00    -0.437 C  
HETATM   14  CD1 UNL     1     -10.474  20.076  68.144  1.00  0.00    -0.428 C  
ENDBRANCH   4  13
BRANCH   8  15
HETATM   15  N   UNL     1      -9.190  13.358  68.605  1.00  0.00    -0.381 N  
HETATM   16  H   UNL     1      -9.437  13.767  69.507  1.00  0.00     0.000 HD 
HETATM   17  C   UNL     1      -9.794  12.188  68.200  1.00  0.00    -0.207 C  
HETATM   18  O   UNL     1      -9.471  11.594  67.181  1.00  0.00    -0.174 OA 
BRANCH  17  19
HETATM   19  C   UNL     1     -10.866  11.601  69.122  1.00  0.00    -0.184 C  
BRANCH  19  20
HETATM   20  C   UNL     1     -10.670  10.276  69.706  1.00  0.00    -0.285 A  
HETATM   21  N   UNL     1     -12.187   7.303  70.800  1.00  0.00    -0.533 NA 
HETATM   22  C   UNL     1      -9.446   9.728  70.048  1.00  0.00    -0.238 A  
HETATM   23  N   UNL     1     -11.758   9.438  69.959  1.00  0.00    -0.025 NA 
HETATM   24  C   UNL     1     -11.355   8.302  70.472  1.00  0.00    -0.219 A  
HETATM   25  S   UNL     1      -9.661   8.155  70.695  1.00  0.00    -0.171 SA 
HETATM   26  H2  UNL     1     -11.806   6.441  71.190  1.00  0.00     0.000 HD 
HETATM   27  H1  UNL     1     -13.195   7.391  70.668  1.00  0.00     0.000 HD 
ENDBRANCH  19  20
BRANCH  19  28
HETATM   28  N   UNL     1     -11.996  12.167  69.454  1.00  0.00    -0.295 NA 
HETATM   29  H   UNL     1     -12.729  12.354  68.771  1.00  0.00     0.000 HD 
BRANCH  28  30
HETATM   30  O   UNL     1     -12.136  12.502  70.803  1.00  0.00    -0.332 OA 
BRANCH  30  31
HETATM   31  C   UNL     1     -12.274  13.923  70.903  1.00  0.00    -0.361 C  
HETATM   32  O   UNL     1     -14.128  15.459  71.239  1.00  0.00    -0.494 OA 
HETATM   33  C   UNL     1     -13.558  14.423  71.562  1.00  0.00    -0.370 C  
HETATM   34  O   UNL     1     -13.986  13.659  72.595  1.00  0.00    -0.733 OA 
ENDBRANCH  30  31
ENDBRANCH  28  30
ENDBRANCH  19  28
ENDBRANCH  17  19
ENDBRANCH   8  15
TORSDOF 7
ENDMDL
MODEL       62
REMARK 921   NORMALIZED FREE ENERGY PREDICTED BY IDOCK:   -5.80 KCAL/MOL
REMARK 922        TOTAL FREE ENERGY PREDICTED BY IDOCK:   -9.52 KCAL/MOL
REMARK 923 INTER-LIGAND FREE ENERGY PREDICTED BY IDOCK:   -8.76 KCAL/MOL
REMARK 924 INTRA-LIGAND FREE ENERGY PREDICTED BY IDOCK:   -0.76 KCAL/MOL
REMARK 927      BINDING AFFINITY PREDICTED BY RF-SCORE:    0.00 PKD
ROOT
HETATM    1  C   UNL     1     -10.115   8.647  68.829  1.00  0.00    -0.196 C  
HETATM    2  S   UNL     1     -10.463   9.111  67.134  1.00  0.00    -0.224 SA 
HETATM    3  CG2 UNL     1      -9.435   7.857  66.372  1.00  0.00    -0.192 C  
HETATM    4  CB  UNL     1      -8.088   7.562  67.027  1.00  0.00    -0.117 C  
HETATM    5  O   UNL     1      -7.791   9.783  70.862  1.00  0.00    -0.299 OA 
HETATM    6  CA  UNL     1      -7.776   7.917  68.310  1.00  0.00    -0.121 C  
HETATM    7  N   UNL     1      -8.680   8.627  69.058  1.00  0.00    -0.133 N  
HETATM    8  CA  UNL     1     -10.173   9.822  69.869  1.00  0.00    -0.254 C  
HETATM    9  C   UNL     1      -6.440   7.531  68.927  1.00  0.00    -0.044 C  
HETATM   10  C   UNL     1      -8.694   9.417  70.146  1.00  0.00    -0.221 C  
HETATM   11  OXT UNL     1      -5.799   6.548  68.584  1.00  0.00    -0.019 OA 
HETATM   12  O   UNL     1      -5.972   8.303  69.926  1.00  0.00    -0.025 OA 
ENDROOT
BRANCH   4  13
HETATM   13  CG1 UNL     1      -7.142   6.920  66.093  1.00  0.00    -0.073 C  
HETATM   14  CD1 UNL     1      -7.304   5.767  65.427  1.00  0.00    -0.076 C  
ENDBRANCH   4  13
BRANCH   8  15
HETATM   15  N   UNL     1     -10.321  11.227  69.364  1.00  0.00    -0.435 N  
HETATM   16  H   UNL     1      -9.497  11.826  69.295  1.00  0.00     0.000 HD 
HETATM   17  C   UNL     1     -11.553  11.720  68.993  1.00  0.00    -0.311 C  
HETATM   18  O   UNL     1     -12.591  11.091  69.144  1.00  0.00    -0.378 OA 
BRANCH  17  19
HETATM   19  C   UNL     1     -11.595  13.143  68.431  1.00  0.00    -0.337 C  
BRANCH  19  20
HETATM   20  C   UNL     1     -11.364  13.365  67.005  1.00  0.00    -0.317 A  
HETATM   21  N   UNL     1     -12.520  14.870  64.050  1.00  0.00    -1.008 NA 
HETATM   22  C   UNL     1     -10.281  12.887  66.290  1.00  0.00    -0.278 A  
HETATM   23  N   UNL     1     -12.262  14.116  66.244  1.00  0.00    -0.455 NA 
HETATM   24  C   UNL     1     -11.857  14.196  65.001  1.00  0.00    -0.389 A  
HETATM   25  S   UNL     1     -10.391  13.378  64.650  1.00  0.00    -0.332 SA 
HETATM   26  H2  UNL     1     -12.146  14.897  63.101  1.00  0.00     0.000 HD 
HETATM   27  H1  UNL     1     -13.392  15.356  64.258  1.00  0.00     0.000 HD 
ENDBRANCH  19  20
BRANCH  19  28
HETATM   28  N   UNL     1     -11.811  14.238  69.112  1.00  0.00    -0.312 NA 
HETATM   29  H   UNL     1     -11.277  15.091  68.949  1.00  0.00     0.000 HD 
BRANCH  28  30
HETATM   30  O   UNL     1     -12.819  14.166  70.076  1.00  0.00    -0.223 OA 
BRANCH  30  31
HETATM   31  C   UNL     1     -12.275  14.598  71.328  1.00  0.00    -0.348 C  
HETATM   32  O   UNL     1     -13.178  15.608  73.346  1.00  0.00    -0.520 OA 
HETATM   33  C   UNL     1     -13.278  14.757  72.470  1.00  0.00    -0.416 C  
HETATM   34  O   UNL     1     -14.260  13.826  72.480  1.00  0.00    -0.706 OA 
ENDBRANCH  30  31
ENDBRANCH  28  30
ENDBRANCH  19  28
ENDBRANCH  17  19
ENDBRANCH   8  15
TORSDOF 7
ENDMDL
MODEL       63
REMARK 921   NORMALIZED FREE ENERGY PREDICTED BY IDOCK:   -5.79 KCAL/MOL
REMARK 922        TOTAL FREE ENERGY PREDICTED BY IDOCK:   -9.51 KCAL/MOL
REMARK 923 INTER-LIGAND FREE ENERGY PREDICTED BY IDOCK:   -8.03 KCAL/MOL
REMARK 924 INTRA-LIGAND FREE ENERGY PREDICTED BY IDOCK:   -1.49 KCAL/MOL
REMARK 927      BINDING AFFINITY PREDICTED BY RF-SCORE:    0.00 PKD
ROOT
HETATM    1  C   UNL     1      -8.460   8.848  68.825  1.00  0.00    -0.131 C  
HETATM    2  S   UNL     1      -9.868   8.573  69.899  1.00  0.00    -0.189 SA 
HETATM    3  CG2 UNL     1      -9.755   6.785  69.917  1.00  0.00    -0.158 C  
HETATM    4  CB  UNL     1      -9.403   6.091  68.605  1.00  0.00    -0.121 C  
HETATM    5  O   UNL     1      -8.366   9.146  65.550  1.00  0.00    -0.120 OA 
HETATM    6  CA  UNL     1      -8.836   6.732  67.537  1.00  0.00    -0.117 C  
HETATM    7  N   UNL     1      -8.609   8.083  67.599  1.00  0.00    -0.130 N  
HETATM    8  CA  UNL     1      -8.543  10.134  67.928  1.00  0.00    -0.118 C  
HETATM    9  C   UNL     1      -8.444   5.968  66.282  1.00  0.00    -0.130 C  
HETATM   10  C   UNL     1      -8.404   9.114  66.758  1.00  0.00    -0.123 C  
HETATM   11  OXT UNL     1      -8.144   4.783  66.282  1.00  0.00    -0.106 OA 
HETATM   12  O   UNL     1      -8.395   6.657  65.126  1.00  0.00    -0.137 OA 
ENDROOT
BRANCH   4  13
HETATM   13  CG1 UNL     1      -9.813   4.674  68.595  1.00  0.00    -0.190 C  
HETATM   14  CD1 UNL     1      -9.397   3.695  69.412  1.00  0.00    -0.246 C  
ENDBRANCH   4  13
BRANCH   8  15
HETATM   15  N   UNL     1      -9.828  10.908  67.893  1.00  0.00    -0.169 N  
HETATM   16  H   UNL     1     -10.711  10.412  67.767  1.00  0.00     0.000 HD 
HETATM   17  C   UNL     1      -9.831  12.279  68.029  1.00  0.00    -0.204 C  
HETATM   18  O   UNL     1      -8.805  12.943  68.083  1.00  0.00    -0.186 OA 
BRANCH  17  19
HETATM   19  C   UNL     1     -11.195  12.976  68.043  1.00  0.00    -0.278 C  
BRANCH  19  20
HETATM   20  C   UNL     1     -11.747  13.458  69.307  1.00  0.00    -0.330 A  
HETATM   21  N   UNL     1     -12.283  16.224  71.404  1.00  0.00    -0.573 NA 
HETATM   22  C   UNL     1     -12.402  12.675  70.241  1.00  0.00    -0.195 A  
HETATM   23  N   UNL     1     -11.649  14.804  69.662  1.00  0.00    -0.286 NA 
HETATM   24  C   UNL     1     -12.217  15.017  70.824  1.00  0.00    -0.329 A  
HETATM   25  S   UNL     1     -12.895  13.633  71.575  1.00  0.00    -0.334 SA 
HETATM   26  H2  UNL     1     -12.746  16.320  72.308  1.00  0.00     0.000 HD 
HETATM   27  H1  UNL     1     -11.879  17.047  70.958  1.00  0.00     0.000 HD 
ENDBRANCH  19  20
BRANCH  19  28
HETATM   28  N   UNL     1     -11.965  13.188  67.009  1.00  0.00    -0.376 NA 
HETATM   29  H   UNL     1     -12.426  14.084  66.853  1.00  0.00     0.000 HD 
BRANCH  28  30
HETATM   30  O   UNL     1     -12.119  12.112  66.133  1.00  0.00    -0.621 OA 
BRANCH  30  31
HETATM   31  C   UNL     1     -12.648  12.609  64.899  1.00  0.00    -0.450 C  
HETATM   32  O   UNL     1     -12.570  14.731  63.716  1.00  0.00    -0.806 OA 
HETATM   33  C   UNL     1     -11.974  13.862  64.342  1.00  0.00    -0.450 C  
HETATM   34  O   UNL     1     -10.634  13.904  64.534  1.00  0.00    -0.424 OA 
ENDBRANCH  30  31
ENDBRANCH  28  30
ENDBRANCH  19  28
ENDBRANCH  17  19
ENDBRANCH   8  15
TORSDOF 7
ENDMDL
MODEL       64
REMARK 921   NORMALIZED FREE ENERGY PREDICTED BY IDOCK:   -5.79 KCAL/MOL
REMARK 922        TOTAL FREE ENERGY PREDICTED BY IDOCK:   -9.51 KCAL/MOL
REMARK 923 INTER-LIGAND FREE ENERGY PREDICTED BY IDOCK:   -8.03 KCAL/MOL
REMARK 924 INTRA-LIGAND FREE ENERGY PREDICTED BY IDOCK:   -1.48 KCAL/MOL
REMARK 927      BINDING AFFINITY PREDICTED BY RF-SCORE:    0.00 PKD
ROOT
HETATM    1  C   UNL     1      -9.260  11.202  66.761  1.00  0.00    -0.171 C  
HETATM    2  S   UNL     1      -7.828  12.140  67.291  1.00  0.00    -0.169 SA 
HETATM    3  CG2 UNL     1      -6.814  10.725  67.715  1.00  0.00    -0.073 C  
HETATM    4  CB  UNL     1      -7.501   9.552  68.408  1.00  0.00    -0.077 C  
HETATM    5  O   UNL     1     -11.887  10.252  68.498  1.00  0.00    -0.197 OA 
HETATM    6  CA  UNL     1      -8.855   9.359  68.408  1.00  0.00    -0.128 C  
HETATM    7  N   UNL     1      -9.672  10.282  67.807  1.00  0.00    -0.155 N  
HETATM    8  CA  UNL     1     -10.642  11.918  66.969  1.00  0.00    -0.227 C  
HETATM    9  C   UNL     1      -9.473   8.131  69.058  1.00  0.00    -0.155 C  
HETATM   10  C   UNL     1     -10.962  10.663  67.837  1.00  0.00    -0.295 C  
HETATM   11  OXT UNL     1      -8.886   7.065  69.175  1.00  0.00    -0.135 OA 
HETATM   12  O   UNL     1     -10.745   8.229  69.489  1.00  0.00    -0.227 OA 
ENDROOT
BRANCH   4  13
HETATM   13  CG1 UNL     1      -6.545   8.697  69.140  1.00  0.00    -0.047 C  
HETATM   14  CD1 UNL     1      -5.984   8.934  70.335  1.00  0.00    -0.035 C  
ENDBRANCH   4  13
BRANCH   8  15
HETATM   15  N   UNL     1     -10.681  13.202  67.743  1.00  0.00    -0.236 N  
HETATM   16  H   UNL     1     -10.027  13.346  68.512  1.00  0.00     0.000 HD 
HETATM   17  C   UNL     1     -11.589  14.190  67.428  1.00  0.00    -0.372 C  
HETATM   18  O   UNL     1     -12.464  14.042  66.586  1.00  0.00    -0.420 OA 
BRANCH  17  19
HETATM   19  C   UNL     1     -11.512  15.491  68.233  1.00  0.00    -0.353 C  
BRANCH  19  20
HETATM   20  C   UNL     1     -10.604  16.552  67.805  1.00  0.00    -0.332 A  
HETATM   21  N   UNL     1      -7.797  17.404  65.873  1.00  0.00    -0.530 NA 
HETATM   22  C   UNL     1     -10.697  17.880  68.180  1.00  0.00    -0.274 A  
HETATM   23  N   UNL     1      -9.540  16.278  66.944  1.00  0.00    -0.226 NA 
HETATM   24  C   UNL     1      -8.864  17.370  66.685  1.00  0.00    -0.254 A  
HETATM   25  S   UNL     1      -9.440  18.791  67.453  1.00  0.00    -0.302 SA 
HETATM   26  H2  UNL     1      -7.320  18.291  65.710  1.00  0.00     0.000 HD 
HETATM   27  H1  UNL     1      -7.454  16.559  65.417  1.00  0.00     0.000 HD 
ENDBRANCH  19  20
BRANCH  19  28
HETATM   28  N   UNL     1     -12.187  15.771  69.316  1.00  0.00    -0.528 NA 
HETATM   29  H   UNL     1     -12.299  16.727  69.652  1.00  0.00     0.000 HD 
BRANCH  28  30
HETATM   30  O   UNL     1     -12.745  14.679  69.986  1.00  0.00    -0.278 OA 
BRANCH  30  31
HETATM   31  C   UNL     1     -13.583  15.175  71.035  1.00  0.00    -0.409 C  
HETATM   32  O   UNL     1     -13.310  15.591  73.414  1.00  0.00    -0.490 OA 
HETATM   33  C   UNL     1     -12.860  15.690  72.278  1.00  0.00    -0.441 C  
HETATM   34  O   UNL     1     -11.701  16.339  72.018  1.00  0.00    -0.496 OA 
ENDBRANCH  30  31
ENDBRANCH  28  30
ENDBRANCH  19  28
ENDBRANCH  17  19
ENDBRANCH   8  15
TORSDOF 7
ENDMDL
MODEL       65
REMARK 921   NORMALIZED FREE ENERGY PREDICTED BY IDOCK:   -5.72 KCAL/MOL
REMARK 922        TOTAL FREE ENERGY PREDICTED BY IDOCK:   -9.41 KCAL/MOL
REMARK 923 INTER-LIGAND FREE ENERGY PREDICTED BY IDOCK:   -7.90 KCAL/MOL
REMARK 924 INTRA-LIGAND FREE ENERGY PREDICTED BY IDOCK:   -1.51 KCAL/MOL
REMARK 927      BINDING AFFINITY PREDICTED BY RF-SCORE:    0.00 PKD
ROOT
HETATM    1  C   UNL     1      -9.094  11.339  67.076  1.00  0.00    -0.163 C  
HETATM    2  S   UNL     1      -9.479   9.872  66.122  1.00  0.00    -0.218 SA 
HETATM    3  CG2 UNL     1     -10.036  10.734  64.653  1.00  0.00    -0.344 C  
HETATM    4  CB  UNL     1     -10.875  11.993  64.854  1.00  0.00    -0.349 C  
HETATM    5  O   UNL     1     -10.992  13.016  69.176  1.00  0.00    -0.222 OA 
HETATM    6  CA  UNL     1     -10.929  12.687  66.032  1.00  0.00    -0.282 C  
HETATM    7  N   UNL     1     -10.247  12.221  67.127  1.00  0.00    -0.210 N  
HETATM    8  CA  UNL     1      -9.253  11.188  68.630  1.00  0.00    -0.171 C  
HETATM    9  C   UNL     1     -11.730  13.975  66.146  1.00  0.00    -0.384 C  
HETATM   10  C   UNL     1     -10.266  12.361  68.465  1.00  0.00    -0.205 C  
HETATM   11  OXT UNL     1     -11.953  14.715  65.199  1.00  0.00    -0.368 OA 
HETATM   12  O   UNL     1     -12.178  14.320  67.369  1.00  0.00    -0.378 OA 
ENDROOT
BRANCH   4  13
HETATM   13  CG1 UNL     1     -11.675  12.327  63.660  1.00  0.00    -0.591 C  
HETATM   14  CD1 UNL     1     -12.898  11.876  63.341  1.00  0.00    -0.393 C  
ENDBRANCH   4  13
BRANCH   8  15
HETATM   15  N   UNL     1      -9.876   9.936  69.174  1.00  0.00    -0.187 N  
HETATM   16  H   UNL     1     -10.771   9.617  68.801  1.00  0.00     0.000 HD 
HETATM   17  C   UNL     1      -9.256   9.212  70.169  1.00  0.00    -0.206 C  
HETATM   18  O   UNL     1      -8.236   9.591  70.728  1.00  0.00    -0.251 OA 
BRANCH  17  19
HETATM   19  C   UNL     1      -9.938   7.915  70.616  1.00  0.00    -0.186 C  
BRANCH  19  20
HETATM   20  C   UNL     1     -11.336   7.941  71.037  1.00  0.00    -0.274 A  
HETATM   21  N   UNL     1     -13.904   9.798  72.553  1.00  0.00    -0.615 NA 
HETATM   22  C   UNL     1     -12.243   6.913  70.855  1.00  0.00    -0.353 A  
HETATM   23  N   UNL     1     -11.870   9.064  71.673  1.00  0.00    -0.335 NA 
HETATM   24  C   UNL     1     -13.136   8.877  71.953  1.00  0.00    -0.386 A  
HETATM   25  S   UNL     1     -13.774   7.355  71.490  1.00  0.00    -0.300 SA 
HETATM   26  H2  UNL     1     -14.886   9.589  72.737  1.00  0.00     0.000 HD 
HETATM   27  H1  UNL     1     -13.524  10.703  72.829  1.00  0.00     0.000 HD 
ENDBRANCH  19  20
BRANCH  19  28
HETATM   28  N   UNL     1      -9.384   6.733  70.679  1.00  0.00    -0.162 NA 
HETATM   29  H   UNL     1      -9.478   6.135  71.500  1.00  0.00     0.000 HD 
BRANCH  28  30
HETATM   30  O   UNL     1      -8.656   6.339  69.554  1.00  0.00    -0.129 OA 
BRANCH  30  31
HETATM   31  C   UNL     1      -7.337   5.978  69.976  1.00  0.00    -0.075 C  
HETATM   32  O   UNL     1      -6.367   5.028  71.991  1.00  0.00    -0.031 OA 
HETATM   33  C   UNL     1      -7.256   5.002  71.148  1.00  0.00    -0.064 C  
HETATM   34  O   UNL     1      -8.216   4.048  71.144  1.00  0.00    -0.069 OA 
ENDBRANCH  30  31
ENDBRANCH  28  30
ENDBRANCH  19  28
ENDBRANCH  17  19
ENDBRANCH   8  15
TORSDOF 7
ENDMDL
MODEL       66
REMARK 921   NORMALIZED FREE ENERGY PREDICTED BY IDOCK:   -5.66 KCAL/MOL
REMARK 922        TOTAL FREE ENERGY PREDICTED BY IDOCK:   -9.32 KCAL/MOL
REMARK 923 INTER-LIGAND FREE ENERGY PREDICTED BY IDOCK:   -8.12 KCAL/MOL
REMARK 924 INTRA-LIGAND FREE ENERGY PREDICTED BY IDOCK:   -1.20 KCAL/MOL
REMARK 927      BINDING AFFINITY PREDICTED BY RF-SCORE:    0.00 PKD
ROOT
HETATM    1  C   UNL     1     -10.193  12.208  67.122  1.00  0.00    -0.210 C  
HETATM    2  S   UNL     1     -11.663  12.995  67.777  1.00  0.00    -0.351 SA 
HETATM    3  CG2 UNL     1     -11.297  14.638  67.164  1.00  0.00    -0.356 C  
HETATM    4  CB  UNL     1      -9.847  15.107  67.238  1.00  0.00    -0.228 C  
HETATM    5  O   UNL     1      -7.269  11.737  68.556  1.00  0.00    -0.082 OA 
HETATM    6  CA  UNL     1      -8.784  14.261  67.402  1.00  0.00    -0.209 C  
HETATM    7  N   UNL     1      -9.005  12.918  67.567  1.00  0.00    -0.182 N  
HETATM    8  CA  UNL     1      -9.663  10.984  67.951  1.00  0.00    -0.172 C  
HETATM    9  C   UNL     1      -7.357  14.785  67.397  1.00  0.00    -0.185 C  
HETATM   10  C   UNL     1      -8.364  11.839  68.052  1.00  0.00    -0.154 C  
HETATM   11  OXT UNL     1      -7.014  15.798  66.804  1.00  0.00    -0.218 OA 
HETATM   12  O   UNL     1      -6.428  14.065  68.056  1.00  0.00    -0.116 OA 
ENDROOT
BRANCH   4  13
HETATM   13  CG1 UNL     1      -9.732  16.577  67.189  1.00  0.00    -0.246 C  
HETATM   14  CD1 UNL     1     -10.510  17.480  67.805  1.00  0.00    -0.381 C  
ENDBRANCH   4  13
BRANCH   8  15
HETATM   15  N   UNL     1     -10.287  10.690  69.284  1.00  0.00    -0.216 N  
HETATM   16  H   UNL     1     -10.611  11.461  69.869  1.00  0.00     0.000 HD 
HETATM   17  C   UNL     1     -10.428   9.393  69.728  1.00  0.00    -0.226 C  
HETATM   18  O   UNL     1      -9.972   8.433  69.123  1.00  0.00    -0.185 OA 
BRANCH  17  19
HETATM   19  C   UNL     1     -11.132   9.189  71.072  1.00  0.00    -0.305 C  
BRANCH  19  20
HETATM   20  C   UNL     1     -10.683   8.127  71.969  1.00  0.00    -0.278 A  
HETATM   21  N   UNL     1     -11.413   5.013  73.419  1.00  0.00    -0.482 NA 
HETATM   22  C   UNL     1      -9.476   8.112  72.644  1.00  0.00    -0.276 A  
HETATM   23  N   UNL     1     -11.480   7.005  72.204  1.00  0.00    -0.266 NA 
HETATM   24  C   UNL     1     -10.883   6.180  73.028  1.00  0.00    -0.257 A  
HETATM   25  S   UNL     1      -9.341   6.684  73.584  1.00  0.00    -0.166 SA 
HETATM   26  H2  UNL     1     -10.891   4.414  74.058  1.00  0.00     0.000 HD 
HETATM   27  H1  UNL     1     -12.331   4.713  73.089  1.00  0.00     0.000 HD 
ENDBRANCH  19  20
BRANCH  19  28
HETATM   28  N   UNL     1     -12.146   9.878  71.527  1.00  0.00    -0.400 NA 
HETATM   29  H   UNL     1     -12.952   9.431  71.963  1.00  0.00     0.000 HD 
BRANCH  28  30
HETATM   30  O   UNL     1     -12.056  11.264  71.379  1.00  0.00    -0.165 OA 
BRANCH  30  31
HETATM   31  C   UNL     1     -13.282  11.845  71.833  1.00  0.00    -0.362 C  
HETATM   32  O   UNL     1     -13.929  13.983  72.791  1.00  0.00    -0.669 OA 
HETATM   33  C   UNL     1     -13.297  13.369  71.939  1.00  0.00    -0.451 C  
HETATM   34  O   UNL     1     -12.607  14.001  70.961  1.00  0.00    -0.325 OA 
ENDBRANCH  30  31
ENDBRANCH  28  30
ENDBRANCH  19  28
ENDBRANCH  17  19
ENDBRANCH   8  15
TORSDOF 7
ENDMDL
MODEL       67
REMARK 921   NORMALIZED FREE ENERGY PREDICTED BY IDOCK:   -5.65 KCAL/MOL
REMARK 922        TOTAL FREE ENERGY PREDICTED BY IDOCK:   -9.32 KCAL/MOL
REMARK 923 INTER-LIGAND FREE ENERGY PREDICTED BY IDOCK:   -7.74 KCAL/MOL
REMARK 924 INTRA-LIGAND FREE ENERGY PREDICTED BY IDOCK:   -1.58 KCAL/MOL
REMARK 927      BINDING AFFINITY PREDICTED BY RF-SCORE:    0.00 PKD
ROOT
HETATM    1  C   UNL     1     -12.487  11.173  69.760  1.00  0.00    -0.162 C  
HETATM    2  S   UNL     1     -12.557  10.578  71.449  1.00  0.00    -0.446 SA 
HETATM    3  CG2 UNL     1     -13.435  11.989  72.117  1.00  0.00    -0.233 C  
HETATM    4  CB  UNL     1     -13.038  13.370  71.604  1.00  0.00    -0.463 C  
HETATM    5  O   UNL     1     -10.139  12.929  68.266  1.00  0.00    -0.233 OA 
HETATM    6  CA  UNL     1     -12.333  13.576  70.450  1.00  0.00    -0.327 C  
HETATM    7  N   UNL     1     -11.896  12.500  69.720  1.00  0.00    -0.328 N  
HETATM    8  CA  UNL     1     -11.242  10.692  68.932  1.00  0.00    -0.275 C  
HETATM    9  C   UNL     1     -12.029  14.982  69.957  1.00  0.00    -0.332 C  
HETATM   10  C   UNL     1     -10.969  12.220  68.787  1.00  0.00    -0.236 C  
HETATM   11  OXT UNL     1     -12.730  15.950  70.211  1.00  0.00    -0.343 OA 
HETATM   12  O   UNL     1     -10.947  15.144  69.171  1.00  0.00    -0.235 OA 
ENDROOT
BRANCH   4  13
HETATM   13  CG1 UNL     1     -13.435  14.447  72.532  1.00  0.00    -0.593 C  
HETATM   14  CD1 UNL     1     -12.771  14.880  73.615  1.00  0.00    -0.600 C  
ENDBRANCH   4  13
BRANCH   8  15
HETATM   15  N   UNL     1     -10.143   9.956  69.642  1.00  0.00    -0.216 N  
HETATM   16  H   UNL     1      -9.394  10.483  70.092  1.00  0.00     0.000 HD 
HETATM   17  C   UNL     1     -10.133   8.579  69.694  1.00  0.00    -0.202 C  
HETATM   18  O   UNL     1     -10.943   7.887  69.092  1.00  0.00    -0.097 OA 
BRANCH  17  19
HETATM   19  C   UNL     1      -9.006   7.919  70.493  1.00  0.00    -0.145 C  
BRANCH  19  20
HETATM   20  C   UNL     1      -7.666   8.501  70.468  1.00  0.00    -0.084 A  
HETATM   21  N   UNL     1      -5.688  11.329  71.119  1.00  0.00    -0.363 NA 
HETATM   22  C   UNL     1      -6.518   7.841  70.068  1.00  0.00    -0.034 A  
HETATM   23  N   UNL     1      -7.452   9.819  70.874  1.00  0.00    -0.309 NA 
HETATM   24  C   UNL     1      -6.183  10.130  70.781  1.00  0.00    -0.069 A  
HETATM   25  S   UNL     1      -5.162   8.882  70.197  1.00  0.00    -0.028 SA 
HETATM   26  H2  UNL     1      -4.687  11.503  71.028  1.00  0.00     0.000 HD 
HETATM   27  H1  UNL     1      -6.296  12.072  71.466  1.00  0.00     0.000 HD 
ENDBRANCH  19  20
BRANCH  19  28
HETATM   28  N   UNL     1      -9.104   6.838  71.220  1.00  0.00    -0.150 NA 
HETATM   29  H   UNL     1      -9.061   5.905  70.811  1.00  0.00     0.000 HD 
BRANCH  28  30
HETATM   30  O   UNL     1      -9.273   7.039  72.592  1.00  0.00    -0.134 OA 
BRANCH  30  31
HETATM   31  C   UNL     1     -10.613   7.486  72.820  1.00  0.00    -0.313 C  
HETATM   32  O   UNL     1     -12.791   6.970  71.872  1.00  0.00    -0.324 OA 
HETATM   33  C   UNL     1     -11.719   6.565  72.306  1.00  0.00    -0.281 C  
HETATM   34  O   UNL     1     -11.448   5.245  72.437  1.00  0.00    -0.187 OA 
ENDBRANCH  30  31
ENDBRANCH  28  30
ENDBRANCH  19  28
ENDBRANCH  17  19
ENDBRANCH   8  15
TORSDOF 7
ENDMDL
MODEL       68
REMARK 921   NORMALIZED FREE ENERGY PREDICTED BY IDOCK:   -5.65 KCAL/MOL
REMARK 922        TOTAL FREE ENERGY PREDICTED BY IDOCK:   -9.32 KCAL/MOL
REMARK 923 INTER-LIGAND FREE ENERGY PREDICTED BY IDOCK:   -7.77 KCAL/MOL
REMARK 924 INTRA-LIGAND FREE ENERGY PREDICTED BY IDOCK:   -1.54 KCAL/MOL
REMARK 927      BINDING AFFINITY PREDICTED BY RF-SCORE:    0.00 PKD
ROOT
HETATM    1  C   UNL     1      -9.043  10.687  67.084  1.00  0.00    -0.143 C  
HETATM    2  S   UNL     1      -9.365   9.553  65.734  1.00  0.00    -0.251 SA 
HETATM    3  CG2 UNL     1      -9.824  10.803  64.535  1.00  0.00    -0.310 C  
HETATM    4  CB  UNL     1     -10.674  11.970  65.028  1.00  0.00    -0.341 C  
HETATM    5  O   UNL     1     -11.075  11.742  69.447  1.00  0.00    -0.235 OA 
HETATM    6  CA  UNL     1     -10.805  12.307  66.348  1.00  0.00    -0.264 C  
HETATM    7  N   UNL     1     -10.197  11.540  67.308  1.00  0.00    -0.199 N  
HETATM    8  CA  UNL     1      -9.304  10.108  68.520  1.00  0.00    -0.151 C  
HETATM    9  C   UNL     1     -11.612  13.526  66.769  1.00  0.00    -0.363 C  
HETATM   10  C   UNL     1     -10.304  11.299  68.627  1.00  0.00    -0.201 C  
HETATM   11  OXT UNL     1     -11.772  14.506  66.056  1.00  0.00    -0.362 OA 
HETATM   12  O   UNL     1     -12.140  13.523  68.008  1.00  0.00    -0.347 OA 
ENDROOT
BRANCH   4  13
HETATM   13  CG1 UNL     1     -11.394  12.641  63.929  1.00  0.00    -0.501 C  
HETATM   14  CD1 UNL     1     -12.454  12.185  63.245  1.00  0.00    -0.528 C  
ENDBRANCH   4  13
BRANCH   8  15
HETATM   15  N   UNL     1      -9.962   8.766  68.649  1.00  0.00    -0.177 N  
HETATM   16  H   UNL     1     -10.221   8.250  67.808  1.00  0.00     0.000 HD 
HETATM   17  C   UNL     1     -10.221   8.222  69.889  1.00  0.00    -0.201 C  
HETATM   18  O   UNL     1     -10.028   8.829  70.933  1.00  0.00    -0.192 OA 
BRANCH  17  19
HETATM   19  C   UNL     1     -10.838   6.821  69.920  1.00  0.00    -0.266 C  
BRANCH  19  20
HETATM   20  C   UNL     1     -10.674   5.985  71.107  1.00  0.00    -0.264 A  
HETATM   21  N   UNL     1      -8.772   3.497  72.698  1.00  0.00    -0.085 NA 
HETATM   22  C   UNL     1     -11.488   6.019  72.225  1.00  0.00    -0.312 A  
HETATM   23  N   UNL     1      -9.629   5.062  71.192  1.00  0.00    -0.158 NA 
HETATM   24  C   UNL     1      -9.665   4.431  72.340  1.00  0.00    -0.157 A  
HETATM   25  S   UNL     1     -10.943   4.883  73.389  1.00  0.00    -0.342 SA 
HETATM   26  H2  UNL     1      -8.853   3.049  73.610  1.00  0.00     0.000 HD 
HETATM   27  H1  UNL     1      -8.011   3.228  72.073  1.00  0.00     0.000 HD 
ENDBRANCH  19  20
BRANCH  19  28
HETATM   28  N   UNL     1     -11.517   6.252  68.958  1.00  0.00    -0.523 NA 
HETATM   29  H   UNL     1     -12.318   5.650  69.144  1.00  0.00     0.000 HD 
BRANCH  28  30
HETATM   30  O   UNL     1     -11.076   6.521  67.661  1.00  0.00    -0.325 OA 
BRANCH  30  31
HETATM   31  C   UNL     1     -10.428   5.350  67.154  1.00  0.00    -0.235 C  
HETATM   32  O   UNL     1      -8.289   4.878  66.100  1.00  0.00    -0.111 OA 
HETATM   33  C   UNL     1      -8.912   5.445  66.990  1.00  0.00    -0.112 C  
HETATM   34  O   UNL     1      -8.292   6.156  67.962  1.00  0.00    -0.116 OA 
ENDBRANCH  30  31
ENDBRANCH  28  30
ENDBRANCH  19  28
ENDBRANCH  17  19
ENDBRANCH   8  15
TORSDOF 7
ENDMDL
MODEL       69
REMARK 921   NORMALIZED FREE ENERGY PREDICTED BY IDOCK:   -5.63 KCAL/MOL
REMARK 922        TOTAL FREE ENERGY PREDICTED BY IDOCK:   -9.29 KCAL/MOL
REMARK 923 INTER-LIGAND FREE ENERGY PREDICTED BY IDOCK:   -7.54 KCAL/MOL
REMARK 924 INTRA-LIGAND FREE ENERGY PREDICTED BY IDOCK:   -1.75 KCAL/MOL
REMARK 927      BINDING AFFINITY PREDICTED BY RF-SCORE:    0.00 PKD
ROOT
HETATM    1  C   UNL     1     -12.025  12.108  68.928  1.00  0.00    -0.242 C  
HETATM    2  S   UNL     1     -12.385  11.277  70.473  1.00  0.00    -0.344 SA 
HETATM    3  CG2 UNL     1     -12.954  12.732  71.351  1.00  0.00    -0.266 C  
HETATM    4  CB  UNL     1     -12.192  14.033  71.119  1.00  0.00    -0.417 C  
HETATM    5  O   UNL     1      -9.201  13.439  67.888  1.00  0.00    -0.198 OA 
HETATM    6  CA  UNL     1     -11.359  14.244  70.055  1.00  0.00    -0.165 C  
HETATM    7  N   UNL     1     -11.132  13.231  69.159  1.00  0.00    -0.239 N  
HETATM    8  CA  UNL     1     -10.864  11.475  68.081  1.00  0.00    -0.215 C  
HETATM    9  C   UNL     1     -10.683  15.590  69.843  1.00  0.00    -0.311 C  
HETATM   10  C   UNL     1     -10.220  12.886  68.233  1.00  0.00    -0.245 C  
HETATM   11  OXT UNL     1     -11.150  16.647  70.241  1.00  0.00    -0.297 OA 
HETATM   12  O   UNL     1      -9.529  15.603  69.149  1.00  0.00    -0.219 OA 
ENDROOT
BRANCH   4  13
HETATM   13  CG1 UNL     1     -12.399  15.004  72.212  1.00  0.00    -0.434 C  
HETATM   14  CD1 UNL     1     -13.556  15.554  72.610  1.00  0.00    -0.657 C  
ENDBRANCH   4  13
BRANCH   8  15
HETATM   15  N   UNL     1     -10.042  10.377  68.691  1.00  0.00    -0.168 N  
HETATM   16  H   UNL     1      -9.423  10.588  69.473  1.00  0.00     0.000 HD 
HETATM   17  C   UNL     1     -10.114   9.088  68.207  1.00  0.00    -0.192 C  
HETATM   18  O   UNL     1     -10.758   8.789  67.212  1.00  0.00    -0.276 OA 
BRANCH  17  19
HETATM   19  C   UNL     1      -9.286   8.024  68.933  1.00  0.00    -0.147 C  
BRANCH  19  20
HETATM   20  C   UNL     1      -9.937   7.125  69.883  1.00  0.00    -0.182 A  
HETATM   21  N   UNL     1     -12.678   6.605  72.017  1.00  0.00    -0.531 NA 
HETATM   22  C   UNL     1      -9.468   5.876  70.249  1.00  0.00    -0.162 A  
HETATM   23  N   UNL     1     -11.135   7.486  70.502  1.00  0.00    -0.257 NA 
HETATM   24  C   UNL     1     -11.545   6.533  71.303  1.00  0.00    -0.327 A  
HETATM   25  S   UNL     1     -10.533   5.152  71.380  1.00  0.00    -0.136 SA 
HETATM   26  H2  UNL     1     -12.942   5.823  72.617  1.00  0.00     0.000 HD 
HETATM   27  H1  UNL     1     -13.280   7.427  71.971  1.00  0.00     0.000 HD 
ENDBRANCH  19  20
BRANCH  19  28
HETATM   28  N   UNL     1      -8.000   7.825  68.806  1.00  0.00    -0.123 NA 
HETATM   29  H   UNL     1      -7.572   6.920  68.997  1.00  0.00     0.000 HD 
BRANCH  28  30
HETATM   30  O   UNL     1      -7.250   8.929  68.394  1.00  0.00    -0.076 OA 
BRANCH  30  31
HETATM   31  C   UNL     1      -6.205   9.144  69.348  1.00  0.00    -0.040 C  
HETATM   32  O   UNL     1      -5.778  10.769  71.105  1.00  0.00    -0.282 OA 
HETATM   33  C   UNL     1      -6.569  10.015  70.549  1.00  0.00    -0.122 C  
HETATM   34  O   UNL     1      -7.831   9.834  71.005  1.00  0.00    -0.267 OA 
ENDBRANCH  30  31
ENDBRANCH  28  30
ENDBRANCH  19  28
ENDBRANCH  17  19
ENDBRANCH   8  15
TORSDOF 7
ENDMDL
MODEL       70
REMARK 921   NORMALIZED FREE ENERGY PREDICTED BY IDOCK:   -5.63 KCAL/MOL
REMARK 922        TOTAL FREE ENERGY PREDICTED BY IDOCK:   -9.29 KCAL/MOL
REMARK 923 INTER-LIGAND FREE ENERGY PREDICTED BY IDOCK:   -8.04 KCAL/MOL
REMARK 924 INTRA-LIGAND FREE ENERGY PREDICTED BY IDOCK:   -1.25 KCAL/MOL
REMARK 927      BINDING AFFINITY PREDICTED BY RF-SCORE:    0.00 PKD
ROOT
HETATM    1  C   UNL     1      -8.866  10.111  68.984  1.00  0.00    -0.166 C  
HETATM    2  S   UNL     1     -10.465   9.763  69.714  1.00  0.00    -0.269 SA 
HETATM    3  CG2 UNL     1     -10.592   8.079  69.113  1.00  0.00    -0.169 C  
HETATM    4  CB  UNL     1     -10.107   7.803  67.693  1.00  0.00    -0.254 C  
HETATM    5  O   UNL     1      -8.159  11.447  66.062  1.00  0.00    -0.084 OA 
HETATM    6  CA  UNL     1      -9.282   8.644  66.997  1.00  0.00    -0.151 C  
HETATM    7  N   UNL     1      -8.896   9.834  67.558  1.00  0.00    -0.125 N  
HETATM    8  CA  UNL     1      -8.621  11.613  68.596  1.00  0.00    -0.086 C  
HETATM    9  C   UNL     1      -8.779   8.276  65.610  1.00  0.00    -0.156 C  
HETATM   10  C   UNL     1      -8.413  11.027  67.167  1.00  0.00    -0.137 C  
HETATM   11  OXT UNL     1      -8.641   7.124  65.227  1.00  0.00    -0.098 OA 
HETATM   12  O   UNL     1      -8.437   9.286  64.786  1.00  0.00    -0.154 OA 
ENDROOT
BRANCH   4  13
HETATM   13  CG1 UNL     1     -10.691   6.569  67.134  1.00  0.00    -0.438 C  
HETATM   14  CD1 UNL     1     -10.502   5.309  67.556  1.00  0.00    -0.193 C  
ENDBRANCH   4  13
BRANCH   8  15
HETATM   15  N   UNL     1      -9.768  12.578  68.682  1.00  0.00    -0.402 N  
HETATM   16  H   UNL     1     -10.717  12.221  68.794  1.00  0.00     0.000 HD 
HETATM   17  C   UNL     1      -9.554  13.937  68.612  1.00  0.00    -0.142 C  
HETATM   18  O   UNL     1      -8.457  14.425  68.378  1.00  0.00    -0.153 OA 
BRANCH  17  19
HETATM   19  C   UNL     1     -10.778  14.844  68.771  1.00  0.00    -0.252 C  
BRANCH  19  20
HETATM   20  C   UNL     1     -11.523  14.838  70.029  1.00  0.00    -0.277 A  
HETATM   21  N   UNL     1     -12.005  16.366  73.154  1.00  0.00    -0.497 NA 
HETATM   22  C   UNL     1     -12.534  13.953  70.351  1.00  0.00    -0.334 A  
HETATM   23  N   UNL     1     -11.250  15.778  71.025  1.00  0.00    -0.360 NA 
HETATM   24  C   UNL     1     -12.037  15.597  72.056  1.00  0.00    -0.443 A  
HETATM   25  S   UNL     1     -13.145  14.296  71.916  1.00  0.00    -0.392 SA 
HETATM   26  H2  UNL     1     -12.651  16.173  73.920  1.00  0.00     0.000 HD 
HETATM   27  H1  UNL     1     -11.345  17.139  73.238  1.00  0.00     0.000 HD 
ENDBRANCH  19  20
BRANCH  19  28
HETATM   28  N   UNL     1     -11.264  15.653  67.867  1.00  0.00    -0.341 NA 
HETATM   29  H   UNL     1     -11.661  15.310  66.993  1.00  0.00     0.000 HD 
BRANCH  28  30
HETATM   30  O   UNL     1     -11.207  17.014  68.173  1.00  0.00    -0.272 OA 
BRANCH  30  31
HETATM   31  C   UNL     1      -9.941  17.520  67.739  1.00  0.00    -0.312 C  
HETATM   32  O   UNL     1      -8.488  17.131  65.830  1.00  0.00    -0.522 OA 
HETATM   33  C   UNL     1      -9.619  17.329  66.258  1.00  0.00    -0.248 C  
HETATM   34  O   UNL     1     -10.686  17.468  65.436  1.00  0.00    -0.612 OA 
ENDBRANCH  30  31
ENDBRANCH  28  30
ENDBRANCH  19  28
ENDBRANCH  17  19
ENDBRANCH   8  15
TORSDOF 7
ENDMDL
MODEL       71
REMARK 921   NORMALIZED FREE ENERGY PREDICTED BY IDOCK:   -5.63 KCAL/MOL
REMARK 922        TOTAL FREE ENERGY PREDICTED BY IDOCK:   -9.29 KCAL/MOL
REMARK 923 INTER-LIGAND FREE ENERGY PREDICTED BY IDOCK:   -8.11 KCAL/MOL
REMARK 924 INTRA-LIGAND FREE ENERGY PREDICTED BY IDOCK:   -1.18 KCAL/MOL
REMARK 927      BINDING AFFINITY PREDICTED BY RF-SCORE:    0.00 PKD
ROOT
HETATM    1  C   UNL     1      -8.680  11.935  66.871  1.00  0.00    -0.191 C  
HETATM    2  S   UNL     1      -9.417  10.398  66.318  1.00  0.00    -0.179 SA 
HETATM    3  CG2 UNL     1     -10.084  11.041  64.785  1.00  0.00    -0.308 C  
HETATM    4  CB  UNL     1     -10.696  12.439  64.817  1.00  0.00    -0.332 C  
HETATM    5  O   UNL     1      -9.956  14.284  68.790  1.00  0.00    -0.231 OA 
HETATM    6  CA  UNL     1     -10.459  13.346  65.813  1.00  0.00    -0.290 C  
HETATM    7  N   UNL     1      -9.677  12.993  66.882  1.00  0.00    -0.232 N  
HETATM    8  CA  UNL     1      -8.600  12.117  68.428  1.00  0.00    -0.141 C  
HETATM    9  C   UNL     1     -11.044  14.749  65.750  1.00  0.00    -0.338 C  
HETATM   10  C   UNL     1      -9.455  13.390  68.148  1.00  0.00    -0.218 C  
HETATM   11  OXT UNL     1     -11.316  15.318  64.703  1.00  0.00    -0.398 OA 
HETATM   12  O   UNL     1     -11.233  15.396  66.916  1.00  0.00    -0.307 OA 
ENDROOT
BRANCH   4  13
HETATM   13  CG1 UNL     1     -11.628  12.667  63.696  1.00  0.00    -0.575 C  
HETATM   14  CD1 UNL     1     -12.966  12.560  63.708  1.00  0.00    -0.174 C  
ENDBRANCH   4  13
BRANCH   8  15
HETATM   15  N   UNL     1      -9.293  11.118  69.309  1.00  0.00    -0.404 N  
HETATM   16  H   UNL     1     -10.237  11.311  69.643  1.00  0.00     0.000 HD 
HETATM   17  C   UNL     1      -8.670   9.943  69.671  1.00  0.00    -0.204 C  
HETATM   18  O   UNL     1      -7.506   9.695  69.388  1.00  0.00    -0.079 OA 
BRANCH  17  19
HETATM   19  C   UNL     1      -9.479   8.958  70.519  1.00  0.00    -0.204 C  
BRANCH  19  20
HETATM   20  C   UNL     1      -8.836   8.268  71.635  1.00  0.00    -0.172 A  
HETATM   21  N   UNL     1      -6.725   8.550  74.428  1.00  0.00    -0.165 NA 
HETATM   22  C   UNL     1      -8.983   6.926  71.934  1.00  0.00    -0.137 A  
HETATM   23  N   UNL     1      -8.000   8.958  72.515  1.00  0.00    -0.347 NA 
HETATM   24  C   UNL     1      -7.541   8.153  73.442  1.00  0.00    -0.150 A  
HETATM   25  S   UNL     1      -8.063   6.524  73.324  1.00  0.00    -0.108 SA 
HETATM   26  H2  UNL     1      -6.410   7.872  75.122  1.00  0.00     0.000 HD 
HETATM   27  H1  UNL     1      -6.414   9.519  74.498  1.00  0.00     0.000 HD 
ENDBRANCH  19  20
BRANCH  19  28
HETATM   28  N   UNL     1     -10.734   8.636  70.346  1.00  0.00    -0.220 NA 
HETATM   29  H   UNL     1     -11.030   7.671  70.205  1.00  0.00     0.000 HD 
BRANCH  28  30
HETATM   30  O   UNL     1     -11.642   9.697  70.365  1.00  0.00    -0.258 OA 
BRANCH  30  31
HETATM   31  C   UNL     1     -12.248   9.746  71.662  1.00  0.00    -0.404 C  
HETATM   32  O   UNL     1     -14.344   8.975  72.619  1.00  0.00    -0.603 OA 
HETATM   33  C   UNL     1     -13.371   8.742  71.910  1.00  0.00    -0.389 C  
HETATM   34  O   UNL     1     -13.172   7.532  71.338  1.00  0.00    -0.349 OA 
ENDBRANCH  30  31
ENDBRANCH  28  30
ENDBRANCH  19  28
ENDBRANCH  17  19
ENDBRANCH   8  15
TORSDOF 7
ENDMDL
MODEL       72
REMARK 921   NORMALIZED FREE ENERGY PREDICTED BY IDOCK:   -5.62 KCAL/MOL
REMARK 922        TOTAL FREE ENERGY PREDICTED BY IDOCK:   -9.28 KCAL/MOL
REMARK 923 INTER-LIGAND FREE ENERGY PREDICTED BY IDOCK:   -8.48 KCAL/MOL
REMARK 924 INTRA-LIGAND FREE ENERGY PREDICTED BY IDOCK:   -0.80 KCAL/MOL
REMARK 927      BINDING AFFINITY PREDICTED BY RF-SCORE:    0.00 PKD
ROOT
HETATM    1  C   UNL     1      -9.067   8.511  69.280  1.00  0.00    -0.153 C  
HETATM    2  S   UNL     1      -7.522   9.416  69.355  1.00  0.00    -0.086 SA 
HETATM    3  CG2 UNL     1      -6.921   8.653  70.861  1.00  0.00    -0.064 C  
HETATM    4  CB  UNL     1      -7.936   8.398  71.971  1.00  0.00    -0.184 C  
HETATM    5  O   UNL     1     -12.018   9.326  70.484  1.00  0.00    -0.199 OA 
HETATM    6  CA  UNL     1      -9.290   8.381  71.771  1.00  0.00    -0.226 C  
HETATM    7  N   UNL     1      -9.796   8.660  70.528  1.00  0.00    -0.173 N  
HETATM    8  CA  UNL     1     -10.257   9.275  68.597  1.00  0.00    -0.199 C  
HETATM    9  C   UNL     1     -10.246   8.051  72.907  1.00  0.00    -0.314 C  
HETATM   10  C   UNL     1     -10.955   9.057  69.974  1.00  0.00    -0.214 C  
HETATM   11  OXT UNL     1      -9.942   7.346  73.859  1.00  0.00    -0.301 OA 
HETATM   12  O   UNL     1     -11.498   8.539  72.826  1.00  0.00    -0.296 OA 
ENDROOT
BRANCH   4  13
HETATM   13  CG1 UNL     1      -7.294   8.248  73.292  1.00  0.00    -0.157 C  
HETATM   14  CD1 UNL     1      -6.377   7.339  73.658  1.00  0.00    -0.065 C  
ENDBRANCH   4  13
BRANCH   8  15
HETATM   15  N   UNL     1     -10.078  10.722  68.243  1.00  0.00    -0.165 N  
HETATM   16  H   UNL     1      -9.139  11.120  68.215  1.00  0.00     0.000 HD 
HETATM   17  C   UNL     1     -11.165  11.519  67.957  1.00  0.00    -0.269 C  
HETATM   18  O   UNL     1     -12.319  11.132  68.071  1.00  0.00    -0.393 OA 
BRANCH  17  19
HETATM   19  C   UNL     1     -10.879  12.966  67.546  1.00  0.00    -0.235 C  
BRANCH  19  20
HETATM   20  C   UNL     1     -11.278  13.433  66.219  1.00  0.00    -0.305 A  
HETATM   21  N   UNL     1     -11.425  16.142  63.990  1.00  0.00    -1.425 NA 
HETATM   22  C   UNL     1     -11.854  12.647  65.238  1.00  0.00    -0.408 A  
HETATM   23  N   UNL     1     -11.084  14.763  65.842  1.00  0.00    -0.335 NA 
HETATM   24  C   UNL     1     -11.502  14.959  64.616  1.00  0.00    -0.379 A  
HETATM   25  S   UNL     1     -12.160  13.583  63.834  1.00  0.00    -0.376 SA 
HETATM   26  H2  UNL     1     -11.763  16.225  63.031  1.00  0.00     0.000 HD 
HETATM   27  H1  UNL     1     -11.034  16.962  64.455  1.00  0.00     0.000 HD 
ENDBRANCH  19  20
BRANCH  19  28
HETATM   28  N   UNL     1     -10.281  13.873  68.272  1.00  0.00    -0.241 NA 
HETATM   29  H   UNL     1      -9.349  14.219  68.045  1.00  0.00     0.000 HD 
BRANCH  28  30
HETATM   30  O   UNL     1     -10.997  14.338  69.377  1.00  0.00    -0.248 OA 
BRANCH  30  31
HETATM   31  C   UNL     1     -10.328  15.494  69.893  1.00  0.00    -0.312 C  
HETATM   32  O   UNL     1      -9.252  17.444  68.920  1.00  0.00    -0.252 OA 
HETATM   33  C   UNL     1     -10.208  16.677  68.934  1.00  0.00    -0.284 C  
HETATM   34  O   UNL     1     -11.287  16.858  68.137  1.00  0.00    -0.217 OA 
ENDBRANCH  30  31
ENDBRANCH  28  30
ENDBRANCH  19  28
ENDBRANCH  17  19
ENDBRANCH   8  15
TORSDOF 7
ENDMDL
MODEL       73
REMARK 921   NORMALIZED FREE ENERGY PREDICTED BY IDOCK:   -5.61 KCAL/MOL
REMARK 922        TOTAL FREE ENERGY PREDICTED BY IDOCK:   -9.26 KCAL/MOL
REMARK 923 INTER-LIGAND FREE ENERGY PREDICTED BY IDOCK:   -7.87 KCAL/MOL
REMARK 924 INTRA-LIGAND FREE ENERGY PREDICTED BY IDOCK:   -1.39 KCAL/MOL
REMARK 927      BINDING AFFINITY PREDICTED BY RF-SCORE:    0.00 PKD
ROOT
HETATM    1  C   UNL     1     -11.972  14.248  67.647  1.00  0.00    -0.365 C  
HETATM    2  S   UNL     1     -10.689  14.226  68.897  1.00  0.00    -0.252 SA 
HETATM    3  CG2 UNL     1     -10.406  15.995  68.918  1.00  0.00    -0.235 C  
HETATM    4  CB  UNL     1     -10.424  16.724  67.578  1.00  0.00    -0.319 C  
HETATM    5  O   UNL     1     -11.705  13.914  64.384  1.00  0.00    -0.388 OA 
HETATM    6  CA  UNL     1     -10.976  16.203  66.440  1.00  0.00    -0.036 C  
HETATM    7  N   UNL     1     -11.500  14.937  66.458  1.00  0.00    -0.324 N  
HETATM    8  CA  UNL     1     -12.059  12.958  66.756  1.00  0.00    -0.265 C  
HETATM    9  C   UNL     1     -11.024  17.011  65.152  1.00  0.00    -0.010 C  
HETATM   10  C   UNL     1     -11.817  13.961  65.587  1.00  0.00    -0.371 C  
HETATM   11  OXT UNL     1     -11.051  18.233  65.125  1.00  0.00    -0.522 OA 
HETATM   12  O   UNL     1     -11.073  16.328  63.992  1.00  0.00    -0.655 OA 
ENDROOT
BRANCH   4  13
HETATM   13  CG1 UNL     1      -9.713  18.016  67.636  1.00  0.00    -0.291 C  
HETATM   14  CD1 UNL     1      -8.489  18.256  68.132  1.00  0.00    -0.290 C  
ENDBRANCH   4  13
BRANCH   8  15
HETATM   15  N   UNL     1     -10.983  11.919  66.880  1.00  0.00    -0.273 N  
HETATM   16  H   UNL     1     -10.136  12.003  66.317  1.00  0.00     0.000 HD 
HETATM   17  C   UNL     1     -11.124  10.855  67.744  1.00  0.00    -0.309 C  
HETATM   18  O   UNL     1     -12.153  10.642  68.371  1.00  0.00    -0.423 OA 
BRANCH  17  19
HETATM   19  C   UNL     1      -9.947   9.881  67.849  1.00  0.00    -0.160 C  
BRANCH  19  20
HETATM   20  C   UNL     1     -10.200   8.442  67.865  1.00  0.00    -0.217 A  
HETATM   21  N   UNL     1     -11.024   5.634  69.807  1.00  0.00    -0.315 NA 
HETATM   22  C   UNL     1     -10.174   7.616  66.756  1.00  0.00    -0.263 A  
HETATM   23  N   UNL     1     -10.504   7.783  69.058  1.00  0.00    -0.217 NA 
HETATM   24  C   UNL     1     -10.701   6.506  68.841  1.00  0.00    -0.273 A  
HETATM   25  S   UNL     1     -10.530   6.002  67.211  1.00  0.00    -0.293 SA 
HETATM   26  H2  UNL     1     -11.170   4.653  69.568  1.00  0.00     0.000 HD 
HETATM   27  H1  UNL     1     -11.126   5.934  70.776  1.00  0.00     0.000 HD 
ENDBRANCH  19  20
BRANCH  19  28
HETATM   28  N   UNL     1      -8.684  10.202  67.944  1.00  0.00    -0.122 NA 
HETATM   29  H   UNL     1      -7.973   9.525  68.220  1.00  0.00     0.000 HD 
BRANCH  28  30
HETATM   30  O   UNL     1      -8.368  11.529  67.643  1.00  0.00    -0.127 OA 
BRANCH  30  31
HETATM   31  C   UNL     1      -7.657  12.085  68.754  1.00  0.00    -0.070 C  
HETATM   32  O   UNL     1      -6.345  11.184  70.591  1.00  0.00    -0.333 OA 
HETATM   33  C   UNL     1      -6.607  11.178  69.394  1.00  0.00    -0.109 C  
HETATM   34  O   UNL     1      -5.926  10.408  68.512  1.00  0.00    -0.044 OA 
ENDBRANCH  30  31
ENDBRANCH  28  30
ENDBRANCH  19  28
ENDBRANCH  17  19
ENDBRANCH   8  15
TORSDOF 7
ENDMDL
MODEL       74
REMARK 921   NORMALIZED FREE ENERGY PREDICTED BY IDOCK:   -5.61 KCAL/MOL
REMARK 922        TOTAL FREE ENERGY PREDICTED BY IDOCK:   -9.25 KCAL/MOL
REMARK 923 INTER-LIGAND FREE ENERGY PREDICTED BY IDOCK:   -7.97 KCAL/MOL
REMARK 924 INTRA-LIGAND FREE ENERGY PREDICTED BY IDOCK:   -1.28 KCAL/MOL
REMARK 927      BINDING AFFINITY PREDICTED BY RF-SCORE:    0.00 PKD
ROOT
HETATM    1  C   UNL     1     -11.904  12.545  68.852  1.00  0.00    -0.301 C  
HETATM    2  S   UNL     1     -12.297  12.040  70.526  1.00  0.00    -0.214 SA 
HETATM    3  CG2 UNL     1     -12.658  13.682  71.147  1.00  0.00    -0.371 C  
HETATM    4  CB  UNL     1     -11.760  14.822  70.677  1.00  0.00    -0.353 C  
HETATM    5  O   UNL     1      -8.988  13.326  67.544  1.00  0.00    -0.186 OA 
HETATM    6  CA  UNL     1     -10.950  14.745  69.577  1.00  0.00    -0.266 C  
HETATM    7  N   UNL     1     -10.878  13.574  68.868  1.00  0.00    -0.243 N  
HETATM    8  CA  UNL     1     -10.859  11.640  68.108  1.00  0.00    -0.217 C  
HETATM    9  C   UNL     1     -10.131  15.943  69.121  1.00  0.00    -0.240 C  
HETATM   10  C   UNL     1     -10.049  12.967  67.999  1.00  0.00    -0.235 C  
HETATM   11  OXT UNL     1     -10.456  17.101  69.337  1.00  0.00    -0.321 OA 
HETATM   12  O   UNL     1      -9.012  15.697  68.413  1.00  0.00    -0.177 OA 
ENDROOT
BRANCH   4  13
HETATM   13  CG1 UNL     1     -11.809  15.983  71.587  1.00  0.00    -0.582 C  
HETATM   14  CD1 UNL     1     -12.221  16.005  72.864  1.00  0.00    -0.621 C  
ENDBRANCH   4  13
BRANCH   8  15
HETATM   15  N   UNL     1     -10.147  10.571  68.884  1.00  0.00    -0.192 N  
HETATM   16  H   UNL     1      -9.630  10.822  69.727  1.00  0.00     0.000 HD 
HETATM   17  C   UNL     1     -10.182   9.256  68.473  1.00  0.00    -0.201 C  
HETATM   18  O   UNL     1     -10.698   8.904  67.421  1.00  0.00    -0.272 OA 
BRANCH  17  19
HETATM   19  C   UNL     1      -9.479   8.228  69.363  1.00  0.00    -0.159 C  
BRANCH  19  20
HETATM   20  C   UNL     1     -10.092   7.826  70.627  1.00  0.00    -0.191 A  
HETATM   21  N   UNL     1     -12.726   8.329  72.895  1.00  0.00    -0.664 NA 
HETATM   22  C   UNL     1      -9.619   6.829  71.461  1.00  0.00    -0.163 A  
HETATM   23  N   UNL     1     -11.252   8.451  71.088  1.00  0.00    -0.255 NA 
HETATM   24  C   UNL     1     -11.632   7.931  72.230  1.00  0.00    -0.350 A  
HETATM   25  S   UNL     1     -10.634   6.676  72.835  1.00  0.00    -0.262 SA 
HETATM   26  H2  UNL     1     -12.969   7.877  73.777  1.00  0.00     0.000 HD 
HETATM   27  H1  UNL     1     -13.320   9.076  72.535  1.00  0.00     0.000 HD 
ENDBRANCH  19  20
BRANCH  19  28
HETATM   28  N   UNL     1      -8.333   7.649  69.119  1.00  0.00    -0.130 NA 
HETATM   29  H   UNL     1      -7.602   7.576  69.826  1.00  0.00     0.000 HD 
BRANCH  28  30
HETATM   30  O   UNL     1      -8.172   7.135  67.830  1.00  0.00    -0.113 OA 
BRANCH  30  31
HETATM   31  C   UNL     1      -8.816   5.858  67.771  1.00  0.00    -0.109 C  
HETATM   32  O   UNL     1     -10.507   4.840  66.352  1.00  0.00    -0.282 OA 
HETATM   33  C   UNL     1      -9.485   5.511  66.442  1.00  0.00    -0.155 C  
HETATM   34  O   UNL     1      -8.812   5.945  65.351  1.00  0.00    -0.144 OA 
ENDBRANCH  30  31
ENDBRANCH  28  30
ENDBRANCH  19  28
ENDBRANCH  17  19
ENDBRANCH   8  15
TORSDOF 7
ENDMDL
MODEL       75
REMARK 921   NORMALIZED FREE ENERGY PREDICTED BY IDOCK:   -5.59 KCAL/MOL
REMARK 922        TOTAL FREE ENERGY PREDICTED BY IDOCK:   -9.24 KCAL/MOL
REMARK 923 INTER-LIGAND FREE ENERGY PREDICTED BY IDOCK:   -7.85 KCAL/MOL
REMARK 924 INTRA-LIGAND FREE ENERGY PREDICTED BY IDOCK:   -1.39 KCAL/MOL
REMARK 927      BINDING AFFINITY PREDICTED BY RF-SCORE:    0.00 PKD
ROOT
HETATM    1  C   UNL     1     -10.743   7.589  70.956  1.00  0.00    -0.231 C  
HETATM    2  S   UNL     1     -11.173   6.644  69.496  1.00  0.00    -0.304 SA 
HETATM    3  CG2 UNL     1     -10.534   5.076  70.083  1.00  0.00    -0.165 C  
HETATM    4  CB  UNL     1      -9.219   5.099  70.856  1.00  0.00    -0.188 C  
HETATM    5  O   UNL     1      -8.013   9.311  71.594  1.00  0.00    -0.321 OA 
HETATM    6  CA  UNL     1      -8.693   6.228  71.423  1.00  0.00    -0.135 C  
HETATM    7  N   UNL     1      -9.331   7.431  71.259  1.00  0.00    -0.154 N  
HETATM    8  CA  UNL     1     -10.427   9.106  70.702  1.00  0.00    -0.245 C  
HETATM    9  C   UNL     1      -7.413   6.170  72.241  1.00  0.00    -0.095 C  
HETATM   10  C   UNL     1      -9.049   8.744  71.335  1.00  0.00    -0.243 C  
HETATM   11  OXT UNL     1      -7.044   5.173  72.844  1.00  0.00    -0.082 OA 
HETATM   12  O   UNL     1      -6.677   7.296  72.324  1.00  0.00    -0.058 OA 
ENDROOT
BRANCH   4  13
HETATM   13  CG1 UNL     1      -8.547   3.785  70.855  1.00  0.00    -0.109 C  
HETATM   14  CD1 UNL     1      -9.114   2.576  70.982  1.00  0.00    -0.179 C  
ENDBRANCH   4  13
BRANCH   8  15
HETATM   15  N   UNL     1     -10.321   9.595  69.287  1.00  0.00    -0.199 N  
HETATM   16  H   UNL     1      -9.602   9.210  68.675  1.00  0.00     0.000 HD 
HETATM   17  C   UNL     1     -11.183  10.556  68.806  1.00  0.00    -0.262 C  
HETATM   18  O   UNL     1     -11.999  11.130  69.513  1.00  0.00    -0.311 OA 
BRANCH  17  19
HETATM   19  C   UNL     1     -11.039  10.946  67.332  1.00  0.00    -0.307 C  
BRANCH  19  20
HETATM   20  C   UNL     1      -9.957  10.373  66.535  1.00  0.00    -0.217 A  
HETATM   21  N   UNL     1      -8.449   7.441  65.322  1.00  0.00    -0.286 NA 
HETATM   22  C   UNL     1      -8.996  11.099  65.856  1.00  0.00    -0.199 A  
HETATM   23  N   UNL     1      -9.828   8.989  66.397  1.00  0.00    -0.267 NA 
HETATM   24  C   UNL     1      -8.802   8.696  65.637  1.00  0.00    -0.187 A  
HETATM   25  S   UNL     1      -7.918  10.041  65.043  1.00  0.00    -0.146 SA 
HETATM   26  H2  UNL     1      -7.642   7.283  64.719  1.00  0.00     0.000 HD 
HETATM   27  H1  UNL     1      -8.974   6.642  65.676  1.00  0.00     0.000 HD 
ENDBRANCH  19  20
BRANCH  19  28
HETATM   28  N   UNL     1     -11.799  11.783  66.675  1.00  0.00    -0.541 NA 
HETATM   29  H   UNL     1     -12.648  11.482  66.198  1.00  0.00     0.000 HD 
BRANCH  28  30
HETATM   30  O   UNL     1     -11.376  13.114  66.668  1.00  0.00    -0.302 OA 
BRANCH  30  31
HETATM   31  C   UNL     1     -12.372  13.899  66.003  1.00  0.00    -0.475 C  
HETATM   32  O   UNL     1     -12.556  14.977  63.833  1.00  0.00    -0.813 OA 
HETATM   33  C   UNL     1     -12.246  13.986  64.484  1.00  0.00    -0.434 C  
HETATM   34  O   UNL     1     -11.828  12.841  63.894  1.00  0.00    -0.392 OA 
ENDBRANCH  30  31
ENDBRANCH  28  30
ENDBRANCH  19  28
ENDBRANCH  17  19
ENDBRANCH   8  15
TORSDOF 7
ENDMDL
MODEL       76
REMARK 921   NORMALIZED FREE ENERGY PREDICTED BY IDOCK:   -5.59 KCAL/MOL
REMARK 922        TOTAL FREE ENERGY PREDICTED BY IDOCK:   -9.23 KCAL/MOL
REMARK 923 INTER-LIGAND FREE ENERGY PREDICTED BY IDOCK:   -8.08 KCAL/MOL
REMARK 924 INTRA-LIGAND FREE ENERGY PREDICTED BY IDOCK:   -1.15 KCAL/MOL
REMARK 927      BINDING AFFINITY PREDICTED BY RF-SCORE:    0.00 PKD
ROOT
HETATM    1  C   UNL     1     -11.029  15.260  68.281  1.00  0.00    -0.276 C  
HETATM    2  S   UNL     1      -9.394  15.233  69.014  1.00  0.00    -0.243 SA 
HETATM    3  CG2 UNL     1      -9.026  16.965  68.738  1.00  0.00    -0.256 C  
HETATM    4  CB  UNL     1      -9.470  17.573  67.412  1.00  0.00    -0.255 C  
HETATM    5  O   UNL     1     -11.931  14.622  65.182  1.00  0.00    -0.368 OA 
HETATM    6  CA  UNL     1     -10.411  17.007  66.595  1.00  0.00    -0.299 C  
HETATM    7  N   UNL     1     -10.964  15.799  66.933  1.00  0.00    -0.263 N  
HETATM    8  CA  UNL     1     -11.490  13.911  67.624  1.00  0.00    -0.324 C  
HETATM    9  C   UNL     1     -10.860  17.701  65.319  1.00  0.00     0.194 C  
HETATM   10  C   UNL     1     -11.616  14.783  66.338  1.00  0.00    -0.299 C  
HETATM   11  OXT UNL     1     -10.830  18.913  65.165  1.00  0.00    -0.497 OA 
HETATM   12  O   UNL     1     -11.347  16.927  64.330  1.00  0.00    -1.202 OA 
ENDROOT
BRANCH   4  13
HETATM   13  CG1 UNL     1      -8.715  18.797  67.078  1.00  0.00    -0.291 C  
HETATM   14  CD1 UNL     1      -7.444  18.885  66.658  1.00  0.00    -0.242 C  
ENDBRANCH   4  13
BRANCH   8  15
HETATM   15  N   UNL     1     -10.495  12.795  67.491  1.00  0.00    -0.217 N  
HETATM   16  H   UNL     1      -9.579  12.984  67.083  1.00  0.00     0.000 HD 
HETATM   17  C   UNL     1     -10.803  11.520  67.912  1.00  0.00    -0.210 C  
HETATM   18  O   UNL     1     -11.914  11.205  68.315  1.00  0.00    -0.592 OA 
BRANCH  17  19
HETATM   19  C   UNL     1      -9.702  10.462  67.793  1.00  0.00    -0.160 C  
BRANCH  19  20
HETATM   20  C   UNL     1      -9.992   9.074  68.148  1.00  0.00    -0.175 A  
HETATM   21  N   UNL     1     -11.509   6.058  67.178  1.00  0.00    -0.376 NA 
HETATM   22  C   UNL     1      -9.585   8.447  69.312  1.00  0.00    -0.164 A  
HETATM   23  N   UNL     1     -10.727   8.255  67.288  1.00  0.00    -0.249 NA 
HETATM   24  C   UNL     1     -10.860   7.055  67.797  1.00  0.00    -0.206 A  
HETATM   25  S   UNL     1     -10.131   6.822  69.331  1.00  0.00    -0.177 SA 
HETATM   26  H2  UNL     1     -11.570   5.145  67.628  1.00  0.00     0.000 HD 
HETATM   27  H1  UNL     1     -11.943   6.197  66.266  1.00  0.00     0.000 HD 
ENDBRANCH  19  20
BRANCH  19  28
HETATM   28  N   UNL     1      -8.471  10.666  67.405  1.00  0.00    -0.122 NA 
HETATM   29  H   UNL     1      -7.834  11.271  67.922  1.00  0.00     0.000 HD 
BRANCH  28  30
HETATM   30  O   UNL     1      -8.083  10.004  66.238  1.00  0.00    -0.113 OA 
BRANCH  30  31
HETATM   31  C   UNL     1      -8.055  10.955  65.169  1.00  0.00     0.094 C  
HETATM   32  O   UNL     1      -9.200  11.192  63.038  1.00  0.00    -0.286 OA 
HETATM   33  C   UNL     1      -9.265  10.944  64.237  1.00  0.00    -0.197 C  
HETATM   34  O   UNL     1     -10.444  10.707  64.859  1.00  0.00    -0.312 OA 
ENDBRANCH  30  31
ENDBRANCH  28  30
ENDBRANCH  19  28
ENDBRANCH  17  19
ENDBRANCH   8  15
TORSDOF 7
ENDMDL
MODEL       77
REMARK 921   NORMALIZED FREE ENERGY PREDICTED BY IDOCK:   -5.56 KCAL/MOL
REMARK 922        TOTAL FREE ENERGY PREDICTED BY IDOCK:   -9.19 KCAL/MOL
REMARK 923 INTER-LIGAND FREE ENERGY PREDICTED BY IDOCK:   -7.66 KCAL/MOL
REMARK 924 INTRA-LIGAND FREE ENERGY PREDICTED BY IDOCK:   -1.53 KCAL/MOL
REMARK 927      BINDING AFFINITY PREDICTED BY RF-SCORE:    0.00 PKD
ROOT
HETATM    1  C   UNL     1     -10.088  13.177  66.021  1.00  0.00    -0.286 C  
HETATM    2  S   UNL     1     -11.640  13.334  66.902  1.00  0.00    -0.385 SA 
HETATM    3  CG2 UNL     1     -11.444  15.061  67.337  1.00  0.00    -0.317 C  
HETATM    4  CB  UNL     1     -10.053  15.525  67.758  1.00  0.00    -0.232 C  
HETATM    5  O   UNL     1      -7.144  12.224  67.141  1.00  0.00    -0.147 OA 
HETATM    6  CA  UNL     1      -8.908  14.824  67.493  1.00  0.00    -0.190 C  
HETATM    7  N   UNL     1      -8.987  13.608  66.865  1.00  0.00    -0.237 N  
HETATM    8  CA  UNL     1      -9.439  11.748  66.058  1.00  0.00    -0.230 C  
HETATM    9  C   UNL     1      -7.545  15.377  67.879  1.00  0.00    -0.136 C  
HETATM   10  C   UNL     1      -8.239  12.501  66.707  1.00  0.00     0.008 C  
HETATM   11  OXT UNL     1      -7.306  16.572  67.977  1.00  0.00    -0.138 OA 
HETATM   12  O   UNL     1      -6.552  14.491  68.084  1.00  0.00    -0.108 OA 
ENDROOT
BRANCH   4  13
HETATM   13  CG1 UNL     1     -10.095  16.772  68.547  1.00  0.00    -0.281 C  
HETATM   14  CD1 UNL     1     -10.290  18.020  68.095  1.00  0.00    -0.398 C  
ENDBRANCH   4  13
BRANCH   8  15
HETATM   15  N   UNL     1     -10.040  10.704  66.954  1.00  0.00    -0.206 N  
HETATM   16  H   UNL     1     -10.888  10.920  67.479  1.00  0.00     0.000 HD 
HETATM   17  C   UNL     1      -9.463   9.459  67.076  1.00  0.00    -0.155 C  
HETATM   18  O   UNL     1      -8.395   9.170  66.554  1.00  0.00    -0.116 OA 
BRANCH  17  19
HETATM   19  C   UNL     1     -10.182   8.440  67.964  1.00  0.00    -0.212 C  
BRANCH  19  20
HETATM   20  C   UNL     1     -10.125   7.020  67.627  1.00  0.00    -0.172 A  
HETATM   21  N   UNL     1     -11.108   4.498  65.388  1.00  0.00    -0.932 NA 
HETATM   22  C   UNL     1      -9.434   6.058  68.342  1.00  0.00    -0.119 A  
HETATM   23  N   UNL     1     -10.790   6.525  66.504  1.00  0.00    -0.115 NA 
HETATM   24  C   UNL     1     -10.597   5.234  66.386  1.00  0.00    -0.276 A  
HETATM   25  S   UNL     1      -9.623   4.522  67.604  1.00  0.00    -0.155 SA 
HETATM   26  H2  UNL     1     -10.914   3.498  65.353  1.00  0.00     0.000 HD 
HETATM   27  H1  UNL     1     -11.688   4.922  64.664  1.00  0.00     0.000 HD 
ENDBRANCH  19  20
BRANCH  19  28
HETATM   28  N   UNL     1     -10.887   8.707  69.032  1.00  0.00    -0.429 NA 
HETATM   29  H   UNL     1     -11.819   8.320  69.176  1.00  0.00     0.000 HD 
BRANCH  28  30
HETATM   30  O   UNL     1     -10.283   9.554  69.964  1.00  0.00    -0.210 OA 
BRANCH  30  31
HETATM   31  C   UNL     1     -11.276   9.960  70.912  1.00  0.00    -0.360 C  
HETATM   32  O   UNL     1     -12.692  11.915  71.198  1.00  0.00    -0.371 OA 
HETATM   33  C   UNL     1     -12.225  11.064  70.450  1.00  0.00    -0.373 C  
HETATM   34  O   UNL     1     -12.573  10.987  69.144  1.00  0.00    -0.378 OA 
ENDBRANCH  30  31
ENDBRANCH  28  30
ENDBRANCH  19  28
ENDBRANCH  17  19
ENDBRANCH   8  15
TORSDOF 7
ENDMDL
MODEL       78
REMARK 921   NORMALIZED FREE ENERGY PREDICTED BY IDOCK:   -5.55 KCAL/MOL
REMARK 922        TOTAL FREE ENERGY PREDICTED BY IDOCK:   -9.18 KCAL/MOL
REMARK 923 INTER-LIGAND FREE ENERGY PREDICTED BY IDOCK:   -7.65 KCAL/MOL
REMARK 924 INTRA-LIGAND FREE ENERGY PREDICTED BY IDOCK:   -1.53 KCAL/MOL
REMARK 927      BINDING AFFINITY PREDICTED BY RF-SCORE:    0.00 PKD
ROOT
HETATM    1  C   UNL     1     -11.643   6.591  70.188  1.00  0.00    -0.402 C  
HETATM    2  S   UNL     1     -10.617   5.949  68.867  1.00  0.00    -0.296 SA 
HETATM    3  CG2 UNL     1     -10.029   4.510  69.758  1.00  0.00    -0.198 C  
HETATM    4  CB  UNL     1      -9.688   4.689  71.234  1.00  0.00    -0.251 C  
HETATM    5  O   UNL     1     -10.889   8.761  72.544  1.00  0.00    -0.257 OA 
HETATM    6  CA  UNL     1     -10.122   5.744  71.989  1.00  0.00    -0.185 C  
HETATM    7  N   UNL     1     -10.860   6.740  71.403  1.00  0.00    -0.232 N  
HETATM    8  CA  UNL     1     -11.807   8.152  70.209  1.00  0.00     0.201 C  
HETATM    9  C   UNL     1      -9.804   5.828  73.474  1.00  0.00    -0.166 C  
HETATM   10  C   UNL     1     -11.194   8.022  71.636  1.00  0.00    -0.255 C  
HETATM   11  OXT UNL     1      -9.608   4.847  74.177  1.00  0.00    -0.121 OA 
HETATM   12  O   UNL     1      -9.778   7.052  74.035  1.00  0.00    -0.253 OA 
ENDROOT
BRANCH   4  13
HETATM   13  CG1 UNL     1      -8.777   3.639  71.729  1.00  0.00    -0.125 C  
HETATM   14  CD1 UNL     1      -8.643   2.387  71.265  1.00  0.00    -0.101 C  
ENDBRANCH   4  13
BRANCH   8  15
HETATM   15  N   UNL     1     -10.972   8.979  69.276  1.00  0.00    -0.418 N  
HETATM   16  H   UNL     1     -10.127   8.578  68.869  1.00  0.00     0.000 HD 
HETATM   17  C   UNL     1     -11.331  10.272  68.963  1.00  0.00    -0.180 C  
HETATM   18  O   UNL     1     -12.273  10.845  69.493  1.00  0.00    -0.336 OA 
BRANCH  17  19
HETATM   19  C   UNL     1     -10.452  11.016  67.954  1.00  0.00    -0.192 C  
BRANCH  19  20
HETATM   20  C   UNL     1     -10.922  12.271  67.373  1.00  0.00    -0.253 A  
HETATM   21  N   UNL     1     -13.111  13.806  65.096  1.00  0.00    -0.751 NA 
HETATM   22  C   UNL     1     -10.467  13.530  67.721  1.00  0.00    -0.240 A  
HETATM   23  N   UNL     1     -11.912  12.276  66.389  1.00  0.00    -0.624 NA 
HETATM   24  C   UNL     1     -12.187  13.503  66.018  1.00  0.00    -0.445 A  
HETATM   25  S   UNL     1     -11.283  14.729  66.805  1.00  0.00    -0.341 SA 
HETATM   26  H2  UNL     1     -13.280  14.784  64.858  1.00  0.00     0.000 HD 
HETATM   27  H1  UNL     1     -13.649  13.077  64.627  1.00  0.00     0.000 HD 
ENDBRANCH  19  20
BRANCH  19  28
HETATM   28  N   UNL     1      -9.279  10.634  67.522  1.00  0.00    -0.143 NA 
HETATM   29  H   UNL     1      -8.478  11.264  67.504  1.00  0.00     0.000 HD 
BRANCH  28  30
HETATM   30  O   UNL     1      -9.192   9.310  67.085  1.00  0.00    -0.128 OA 
BRANCH  30  31
HETATM   31  C   UNL     1      -9.762   9.230  65.775  1.00  0.00    -0.269 C  
HETATM   32  O   UNL     1      -9.833  10.686  63.830  1.00  0.00    -0.297 OA 
HETATM   33  C   UNL     1      -9.177  10.183  64.734  1.00  0.00    -0.242 C  
HETATM   34  O   UNL     1      -7.841  10.375  64.846  1.00  0.00    -0.149 OA 
ENDBRANCH  30  31
ENDBRANCH  28  30
ENDBRANCH  19  28
ENDBRANCH  17  19
ENDBRANCH   8  15
TORSDOF 7
ENDMDL
MODEL       79
REMARK 921   NORMALIZED FREE ENERGY PREDICTED BY IDOCK:   -5.55 KCAL/MOL
REMARK 922        TOTAL FREE ENERGY PREDICTED BY IDOCK:   -9.18 KCAL/MOL
REMARK 923 INTER-LIGAND FREE ENERGY PREDICTED BY IDOCK:   -7.75 KCAL/MOL
REMARK 924 INTRA-LIGAND FREE ENERGY PREDICTED BY IDOCK:   -1.43 KCAL/MOL
REMARK 927      BINDING AFFINITY PREDICTED BY RF-SCORE:    0.00 PKD
ROOT
HETATM    1  C   UNL     1     -10.266  18.364  67.426  1.00  0.00    -0.372 C  
HETATM    2  S   UNL     1     -10.143  18.578  69.201  1.00  0.00     0.052 SA 
HETATM    3  CG2 UNL     1      -8.861  19.829  69.159  1.00  0.00     0.052 C  
HETATM    4  CB  UNL     1      -7.742  19.652  68.136  1.00  0.00    -0.344 C  
HETATM    5  O   UNL     1      -8.700  16.228  65.474  1.00  0.00    -0.203 OA 
HETATM    6  CA  UNL     1      -7.834  18.829  67.047  1.00  0.00    -0.240 C  
HETATM    7  N   UNL     1      -8.958  18.066  66.866  1.00  0.00    -0.255 N  
HETATM    8  CA  UNL     1     -10.695  16.929  66.953  1.00  0.00    -0.130 C  
HETATM    9  C   UNL     1      -6.709  18.752  66.027  1.00  0.00    -0.243 C  
HETATM   10  C   UNL     1      -9.334  16.963  66.195  1.00  0.00    -0.236 C  
HETATM   11  OXT UNL     1      -5.934  19.672  65.808  1.00  0.00    -0.171 OA 
HETATM   12  O   UNL     1      -6.597  17.616  65.311  1.00  0.00    -0.100 OA 
ENDROOT
BRANCH   4  13
HETATM   13  CG1 UNL     1      -6.529  20.410  68.500  1.00  0.00    -0.330 C  
HETATM   14  CD1 UNL     1      -5.793  20.292  69.616  1.00  0.00    -0.381 C  
ENDBRANCH   4  13
BRANCH   8  15
HETATM   15  N   UNL     1     -10.783  15.830  67.971  1.00  0.00    -0.286 N  
HETATM   16  H   UNL     1     -10.176  15.854  68.791  1.00  0.00     0.000 HD 
HETATM   17  C   UNL     1     -11.671  14.788  67.812  1.00  0.00    -0.343 C  
HETATM   18  O   UNL     1     -12.353  14.646  66.806  1.00  0.00    -0.245 OA 
BRANCH  17  19
HETATM   19  C   UNL     1     -11.732  13.746  68.932  1.00  0.00    -0.336 C  
BRANCH  19  20
HETATM   20  C   UNL     1     -12.160  14.148  70.270  1.00  0.00    -0.342 A  
HETATM   21  N   UNL     1     -11.799  16.461  72.889  1.00  0.00    -0.493 NA 
HETATM   22  C   UNL     1     -13.119  13.503  71.028  1.00  0.00    -0.148 A  
HETATM   23  N   UNL     1     -11.603  15.269  70.891  1.00  0.00    -0.312 NA 
HETATM   24  C   UNL     1     -12.135  15.450  72.075  1.00  0.00    -0.399 A  
HETATM   25  S   UNL     1     -13.323  14.301  72.532  1.00  0.00    -0.533 SA 
HETATM   26  H2  UNL     1     -12.257  16.549  73.796  1.00  0.00     0.000 HD 
HETATM   27  H1  UNL     1     -11.092  17.145  72.617  1.00  0.00     0.000 HD 
ENDBRANCH  19  20
BRANCH  19  28
HETATM   28  N   UNL     1     -11.420  12.482  68.830  1.00  0.00    -0.285 NA 
HETATM   29  H   UNL     1     -11.919  11.758  69.346  1.00  0.00     0.000 HD 
BRANCH  28  30
HETATM   30  O   UNL     1     -10.360  12.183  67.970  1.00  0.00    -0.193 OA 
BRANCH  30  31
HETATM   31  C   UNL     1     -10.878  11.447  66.857  1.00  0.00    -0.285 C  
HETATM   32  O   UNL     1     -11.406  11.962  64.541  1.00  0.00    -0.329 OA 
HETATM   33  C   UNL     1     -10.624  12.057  65.480  1.00  0.00    -0.273 C  
HETATM   34  O   UNL     1      -9.416  12.656  65.351  1.00  0.00    -0.045 OA 
ENDBRANCH  30  31
ENDBRANCH  28  30
ENDBRANCH  19  28
ENDBRANCH  17  19
ENDBRANCH   8  15
TORSDOF 7
ENDMDL
MODEL       80
REMARK 921   NORMALIZED FREE ENERGY PREDICTED BY IDOCK:   -5.55 KCAL/MOL
REMARK 922        TOTAL FREE ENERGY PREDICTED BY IDOCK:   -9.17 KCAL/MOL
REMARK 923 INTER-LIGAND FREE ENERGY PREDICTED BY IDOCK:   -7.67 KCAL/MOL
REMARK 924 INTRA-LIGAND FREE ENERGY PREDICTED BY IDOCK:   -1.50 KCAL/MOL
REMARK 927      BINDING AFFINITY PREDICTED BY RF-SCORE:    0.00 PKD
ROOT
HETATM    1  C   UNL     1     -12.564  11.263  70.053  1.00  0.00    -0.104 C  
HETATM    2  S   UNL     1     -12.865  11.207  71.819  1.00  0.00    -0.280 SA 
HETATM    3  CG2 UNL     1     -13.531  12.865  71.956  1.00  0.00    -0.473 C  
HETATM    4  CB  UNL     1     -12.860  13.961  71.133  1.00  0.00    -0.423 C  
HETATM    5  O   UNL     1      -9.840  12.141  68.431  1.00  0.00    -0.209 OA 
HETATM    6  CA  UNL     1     -12.044  13.713  70.063  1.00  0.00    -0.348 C  
HETATM    7  N   UNL     1     -11.749  12.419  69.720  1.00  0.00    -0.309 N  
HETATM    8  CA  UNL     1     -11.364  10.384  69.551  1.00  0.00    -0.265 C  
HETATM    9  C   UNL     1     -11.463  14.852  69.241  1.00  0.00    -0.303 C  
HETATM   10  C   UNL     1     -10.817  11.745  69.022  1.00  0.00    -0.195 C  
HETATM   11  OXT UNL     1     -12.001  15.944  69.129  1.00  0.00    -0.380 OA 
HETATM   12  O   UNL     1     -10.313  14.617  68.579  1.00  0.00    -0.225 OA 
ENDROOT
BRANCH   4  13
HETATM   13  CG1 UNL     1     -13.132  15.308  71.670  1.00  0.00    -0.507 C  
HETATM   14  CD1 UNL     1     -12.594  15.879  72.760  1.00  0.00    -0.567 C  
ENDBRANCH   4  13
BRANCH   8  15
HETATM   15  N   UNL     1     -10.468   9.737  70.566  1.00  0.00    -0.295 N  
HETATM   16  H   UNL     1      -9.736  10.288  71.014  1.00  0.00     0.000 HD 
HETATM   17  C   UNL     1     -10.621   8.409  70.900  1.00  0.00    -0.204 C  
HETATM   18  O   UNL     1     -11.411   7.669  70.330  1.00  0.00    -0.272 OA 
BRANCH  17  19
HETATM   19  C   UNL     1      -9.702   7.853  71.991  1.00  0.00    -0.187 C  
BRANCH  19  20
HETATM   20  C   UNL     1      -9.923   6.504  72.505  1.00  0.00    -0.170 A  
HETATM   21  N   UNL     1      -9.456   3.061  71.993  1.00  0.00    -0.123 NA 
HETATM   22  C   UNL     1     -10.555   6.199  73.697  1.00  0.00    -0.263 A  
HETATM   23  N   UNL     1      -9.481   5.387  71.794  1.00  0.00    -0.146 NA 
HETATM   24  C   UNL     1      -9.775   4.284  72.439  1.00  0.00    -0.151 A  
HETATM   25  S   UNL     1     -10.601   4.500  73.925  1.00  0.00    -0.290 SA 
HETATM   26  H2  UNL     1      -9.708   2.243  72.549  1.00  0.00     0.000 HD 
HETATM   27  H1  UNL     1      -8.964   2.933  71.109  1.00  0.00     0.000 HD 
ENDBRANCH  19  20
BRANCH  19  28
HETATM   28  N   UNL     1      -8.701   8.480  72.552  1.00  0.00    -0.347 NA 
HETATM   29  H   UNL     1      -8.508   8.406  73.551  1.00  0.00     0.000 HD 
BRANCH  28  30
HETATM   30  O   UNL     1      -7.913   9.256  71.700  1.00  0.00    -0.321 OA 
BRANCH  30  31
HETATM   31  C   UNL     1      -7.024   8.386  70.992  1.00  0.00    -0.056 C  
HETATM   32  O   UNL     1      -7.168   7.042  68.972  1.00  0.00    -0.085 OA 
HETATM   33  C   UNL     1      -7.384   8.109  69.534  1.00  0.00    -0.081 C  
HETATM   34  O   UNL     1      -7.903   9.174  68.878  1.00  0.00    -0.091 OA 
ENDBRANCH  30  31
ENDBRANCH  28  30
ENDBRANCH  19  28
ENDBRANCH  17  19
ENDBRANCH   8  15
TORSDOF 7
ENDMDL
MODEL       81
REMARK 921   NORMALIZED FREE ENERGY PREDICTED BY IDOCK:   -5.54 KCAL/MOL
REMARK 922        TOTAL FREE ENERGY PREDICTED BY IDOCK:   -9.16 KCAL/MOL
REMARK 923 INTER-LIGAND FREE ENERGY PREDICTED BY IDOCK:   -8.18 KCAL/MOL
REMARK 924 INTRA-LIGAND FREE ENERGY PREDICTED BY IDOCK:   -0.98 KCAL/MOL
REMARK 927      BINDING AFFINITY PREDICTED BY RF-SCORE:    0.00 PKD
ROOT
HETATM    1  C   UNL     1     -12.711  11.173  70.202  1.00  0.00    -0.091 C  
HETATM    2  S   UNL     1     -13.117  11.344  71.939  1.00  0.00    -0.248 SA 
HETATM    3  CG2 UNL     1     -13.612  13.064  71.856  1.00  0.00    -0.332 C  
HETATM    4  CB  UNL     1     -12.783  13.991  70.971  1.00  0.00    -0.431 C  
HETATM    5  O   UNL     1      -9.820  11.593  68.688  1.00  0.00    -0.203 OA 
HETATM    6  CA  UNL     1     -11.937  13.546  69.991  1.00  0.00    -0.340 C  
HETATM    7  N   UNL     1     -11.761  12.199  69.806  1.00  0.00    -0.320 N  
HETATM    8  CA  UNL     1     -11.583  10.130  69.878  1.00  0.00    -0.223 C  
HETATM    9  C   UNL     1     -11.193  14.524  69.096  1.00  0.00    -0.269 C  
HETATM   10  C   UNL     1     -10.866  11.363  69.249  1.00  0.00    -0.194 C  
HETATM   11  OXT UNL     1     -11.605  15.645  68.834  1.00  0.00    -0.343 OA 
HETATM   12  O   UNL     1     -10.038  14.105  68.544  1.00  0.00    -0.235 OA 
ENDROOT
BRANCH   4  13
HETATM   13  CG1 UNL     1     -12.941  15.409  71.344  1.00  0.00    -0.532 C  
HETATM   14  CD1 UNL     1     -12.302  16.076  72.318  1.00  0.00    -0.570 C  
ENDBRANCH   4  13
BRANCH   8  15
HETATM   15  N   UNL     1     -10.820   9.515  71.015  1.00  0.00    -0.329 N  
HETATM   16  H   UNL     1      -9.991   9.986  71.377  1.00  0.00     0.000 HD 
HETATM   17  C   UNL     1     -11.225   8.323  71.575  1.00  0.00    -0.262 C  
HETATM   18  O   UNL     1     -12.148   7.658  71.124  1.00  0.00    -0.308 OA 
BRANCH  17  19
HETATM   19  C   UNL     1     -10.421   7.805  72.770  1.00  0.00    -0.328 C  
BRANCH  19  20
HETATM   20  C   UNL     1      -8.960   7.827  72.723  1.00  0.00    -0.181 A  
HETATM   21  N   UNL     1      -6.001   9.047  74.168  1.00  0.00    -0.252 NA 
HETATM   22  C   UNL     1      -8.182   7.135  71.814  1.00  0.00    -0.105 A  
HETATM   23  N   UNL     1      -8.227   8.579  73.643  1.00  0.00    -0.397 NA 
HETATM   24  C   UNL     1      -6.942   8.447  73.425  1.00  0.00    -0.080 A  
HETATM   25  S   UNL     1      -6.519   7.431  72.110  1.00  0.00    -0.051 SA 
HETATM   26  H2  UNL     1      -5.017   8.897  73.948  1.00  0.00     0.000 HD 
HETATM   27  H1  UNL     1      -6.253   9.652  74.950  1.00  0.00     0.000 HD 
ENDBRANCH  19  20
BRANCH  19  28
HETATM   28  N   UNL     1     -10.910   7.310  73.876  1.00  0.00    -0.554 NA 
HETATM   29  H   UNL     1     -11.565   7.830  74.459  1.00  0.00     0.000 HD 
BRANCH  28  30
HETATM   30  O   UNL     1     -10.481   6.024  74.211  1.00  0.00    -0.280 OA 
BRANCH  30  31
HETATM   31  C   UNL     1     -11.001   5.109  73.240  1.00  0.00    -0.314 C  
HETATM   32  O   UNL     1     -10.069   3.842  71.387  1.00  0.00    -0.157 OA 
HETATM   33  C   UNL     1      -9.973   4.213  72.551  1.00  0.00    -0.162 C  
HETATM   34  O   UNL     1      -8.969   3.796  73.359  1.00  0.00    -0.095 OA 
ENDBRANCH  30  31
ENDBRANCH  28  30
ENDBRANCH  19  28
ENDBRANCH  17  19
ENDBRANCH   8  15
TORSDOF 7
ENDMDL
MODEL       82
REMARK 921   NORMALIZED FREE ENERGY PREDICTED BY IDOCK:   -5.53 KCAL/MOL
REMARK 922        TOTAL FREE ENERGY PREDICTED BY IDOCK:   -9.15 KCAL/MOL
REMARK 923 INTER-LIGAND FREE ENERGY PREDICTED BY IDOCK:   -8.18 KCAL/MOL
REMARK 924 INTRA-LIGAND FREE ENERGY PREDICTED BY IDOCK:   -0.97 KCAL/MOL
REMARK 927      BINDING AFFINITY PREDICTED BY RF-SCORE:    0.00 PKD
ROOT
HETATM    1  C   UNL     1     -12.033  12.998  68.408  1.00  0.00    -0.271 C  
HETATM    2  S   UNL     1     -12.361  12.379  70.057  1.00  0.00    -0.008 SA 
HETATM    3  CG2 UNL     1     -12.580  13.982  70.828  1.00  0.00    -0.360 C  
HETATM    4  CB  UNL     1     -11.639  15.103  70.395  1.00  0.00    -0.330 C  
HETATM    5  O   UNL     1      -9.154  13.712  66.986  1.00  0.00    -0.231 OA 
HETATM    6  CA  UNL     1     -10.901  15.070  69.243  1.00  0.00    -0.261 C  
HETATM    7  N   UNL     1     -10.944  13.959  68.441  1.00  0.00    -0.244 N  
HETATM    8  CA  UNL     1     -11.093  12.097  67.530  1.00  0.00    -0.275 C  
HETATM    9  C   UNL     1     -10.035  16.251  68.834  1.00  0.00    -0.248 C  
HETATM   10  C   UNL     1     -10.208  13.379  67.476  1.00  0.00    -0.226 C  
HETATM   11  OXT UNL     1     -10.272  17.405  69.161  1.00  0.00    -0.329 OA 
HETATM   12  O   UNL     1      -8.976  15.999  68.040  1.00  0.00    -0.184 OA 
ENDROOT
BRANCH   4  13
HETATM   13  CG1 UNL     1     -11.562  16.185  71.395  1.00  0.00    -0.495 C  
HETATM   14  CD1 UNL     1     -12.057  16.184  72.643  1.00  0.00    -0.652 C  
ENDBRANCH   4  13
BRANCH   8  15
HETATM   15  N   UNL     1     -10.407  10.928  68.173  1.00  0.00    -0.171 N  
HETATM   16  H   UNL     1     -10.146  10.977  69.158  1.00  0.00     0.000 HD 
HETATM   17  C   UNL     1     -10.126   9.788  67.451  1.00  0.00    -0.208 C  
HETATM   18  O   UNL     1     -10.321   9.702  66.246  1.00  0.00    -0.239 OA 
BRANCH  17  19
HETATM   19  C   UNL     1      -9.481   8.624  68.207  1.00  0.00    -0.141 C  
BRANCH  19  20
HETATM   20  C   UNL     1      -9.346   7.324  67.554  1.00  0.00    -0.129 A  
HETATM   21  N   UNL     1     -10.959   4.751  65.790  1.00  0.00    -0.852 NA 
HETATM   22  C   UNL     1      -8.169   6.606  67.444  1.00  0.00    -0.121 A  
HETATM   23  N   UNL     1     -10.449   6.702  66.967  1.00  0.00    -0.264 NA 
HETATM   24  C   UNL     1     -10.102   5.556  66.434  1.00  0.00    -0.182 A  
HETATM   25  S   UNL     1      -8.448   5.138  66.602  1.00  0.00    -0.106 SA 
HETATM   26  H2  UNL     1     -10.621   3.875  65.392  1.00  0.00     0.000 HD 
HETATM   27  H1  UNL     1     -11.943   5.000  65.690  1.00  0.00     0.000 HD 
ENDBRANCH  19  20
BRANCH  19  28
HETATM   28  N   UNL     1      -9.026   8.655  69.432  1.00  0.00    -0.144 NA 
HETATM   29  H   UNL     1      -8.153   9.122  69.674  1.00  0.00     0.000 HD 
BRANCH  28  30
HETATM   30  O   UNL     1      -9.811   8.007  70.390  1.00  0.00    -0.182 OA 
BRANCH  30  31
HETATM   31  C   UNL     1     -10.479   9.003  71.171  1.00  0.00    -0.293 C  
HETATM   32  O   UNL     1     -12.628   9.159  72.296  1.00  0.00    -0.376 OA 
HETATM   33  C   UNL     1     -11.624   8.501  72.049  1.00  0.00    -0.362 C  
HETATM   34  O   UNL     1     -11.409   7.284  72.602  1.00  0.00    -0.292 OA 
ENDBRANCH  30  31
ENDBRANCH  28  30
ENDBRANCH  19  28
ENDBRANCH  17  19
ENDBRANCH   8  15
TORSDOF 7
ENDMDL
MODEL       83
REMARK 921   NORMALIZED FREE ENERGY PREDICTED BY IDOCK:   -5.53 KCAL/MOL
REMARK 922        TOTAL FREE ENERGY PREDICTED BY IDOCK:   -9.15 KCAL/MOL
REMARK 923 INTER-LIGAND FREE ENERGY PREDICTED BY IDOCK:   -7.37 KCAL/MOL
REMARK 924 INTRA-LIGAND FREE ENERGY PREDICTED BY IDOCK:   -1.78 KCAL/MOL
REMARK 927      BINDING AFFINITY PREDICTED BY RF-SCORE:    0.00 PKD
ROOT
HETATM    1  C   UNL     1     -12.516  11.061  69.727  1.00  0.00    -0.183 C  
HETATM    2  S   UNL     1     -12.674  10.464  71.409  1.00  0.00    -0.481 SA 
HETATM    3  CG2 UNL     1     -13.461  11.933  72.066  1.00  0.00    -0.231 C  
HETATM    4  CB  UNL     1     -12.949  13.284  71.574  1.00  0.00    -0.426 C  
HETATM    5  O   UNL     1     -10.006  12.645  68.307  1.00  0.00    -0.223 OA 
HETATM    6  CA  UNL     1     -12.200  13.442  70.439  1.00  0.00    -0.345 C  
HETATM    7  N   UNL     1     -11.827  12.340  69.713  1.00  0.00    -0.329 N  
HETATM    8  CA  UNL     1     -11.290  10.493  68.928  1.00  0.00    -0.251 C  
HETATM    9  C   UNL     1     -11.780  14.824  69.965  1.00  0.00    -0.295 C  
HETATM   10  C   UNL     1     -10.899  11.997  68.801  1.00  0.00    -0.230 C  
HETATM   11  OXT UNL     1     -12.412  15.841  70.209  1.00  0.00    -0.389 OA 
HETATM   12  O   UNL     1     -10.669  14.909  69.207  1.00  0.00    -0.235 OA 
ENDROOT
BRANCH   4  13
HETATM   13  CG1 UNL     1     -13.287  14.381  72.500  1.00  0.00    -0.578 C  
HETATM   14  CD1 UNL     1     -12.588  14.798  73.567  1.00  0.00    -0.553 C  
ENDBRANCH   4  13
BRANCH   8  15
HETATM   15  N   UNL     1     -10.268   9.673  69.659  1.00  0.00    -0.206 N  
HETATM   16  H   UNL     1     -10.389   9.491  70.656  1.00  0.00     0.000 HD 
HETATM   17  C   UNL     1      -9.170   9.162  69.003  1.00  0.00    -0.143 C  
HETATM   18  O   UNL     1      -8.913   9.426  67.836  1.00  0.00    -0.124 OA 
BRANCH  17  19
HETATM   19  C   UNL     1      -8.215   8.286  69.818  1.00  0.00    -0.121 C  
BRANCH  19  20
HETATM   20  C   UNL     1      -7.922   6.926  69.370  1.00  0.00    -0.115 A  
HETATM   21  N   UNL     1      -9.228   3.874  68.224  1.00  0.00    -0.143 NA 
HETATM   22  C   UNL     1      -6.656   6.383  69.247  1.00  0.00    -0.044 A  
HETATM   23  N   UNL     1      -8.952   6.054  69.013  1.00  0.00    -0.124 NA 
HETATM   24  C   UNL     1      -8.466   4.897  68.635  1.00  0.00    -0.086 A  
HETATM   25  S   UNL     1      -6.757   4.766  68.686  1.00  0.00    -0.051 SA 
HETATM   26  H2  UNL     1      -8.784   3.001  67.937  1.00  0.00     0.000 HD 
HETATM   27  H1  UNL     1     -10.245   3.952  68.195  1.00  0.00     0.000 HD 
ENDBRANCH  19  20
BRANCH  19  28
HETATM   28  N   UNL     1      -7.612   8.622  70.927  1.00  0.00    -0.079 NA 
HETATM   29  H   UNL     1      -6.601   8.551  71.037  1.00  0.00     0.000 HD 
BRANCH  28  30
HETATM   30  O   UNL     1      -8.439   9.086  71.953  1.00  0.00    -0.363 OA 
BRANCH  30  31
HETATM   31  C   UNL     1      -8.667   8.009  72.869  1.00  0.00    -0.213 C  
HETATM   32  O   UNL     1     -10.615   7.059  73.967  1.00  0.00    -0.341 OA 
HETATM   33  C   UNL     1     -10.101   7.489  72.941  1.00  0.00    -0.261 C  
HETATM   34  O   UNL     1     -10.746   7.471  71.751  1.00  0.00    -0.210 OA 
ENDBRANCH  30  31
ENDBRANCH  28  30
ENDBRANCH  19  28
ENDBRANCH  17  19
ENDBRANCH   8  15
TORSDOF 7
ENDMDL
MODEL       84
REMARK 921   NORMALIZED FREE ENERGY PREDICTED BY IDOCK:   -5.53 KCAL/MOL
REMARK 922        TOTAL FREE ENERGY PREDICTED BY IDOCK:   -9.14 KCAL/MOL
REMARK 923 INTER-LIGAND FREE ENERGY PREDICTED BY IDOCK:   -7.89 KCAL/MOL
REMARK 924 INTRA-LIGAND FREE ENERGY PREDICTED BY IDOCK:   -1.25 KCAL/MOL
REMARK 927      BINDING AFFINITY PREDICTED BY RF-SCORE:    0.00 PKD
ROOT
HETATM    1  C   UNL     1      -9.201  15.025  65.868  1.00  0.00    -0.123 C  
HETATM    2  S   UNL     1     -10.942  15.385  65.644  1.00  0.00    -0.300 SA 
HETATM    3  CG2 UNL     1     -10.777  17.169  65.654  1.00  0.00    -0.136 C  
HETATM    4  CB  UNL     1      -9.795  17.776  66.652  1.00  0.00    -0.322 C  
HETATM    5  O   UNL     1      -7.521  14.526  68.652  1.00  0.00    -0.114 OA 
HETATM    6  CA  UNL     1      -8.804  17.063  67.269  1.00  0.00    -0.211 C  
HETATM    7  N   UNL     1      -8.695  15.715  67.042  1.00  0.00    -0.211 N  
HETATM    8  CA  UNL     1      -8.887  13.688  66.629  1.00  0.00    -0.064 C  
HETATM    9  C   UNL     1      -7.813  17.744  68.201  1.00  0.00    -0.264 C  
HETATM   10  C   UNL     1      -8.147  14.633  67.624  1.00  0.00    -0.173 C  
HETATM   11  OXT UNL     1      -7.502  18.923  68.108  1.00  0.00    -0.255 OA 
HETATM   12  O   UNL     1      -7.231  16.985  69.149  1.00  0.00    -0.245 OA 
ENDROOT
BRANCH   4  13
HETATM   13  CG1 UNL     1     -10.087  19.196  66.929  1.00  0.00    -0.453 C  
HETATM   14  CD1 UNL     1     -10.535  20.123  66.068  1.00  0.00    -0.446 C  
ENDBRANCH   4  13
BRANCH   8  15
HETATM   15  N   UNL     1     -10.020  12.932  67.259  1.00  0.00    -0.222 N  
HETATM   16  H   UNL     1     -10.978  13.256  67.122  1.00  0.00     0.000 HD 
HETATM   17  C   UNL     1      -9.783  11.807  68.018  1.00  0.00    -0.185 C  
HETATM   18  O   UNL     1      -8.657  11.424  68.302  1.00  0.00    -0.143 OA 
BRANCH  17  19
HETATM   19  C   UNL     1     -11.005  11.066  68.567  1.00  0.00    -0.228 C  
BRANCH  19  20
HETATM   20  C   UNL     1     -11.727  11.614  69.714  1.00  0.00    -0.352 A  
HETATM   21  N   UNL     1     -12.575  14.493  71.538  1.00  0.00    -0.329 NA 
HETATM   22  C   UNL     1     -12.490  10.877  70.601  1.00  0.00    -0.369 A  
HETATM   23  N   UNL     1     -11.696  12.982  69.990  1.00  0.00    -0.262 NA 
HETATM   24  C   UNL     1     -12.415  13.254  71.051  1.00  0.00    -0.336 A  
HETATM   25  S   UNL     1     -13.169  11.905  71.794  1.00  0.00    -0.174 SA 
HETATM   26  H2  UNL     1     -13.154  14.636  72.365  1.00  0.00     0.000 HD 
HETATM   27  H1  UNL     1     -12.126  15.295  71.096  1.00  0.00     0.000 HD 
ENDBRANCH  19  20
BRANCH  19  28
HETATM   28  N   UNL     1     -11.495   9.941  68.118  1.00  0.00    -0.577 NA 
HETATM   29  H   UNL     1     -12.495   9.743  68.128  1.00  0.00     0.000 HD 
BRANCH  28  30
HETATM   30  O   UNL     1     -10.563   9.026  67.622  1.00  0.00    -0.257 OA 
BRANCH  30  31
HETATM   31  C   UNL     1     -10.239   8.103  68.667  1.00  0.00    -0.207 C  
HETATM   32  O   UNL     1     -11.274   6.108  69.591  1.00  0.00    -0.384 OA 
HETATM   33  C   UNL     1     -10.942   6.749  68.601  1.00  0.00    -0.199 C  
HETATM   34  O   UNL     1     -11.108   6.269  67.346  1.00  0.00    -0.350 OA 
ENDBRANCH  30  31
ENDBRANCH  28  30
ENDBRANCH  19  28
ENDBRANCH  17  19
ENDBRANCH   8  15
TORSDOF 7
ENDMDL
MODEL       85
REMARK 921   NORMALIZED FREE ENERGY PREDICTED BY IDOCK:   -5.52 KCAL/MOL
REMARK 922        TOTAL FREE ENERGY PREDICTED BY IDOCK:   -9.14 KCAL/MOL
REMARK 923 INTER-LIGAND FREE ENERGY PREDICTED BY IDOCK:   -8.16 KCAL/MOL
REMARK 924 INTRA-LIGAND FREE ENERGY PREDICTED BY IDOCK:   -0.98 KCAL/MOL
REMARK 927      BINDING AFFINITY PREDICTED BY RF-SCORE:    0.00 PKD
ROOT
HETATM    1  C   UNL     1      -9.098  11.412  66.908  1.00  0.00    -0.175 C  
HETATM    2  S   UNL     1     -10.812  10.970  67.188  1.00  0.00    -0.280 SA 
HETATM    3  CG2 UNL     1     -11.511  12.181  66.067  1.00  0.00    -0.370 C  
HETATM    4  CB  UNL     1     -10.871  13.565  66.041  1.00  0.00    -0.282 C  
HETATM    5  O   UNL     1      -7.202  13.544  68.546  1.00  0.00    -0.097 OA 
HETATM    6  CA  UNL     1      -9.623  13.832  66.532  1.00  0.00    -0.285 C  
HETATM    7  N   UNL     1      -8.903  12.833  67.136  1.00  0.00    -0.196 N  
HETATM    8  CA  UNL     1      -8.138  11.175  68.128  1.00  0.00    -0.128 C  
HETATM    9  C   UNL     1      -9.014  15.220  66.412  1.00  0.00    -0.304 C  
HETATM   10  C   UNL     1      -7.870  12.705  67.989  1.00  0.00    -0.149 C  
HETATM   11  OXT UNL     1      -9.305  16.009  65.525  1.00  0.00    -0.380 OA 
HETATM   12  O   UNL     1      -8.080  15.569  67.318  1.00  0.00    -0.164 OA 
ENDROOT
BRANCH   4  13
HETATM   13  CG1 UNL     1     -11.782  14.592  65.498  1.00  0.00    -0.343 C  
HETATM   14  CD1 UNL     1     -12.509  14.528  64.372  1.00  0.00    -0.335 C  
ENDBRANCH   4  13
BRANCH   8  15
HETATM   15  N   UNL     1      -8.733  10.793  69.452  1.00  0.00    -0.383 N  
HETATM   16  H   UNL     1      -8.995  11.524  70.114  1.00  0.00     0.000 HD 
HETATM   17  C   UNL     1      -8.930   9.470  69.783  1.00  0.00    -0.200 C  
HETATM   18  O   UNL     1      -8.547   8.547  69.079  1.00  0.00    -0.128 OA 
BRANCH  17  19
HETATM   19  C   UNL     1      -9.600   9.181  71.129  1.00  0.00    -0.277 C  
BRANCH  19  20
HETATM   20  C   UNL     1     -11.028   9.442  71.296  1.00  0.00    -0.370 A  
HETATM   21  N   UNL     1     -13.940   8.734  73.128  1.00  0.00    -1.162 NA 
HETATM   22  C   UNL     1     -11.773  10.320  70.530  1.00  0.00    -0.331 A  
HETATM   23  N   UNL     1     -11.760   8.795  72.294  1.00  0.00    -0.356 NA 
HETATM   24  C   UNL     1     -13.011   9.183  72.271  1.00  0.00    -0.420 A  
HETATM   25  S   UNL     1     -13.404  10.332  71.060  1.00  0.00    -0.081 SA 
HETATM   26  H2  UNL     1     -14.896   9.082  73.059  1.00  0.00     0.000 HD 
HETATM   27  H1  UNL     1     -13.706   8.050  73.848  1.00  0.00     0.000 HD 
ENDBRANCH  19  20
BRANCH  19  28
HETATM   28  N   UNL     1      -9.014   8.717  72.201  1.00  0.00    -0.385 NA 
HETATM   29  H   UNL     1      -8.853   9.298  73.024  1.00  0.00     0.000 HD 
BRANCH  28  30
HETATM   30  O   UNL     1      -8.621   7.378  72.150  1.00  0.00    -0.111 OA 
BRANCH  30  31
HETATM   31  C   UNL     1      -7.192   7.325  72.220  1.00  0.00    -0.068 C  
HETATM   32  O   UNL     1      -5.445   8.823  73.001  1.00  0.00    -0.070 OA 
HETATM   33  C   UNL     1      -6.537   8.302  73.195  1.00  0.00    -0.104 C  
HETATM   34  O   UNL     1      -7.233   8.495  74.340  1.00  0.00    -0.228 OA 
ENDBRANCH  30  31
ENDBRANCH  28  30
ENDBRANCH  19  28
ENDBRANCH  17  19
ENDBRANCH   8  15
TORSDOF 7
ENDMDL
MODEL       86
REMARK 921   NORMALIZED FREE ENERGY PREDICTED BY IDOCK:   -5.52 KCAL/MOL
REMARK 922        TOTAL FREE ENERGY PREDICTED BY IDOCK:   -9.14 KCAL/MOL
REMARK 923 INTER-LIGAND FREE ENERGY PREDICTED BY IDOCK:   -7.61 KCAL/MOL
REMARK 924 INTRA-LIGAND FREE ENERGY PREDICTED BY IDOCK:   -1.52 KCAL/MOL
REMARK 927      BINDING AFFINITY PREDICTED BY RF-SCORE:    0.00 PKD
ROOT
HETATM    1  C   UNL     1      -9.242   8.541  70.161  1.00  0.00    -0.156 C  
HETATM    2  S   UNL     1      -7.822   9.632  70.218  1.00  0.00    -0.168 SA 
HETATM    3  CG2 UNL     1      -6.868   8.651  71.374  1.00  0.00    -0.082 C  
HETATM    4  CB  UNL     1      -7.620   7.998  72.530  1.00  0.00    -0.144 C  
HETATM    5  O   UNL     1     -11.987   8.599  71.975  1.00  0.00    -0.323 OA 
HETATM    6  CA  UNL     1      -8.977   7.819  72.545  1.00  0.00    -0.159 C  
HETATM    7  N   UNL     1      -9.736   8.290  71.505  1.00  0.00    -0.176 N  
HETATM    8  CA  UNL     1     -10.618   9.246  69.884  1.00  0.00    -0.226 C  
HETATM    9  C   UNL     1      -9.659   7.098  73.698  1.00  0.00    -0.246 C  
HETATM   10  C   UNL     1     -11.016   8.619  71.255  1.00  0.00    -0.267 C  
HETATM   11  OXT UNL     1      -9.104   6.252  74.385  1.00  0.00    -0.138 OA 
HETATM   12  O   UNL     1     -10.951   7.393  73.937  1.00  0.00    -0.196 OA 
ENDROOT
BRANCH   4  13
HETATM   13  CG1 UNL     1      -6.729   7.655  73.655  1.00  0.00    -0.094 C  
HETATM   14  CD1 UNL     1      -5.929   8.481  74.347  1.00  0.00    -0.135 C  
ENDBRANCH   4  13
BRANCH   8  15
HETATM   15  N   UNL     1     -10.672  10.746  69.879  1.00  0.00    -0.443 N  
HETATM   16  H   UNL     1      -9.845  11.280  70.146  1.00  0.00     0.000 HD 
HETATM   17  C   UNL     1     -11.824  11.410  69.518  1.00  0.00    -0.357 C  
HETATM   18  O   UNL     1     -12.877  10.833  69.284  1.00  0.00    -0.150 OA 
BRANCH  17  19
HETATM   19  C   UNL     1     -11.765  12.940  69.482  1.00  0.00    -0.323 C  
BRANCH  19  20
HETATM   20  C   UNL     1     -12.175  13.707  70.656  1.00  0.00    -0.360 A  
HETATM   21  N   UNL     1     -11.851  16.705  72.456  1.00  0.00    -0.532 NA 
HETATM   22  C   UNL     1     -13.085  13.282  71.608  1.00  0.00    -0.363 A  
HETATM   23  N   UNL     1     -11.654  14.980  70.896  1.00  0.00    -0.305 NA 
HETATM   24  C   UNL     1     -12.162  15.487  71.992  1.00  0.00    -0.404 A  
HETATM   25  S   UNL     1     -13.285  14.485  72.814  1.00  0.00    -0.512 SA 
HETATM   26  H2  UNL     1     -12.289  17.042  73.313  1.00  0.00     0.000 HD 
HETATM   27  H1  UNL     1     -11.183  17.301  71.967  1.00  0.00     0.000 HD 
ENDBRANCH  19  20
BRANCH  19  28
HETATM   28  N   UNL     1     -11.385  13.676  68.471  1.00  0.00    -0.270 NA 
HETATM   29  H   UNL     1     -10.997  14.610  68.598  1.00  0.00     0.000 HD 
BRANCH  28  30
HETATM   30  O   UNL     1     -11.542  13.103  67.207  1.00  0.00    -0.315 OA 
BRANCH  30  31
HETATM   31  C   UNL     1     -10.302  13.222  66.502  1.00  0.00    -0.285 C  
HETATM   32  O   UNL     1      -8.097  12.219  66.703  1.00  0.00    -0.079 OA 
HETATM   33  C   UNL     1      -9.314  12.072  66.693  1.00  0.00    -0.219 C  
HETATM   34  O   UNL     1      -9.892  10.851  66.780  1.00  0.00    -0.186 OA 
ENDBRANCH  30  31
ENDBRANCH  28  30
ENDBRANCH  19  28
ENDBRANCH  17  19
ENDBRANCH   8  15
TORSDOF 7
ENDMDL
MODEL       87
REMARK 921   NORMALIZED FREE ENERGY PREDICTED BY IDOCK:   -5.52 KCAL/MOL
REMARK 922        TOTAL FREE ENERGY PREDICTED BY IDOCK:   -9.13 KCAL/MOL
REMARK 923 INTER-LIGAND FREE ENERGY PREDICTED BY IDOCK:   -8.14 KCAL/MOL
REMARK 924 INTRA-LIGAND FREE ENERGY PREDICTED BY IDOCK:   -0.99 KCAL/MOL
REMARK 927      BINDING AFFINITY PREDICTED BY RF-SCORE:    0.00 PKD
ROOT
HETATM    1  C   UNL     1     -10.243  12.242  66.439  1.00  0.00    -0.225 C  
HETATM    2  S   UNL     1     -11.693  12.553  67.445  1.00  0.00    -0.324 SA 
HETATM    3  CG2 UNL     1     -11.762  14.319  67.148  1.00  0.00    -0.404 C  
HETATM    4  CB  UNL     1     -10.438  15.077  67.115  1.00  0.00    -0.277 C  
HETATM    5  O   UNL     1      -7.073  12.184  67.316  1.00  0.00    -0.134 OA 
HETATM    6  CA  UNL     1      -9.223  14.472  66.946  1.00  0.00    -0.250 C  
HETATM    7  N   UNL     1      -9.151  13.106  66.853  1.00  0.00    -0.233 N  
HETATM    8  CA  UNL     1      -9.350  11.039  66.907  1.00  0.00    -0.173 C  
HETATM    9  C   UNL     1      -7.946  15.293  66.852  1.00  0.00    -0.159 C  
HETATM   10  C   UNL     1      -8.240  12.129  67.004  1.00  0.00    -0.164 C  
HETATM   11  OXT UNL     1      -7.914  16.445  66.444  1.00  0.00    -0.287 OA 
HETATM   12  O   UNL     1      -6.794  14.692  67.207  1.00  0.00    -0.254 OA 
ENDROOT
BRANCH   4  13
HETATM   13  CG1 UNL     1     -10.615  16.521  67.363  1.00  0.00    -0.300 C  
HETATM   14  CD1 UNL     1     -10.569  17.161  68.541  1.00  0.00    -0.361 C  
ENDBRANCH   4  13
BRANCH   8  15
HETATM   15  N   UNL     1      -9.654  10.382  68.222  1.00  0.00    -0.141 N  
HETATM   16  H   UNL     1      -9.331  10.815  69.087  1.00  0.00     0.000 HD 
HETATM   17  C   UNL     1     -10.363   9.201  68.275  1.00  0.00    -0.214 C  
HETATM   18  O   UNL     1     -10.691   8.579  67.274  1.00  0.00    -0.279 OA 
BRANCH  17  19
HETATM   19  C   UNL     1     -10.679   8.639  69.664  1.00  0.00    -0.200 C  
BRANCH  19  20
HETATM   20  C   UNL     1     -11.647   9.324  70.517  1.00  0.00    -0.217 A  
HETATM   21  N   UNL     1     -14.180   8.987  72.927  1.00  0.00    -1.127 NA 
HETATM   22  C   UNL     1     -11.814  10.694  70.593  1.00  0.00    -0.363 A  
HETATM   23  N   UNL     1     -12.498   8.600  71.355  1.00  0.00    -0.311 NA 
HETATM   24  C   UNL     1     -13.273   9.409  72.034  1.00  0.00    -0.449 A  
HETATM   25  S   UNL     1     -13.049  11.079  71.718  1.00  0.00    -0.357 SA 
HETATM   26  H2  UNL     1     -14.747   9.672  73.427  1.00  0.00     0.000 HD 
HETATM   27  H1  UNL     1     -14.314   7.994  73.114  1.00  0.00     0.000 HD 
ENDBRANCH  19  20
BRANCH  19  28
HETATM   28  N   UNL     1     -10.149   7.575  70.206  1.00  0.00    -0.193 NA 
HETATM   29  H   UNL     1     -10.523   6.641  70.043  1.00  0.00     0.000 HD 
BRANCH  28  30
HETATM   30  O   UNL     1      -9.038   7.797  71.024  1.00  0.00    -0.145 OA 
BRANCH  30  31
HETATM   31  C   UNL     1      -8.639   6.544  71.590  1.00  0.00    -0.128 C  
HETATM   32  O   UNL     1      -8.571   5.605  73.830  1.00  0.00    -0.118 OA 
HETATM   33  C   UNL     1      -9.189   6.237  72.981  1.00  0.00    -0.132 C  
HETATM   34  O   UNL     1     -10.459   6.660  73.183  1.00  0.00    -0.215 OA 
ENDBRANCH  30  31
ENDBRANCH  28  30
ENDBRANCH  19  28
ENDBRANCH  17  19
ENDBRANCH   8  15
TORSDOF 7
ENDMDL
MODEL       88
REMARK 921   NORMALIZED FREE ENERGY PREDICTED BY IDOCK:   -5.51 KCAL/MOL
REMARK 922        TOTAL FREE ENERGY PREDICTED BY IDOCK:   -9.12 KCAL/MOL
REMARK 923 INTER-LIGAND FREE ENERGY PREDICTED BY IDOCK:   -7.84 KCAL/MOL
REMARK 924 INTRA-LIGAND FREE ENERGY PREDICTED BY IDOCK:   -1.28 KCAL/MOL
REMARK 927      BINDING AFFINITY PREDICTED BY RF-SCORE:    0.00 PKD
ROOT
HETATM    1  C   UNL     1      -8.838   8.948  66.755  1.00  0.00    -0.124 C  
HETATM    2  S   UNL     1      -7.758   9.536  68.058  1.00  0.00    -0.086 SA 
HETATM    3  CG2 UNL     1      -6.442   8.354  67.770  1.00  0.00    -0.061 C  
HETATM    4  CB  UNL     1      -6.847   6.922  67.435  1.00  0.00    -0.076 C  
HETATM    5  O   UNL     1     -11.252   6.718  66.899  1.00  0.00    -0.375 OA 
HETATM    6  CA  UNL     1      -8.096   6.569  67.003  1.00  0.00    -0.113 C  
HETATM    7  N   UNL     1      -9.076   7.523  66.906  1.00  0.00    -0.135 N  
HETATM    8  CA  UNL     1     -10.373   9.142  67.020  1.00  0.00    -0.263 C  
HETATM    9  C   UNL     1      -8.415   5.132  66.618  1.00  0.00    -0.107 C  
HETATM   10  C   UNL     1     -10.418   7.593  66.857  1.00  0.00    -0.318 C  
HETATM   11  OXT UNL     1      -7.577   4.344  66.205  1.00  0.00    -0.084 OA 
HETATM   12  O   UNL     1      -9.699   4.736  66.710  1.00  0.00    -0.156 OA 
ENDROOT
BRANCH   4  13
HETATM   13  CG1 UNL     1      -5.763   5.957  67.705  1.00  0.00    -0.012 C  
HETATM   14  CD1 UNL     1      -5.443   5.393  68.880  1.00  0.00    -0.004 C  
ENDBRANCH   4  13
BRANCH   8  15
HETATM   15  N   UNL     1     -10.819   9.610  68.375  1.00  0.00    -0.388 N  
HETATM   16  H   UNL     1     -10.614   9.040  69.196  1.00  0.00     0.000 HD 
HETATM   17  C   UNL     1     -11.499  10.799  68.523  1.00  0.00    -0.292 C  
HETATM   18  O   UNL     1     -11.863  11.478  67.573  1.00  0.00    -0.605 OA 
BRANCH  17  19
HETATM   19  C   UNL     1     -11.858  11.224  69.950  1.00  0.00    -0.360 C  
BRANCH  19  20
HETATM   20  C   UNL     1     -12.250  10.212  70.928  1.00  0.00    -0.356 A  
HETATM   21  N   UNL     1     -11.181   7.652  73.082  1.00  0.00    -0.569 NA 
HETATM   22  C   UNL     1     -13.541   9.987  71.368  1.00  0.00    -0.188 A  
HETATM   23  N   UNL     1     -11.295   9.377  71.513  1.00  0.00    -0.379 NA 
HETATM   24  C   UNL     1     -11.861   8.557  72.364  1.00  0.00    -0.367 A  
HETATM   25  S   UNL     1     -13.561   8.716  72.519  1.00  0.00    -0.235 SA 
HETATM   26  H2  UNL     1     -11.683   7.047  73.732  1.00  0.00     0.000 HD 
HETATM   27  H1  UNL     1     -10.169   7.557  72.989  1.00  0.00     0.000 HD 
ENDBRANCH  19  20
BRANCH  19  28
HETATM   28  N   UNL     1     -11.867  12.446  70.413  1.00  0.00    -0.541 NA 
HETATM   29  H   UNL     1     -12.345  12.692  71.280  1.00  0.00     0.000 HD 
BRANCH  28  30
HETATM   30  O   UNL     1     -11.183  13.393  69.649  1.00  0.00    -0.172 OA 
BRANCH  30  31
HETATM   31  C   UNL     1     -11.939  14.609  69.655  1.00  0.00    -0.323 C  
HETATM   32  O   UNL     1     -13.167  15.869  71.332  1.00  0.00    -0.475 OA 
HETATM   33  C   UNL     1     -12.154  15.251  71.024  1.00  0.00    -0.342 C  
HETATM   34  O   UNL     1     -11.095  15.146  71.860  1.00  0.00    -0.337 OA 
ENDBRANCH  30  31
ENDBRANCH  28  30
ENDBRANCH  19  28
ENDBRANCH  17  19
ENDBRANCH   8  15
TORSDOF 7
ENDMDL
MODEL       89
REMARK 921   NORMALIZED FREE ENERGY PREDICTED BY IDOCK:   -5.51 KCAL/MOL
REMARK 922        TOTAL FREE ENERGY PREDICTED BY IDOCK:   -9.11 KCAL/MOL
REMARK 923 INTER-LIGAND FREE ENERGY PREDICTED BY IDOCK:   -7.41 KCAL/MOL
REMARK 924 INTRA-LIGAND FREE ENERGY PREDICTED BY IDOCK:   -1.70 KCAL/MOL
REMARK 927      BINDING AFFINITY PREDICTED BY RF-SCORE:    0.00 PKD
ROOT
HETATM    1  C   UNL     1     -11.939  12.669  68.903  1.00  0.00    -0.242 C  
HETATM    2  S   UNL     1     -12.494  12.203  70.542  1.00  0.00    -0.130 SA 
HETATM    3  CG2 UNL     1     -12.792  13.870  71.129  1.00  0.00    -0.351 C  
HETATM    4  CB  UNL     1     -11.786  14.945  70.728  1.00  0.00    -0.368 C  
HETATM    5  O   UNL     1      -8.885  13.245  67.823  1.00  0.00    -0.174 OA 
HETATM    6  CA  UNL     1     -10.900  14.806  69.694  1.00  0.00    -0.226 C  
HETATM    7  N   UNL     1     -10.851  13.627  68.996  1.00  0.00    -0.235 N  
HETATM    8  CA  UNL     1     -10.903  11.691  68.245  1.00  0.00    -0.219 C  
HETATM    9  C   UNL     1      -9.971  15.944  69.301  1.00  0.00    -0.254 C  
HETATM   10  C   UNL     1     -10.000  12.961  68.195  1.00  0.00    -0.234 C  
HETATM   11  OXT UNL     1     -10.234  17.123  69.488  1.00  0.00    -0.212 OA 
HETATM   12  O   UNL     1      -8.819  15.619  68.683  1.00  0.00    -0.180 OA 
ENDROOT
BRANCH   4  13
HETATM   13  CG1 UNL     1     -11.828  16.113  71.629  1.00  0.00    -0.557 C  
HETATM   14  CD1 UNL     1     -12.136  16.129  72.935  1.00  0.00    -0.643 C  
ENDBRANCH   4  13
BRANCH   8  15
HETATM   15  N   UNL     1     -10.325  10.583  69.076  1.00  0.00    -0.200 N  
HETATM   16  H   UNL     1      -9.905  10.800  69.980  1.00  0.00     0.000 HD 
HETATM   17  C   UNL     1     -10.356   9.278  68.635  1.00  0.00    -0.205 C  
HETATM   18  O   UNL     1     -10.753   8.964  67.522  1.00  0.00    -0.258 OA 
BRANCH  17  19
HETATM   19  C   UNL     1      -9.799   8.209  69.580  1.00  0.00    -0.181 C  
BRANCH  19  20
HETATM   20  C   UNL     1     -10.408   8.019  70.895  1.00  0.00    -0.200 A  
HETATM   21  N   UNL     1     -13.180   8.647  72.958  1.00  0.00    -0.816 NA 
HETATM   22  C   UNL     1      -9.845   7.306  71.938  1.00  0.00    -0.162 A  
HETATM   23  N   UNL     1     -11.659   8.564  71.188  1.00  0.00    -0.276 NA 
HETATM   24  C   UNL     1     -12.016   8.264  72.413  1.00  0.00    -0.384 A  
HETATM   25  S   UNL     1     -10.889   7.324  73.298  1.00  0.00    -0.302 SA 
HETATM   26  H2  UNL     1     -13.399   8.373  73.916  1.00  0.00     0.000 HD 
HETATM   27  H1  UNL     1     -13.851   9.207  72.431  1.00  0.00     0.000 HD 
ENDBRANCH  19  20
BRANCH  19  28
HETATM   28  N   UNL     1      -8.787   7.418  69.342  1.00  0.00    -0.137 NA 
HETATM   29  H   UNL     1      -8.741   6.470  69.715  1.00  0.00     0.000 HD 
BRANCH  28  30
HETATM   30  O   UNL     1      -7.771   7.951  68.545  1.00  0.00    -0.109 OA 
BRANCH  30  31
HETATM   31  C   UNL     1      -6.727   8.423  69.403  1.00  0.00    -0.045 C  
HETATM   32  O   UNL     1      -5.957   7.883  71.644  1.00  0.00    -0.035 OA 
HETATM   33  C   UNL     1      -6.332   7.490  70.546  1.00  0.00    -0.038 C  
HETATM   34  O   UNL     1      -6.358   6.175  70.224  1.00  0.00    -0.033 OA 
ENDBRANCH  30  31
ENDBRANCH  28  30
ENDBRANCH  19  28
ENDBRANCH  17  19
ENDBRANCH   8  15
TORSDOF 7
ENDMDL
MODEL       90
REMARK 921   NORMALIZED FREE ENERGY PREDICTED BY IDOCK:   -5.50 KCAL/MOL
REMARK 922        TOTAL FREE ENERGY PREDICTED BY IDOCK:   -9.11 KCAL/MOL
REMARK 923 INTER-LIGAND FREE ENERGY PREDICTED BY IDOCK:   -7.28 KCAL/MOL
REMARK 924 INTRA-LIGAND FREE ENERGY PREDICTED BY IDOCK:   -1.83 KCAL/MOL
REMARK 927      BINDING AFFINITY PREDICTED BY RF-SCORE:    0.00 PKD
ROOT
HETATM    1  C   UNL     1     -10.251  11.985  66.816  1.00  0.00    -0.202 C  
HETATM    2  S   UNL     1     -11.605  12.318  67.941  1.00  0.00    -0.354 SA 
HETATM    3  CG2 UNL     1     -11.673  14.085  67.649  1.00  0.00    -0.377 C  
HETATM    4  CB  UNL     1     -10.345  14.823  67.503  1.00  0.00    -0.238 C  
HETATM    5  O   UNL     1      -7.019  11.879  67.420  1.00  0.00    -0.105 OA 
HETATM    6  CA  UNL     1      -9.158  14.200  67.231  1.00  0.00    -0.213 C  
HETATM    7  N   UNL     1      -9.115  12.833  67.134  1.00  0.00    -0.211 N  
HETATM    8  CA  UNL     1      -9.339  10.768  67.208  1.00  0.00    -0.151 C  
HETATM    9  C   UNL     1      -7.881  15.001  67.028  1.00  0.00    -0.129 C  
HETATM   10  C   UNL     1      -8.209  11.841  67.208  1.00  0.00    -0.163 C  
HETATM   11  OXT UNL     1      -7.867  16.152  66.618  1.00  0.00    -0.240 OA 
HETATM   12  O   UNL     1      -6.712  14.382  67.285  1.00  0.00    -0.269 OA 
ENDROOT
BRANCH   4  13
HETATM   13  CG1 UNL     1     -10.479  16.269  67.763  1.00  0.00    -0.295 C  
HETATM   14  CD1 UNL     1     -10.614  16.878  68.951  1.00  0.00    -0.353 C  
ENDBRANCH   4  13
BRANCH   8  15
HETATM   15  N   UNL     1      -9.541  10.116  68.544  1.00  0.00    -0.150 N  
HETATM   16  H   UNL     1      -9.112  10.527  69.374  1.00  0.00     0.000 HD 
HETATM   17  C   UNL     1     -10.296   8.970  68.665  1.00  0.00    -0.209 C  
HETATM   18  O   UNL     1     -10.753   8.372  67.700  1.00  0.00    -0.218 OA 
BRANCH  17  19
HETATM   19  C   UNL     1     -10.497   8.412  70.077  1.00  0.00    -0.224 C  
BRANCH  19  20
HETATM   20  C   UNL     1     -11.628   8.871  70.881  1.00  0.00    -0.283 A  
HETATM   21  N   UNL     1     -13.394  11.630  72.147  1.00  0.00    -0.562 NA 
HETATM   22  C   UNL     1     -12.550   8.048  71.502  1.00  0.00    -0.312 A  
HETATM   23  N   UNL     1     -11.861  10.234  71.073  1.00  0.00    -0.363 NA 
HETATM   24  C   UNL     1     -12.926  10.419  71.814  1.00  0.00    -0.475 A  
HETATM   25  S   UNL     1     -13.715   8.989  72.337  1.00  0.00    -0.435 SA 
HETATM   26  H2  UNL     1     -14.233  11.703  72.722  1.00  0.00     0.000 HD 
HETATM   27  H1  UNL     1     -12.925  12.481  71.836  1.00  0.00     0.000 HD 
ENDBRANCH  19  20
BRANCH  19  28
HETATM   28  N   UNL     1      -9.732   7.542  70.681  1.00  0.00    -0.175 NA 
HETATM   29  H   UNL     1     -10.111   6.824  71.297  1.00  0.00     0.000 HD 
BRANCH  28  30
HETATM   30  O   UNL     1      -8.363   7.658  70.430  1.00  0.00    -0.120 OA 
BRANCH  30  31
HETATM   31  C   UNL     1      -7.713   8.037  71.648  1.00  0.00    -0.091 C  
HETATM   32  O   UNL     1      -5.795   9.414  72.225  1.00  0.00    -0.219 OA 
HETATM   33  C   UNL     1      -6.820   9.274  71.568  1.00  0.00     0.075 C  
HETATM   34  O   UNL     1      -7.293  10.250  70.758  1.00  0.00    -0.216 OA 
ENDBRANCH  30  31
ENDBRANCH  28  30
ENDBRANCH  19  28
ENDBRANCH  17  19
ENDBRANCH   8  15
TORSDOF 7
ENDMDL
MODEL       91
REMARK 921   NORMALIZED FREE ENERGY PREDICTED BY IDOCK:   -5.49 KCAL/MOL
REMARK 922        TOTAL FREE ENERGY PREDICTED BY IDOCK:   -9.09 KCAL/MOL
REMARK 923 INTER-LIGAND FREE ENERGY PREDICTED BY IDOCK:   -8.06 KCAL/MOL
REMARK 924 INTRA-LIGAND FREE ENERGY PREDICTED BY IDOCK:   -1.03 KCAL/MOL
REMARK 927      BINDING AFFINITY PREDICTED BY RF-SCORE:    0.00 PKD
ROOT
HETATM    1  C   UNL     1     -10.178  15.669  68.417  1.00  0.00    -0.222 C  
HETATM    2  S   UNL     1      -8.442  15.776  68.846  1.00  0.00    -0.235 SA 
HETATM    3  CG2 UNL     1      -8.257  17.521  68.482  1.00  0.00    -0.278 C  
HETATM    4  CB  UNL     1      -8.973  18.059  67.246  1.00  0.00    -0.251 C  
HETATM    5  O   UNL     1     -11.567  14.881  65.541  1.00  0.00    -0.336 OA 
HETATM    6  CA  UNL     1      -9.999  17.405  66.621  1.00  0.00    -0.308 C  
HETATM    7  N   UNL     1     -10.393  16.172  67.071  1.00  0.00    -0.287 N  
HETATM    8  CA  UNL     1     -10.648  14.273  67.875  1.00  0.00    -0.240 C  
HETATM    9  C   UNL     1     -10.718  18.029  65.435  1.00  0.00     0.163 C  
HETATM   10  C   UNL     1     -11.064  15.097  66.619  1.00  0.00    -0.308 C  
HETATM   11  OXT UNL     1     -10.805  19.236  65.259  1.00  0.00    -0.503 OA 
HETATM   12  O   UNL     1     -11.315  17.195  64.561  1.00  0.00    -1.034 OA 
ENDROOT
BRANCH   4  13
HETATM   13  CG1 UNL     1      -8.381  19.322  66.763  1.00  0.00    -0.311 C  
HETATM   14  CD1 UNL     1      -7.187  19.494  66.176  1.00  0.00    -0.283 C  
ENDBRANCH   4  13
BRANCH   8  15
HETATM   15  N   UNL     1      -9.614  13.225  67.584  1.00  0.00    -0.207 N  
HETATM   16  H   UNL     1      -8.626  13.480  67.586  1.00  0.00     0.000 HD 
HETATM   17  C   UNL     1      -9.981  11.925  67.313  1.00  0.00    -0.186 C  
HETATM   18  O   UNL     1     -11.147  11.576  67.195  1.00  0.00    -0.266 OA 
BRANCH  17  19
HETATM   19  C   UNL     1      -8.853  10.914  67.089  1.00  0.00    -0.135 C  
BRANCH  19  20
HETATM   20  C   UNL     1      -8.539  10.469  65.733  1.00  0.00    -0.173 A  
HETATM   21  N   UNL     1      -9.768   9.801  62.512  1.00  0.00    -0.552 NA 
HETATM   22  C   UNL     1      -7.280  10.118  65.281  1.00  0.00    -0.141 A  
HETATM   23  N   UNL     1      -9.539  10.375  64.763  1.00  0.00    -0.266 NA 
HETATM   24  C   UNL     1      -9.037   9.968  63.623  1.00  0.00    -0.268 A  
HETATM   25  S   UNL     1      -7.350   9.662  63.629  1.00  0.00    -0.120 SA 
HETATM   26  H2  UNL     1      -9.313   9.487  61.654  1.00  0.00     0.000 HD 
HETATM   27  H1  UNL     1     -10.772   9.983  62.508  1.00  0.00     0.000 HD 
ENDBRANCH  19  20
BRANCH  19  28
HETATM   28  N   UNL     1      -8.110  10.366  68.015  1.00  0.00    -0.109 NA 
HETATM   29  H   UNL     1      -7.182  10.721  68.244  1.00  0.00     0.000 HD 
BRANCH  28  30
HETATM   30  O   UNL     1      -8.667   9.265  68.670  1.00  0.00    -0.129 OA 
BRANCH  30  31
HETATM   31  C   UNL     1      -9.064   9.676  69.982  1.00  0.00    -0.237 C  
HETATM   32  O   UNL     1     -11.182  10.144  71.078  1.00  0.00    -0.339 OA 
HETATM   33  C   UNL     1     -10.523   9.411  70.349  1.00  0.00    -0.256 C  
HETATM   34  O   UNL     1     -11.017   8.250  69.860  1.00  0.00    -0.239 OA 
ENDBRANCH  30  31
ENDBRANCH  28  30
ENDBRANCH  19  28
ENDBRANCH  17  19
ENDBRANCH   8  15
TORSDOF 7
ENDMDL
MODEL       92
REMARK 921   NORMALIZED FREE ENERGY PREDICTED BY IDOCK:   -5.46 KCAL/MOL
REMARK 922        TOTAL FREE ENERGY PREDICTED BY IDOCK:   -9.05 KCAL/MOL
REMARK 923 INTER-LIGAND FREE ENERGY PREDICTED BY IDOCK:   -7.36 KCAL/MOL
REMARK 924 INTRA-LIGAND FREE ENERGY PREDICTED BY IDOCK:   -1.69 KCAL/MOL
REMARK 927      BINDING AFFINITY PREDICTED BY RF-SCORE:    0.00 PKD
ROOT
HETATM    1  C   UNL     1      -9.837   9.601  68.765  1.00  0.00    -0.165 C  
HETATM    2  S   UNL     1      -8.165  10.118  69.153  1.00  0.00    -0.156 SA 
HETATM    3  CG2 UNL     1      -7.928   8.996  70.530  1.00  0.00    -0.139 C  
HETATM    4  CB  UNL     1      -9.109   8.785  71.474  1.00  0.00    -0.322 C  
HETATM    5  O   UNL     1     -12.696  10.829  69.834  1.00  0.00    -0.245 OA 
HETATM    6  CA  UNL     1     -10.401   9.101  71.154  1.00  0.00    -0.317 C  
HETATM    7  N   UNL     1     -10.676   9.692  69.948  1.00  0.00    -0.235 N  
HETATM    8  CA  UNL     1     -10.752  10.713  68.140  1.00  0.00    -0.225 C  
HETATM    9  C   UNL     1     -11.541   8.800  72.113  1.00  0.00    -0.364 C  
HETATM   10  C   UNL     1     -11.652  10.423  69.379  1.00  0.00    -0.202 C  
HETATM   11  OXT UNL     1     -11.510   7.894  72.934  1.00  0.00    -0.403 OA 
HETATM   12  O   UNL     1     -12.651   9.558  72.016  1.00  0.00    -0.379 OA 
ENDROOT
BRANCH   4  13
HETATM   13  CG1 UNL     1      -8.685   8.274  72.792  1.00  0.00    -0.288 C  
HETATM   14  CD1 UNL     1      -8.046   7.125  73.058  1.00  0.00    -0.121 C  
ENDBRANCH   4  13
BRANCH   8  15
HETATM   15  N   UNL     1     -10.244  12.124  68.091  1.00  0.00    -0.198 N  
HETATM   16  H   UNL     1      -9.924  12.573  68.949  1.00  0.00     0.000 HD 
HETATM   17  C   UNL     1     -10.204  12.821  66.902  1.00  0.00    -0.236 C  
HETATM   18  O   UNL     1     -10.664  12.378  65.859  1.00  0.00    -0.254 OA 
BRANCH  17  19
HETATM   19  C   UNL     1      -9.612  14.232  66.941  1.00  0.00    -0.262 C  
BRANCH  19  20
HETATM   20  C   UNL     1      -8.204  14.416  67.286  1.00  0.00    -0.203 A  
HETATM   21  N   UNL     1      -5.171  12.864  68.142  1.00  0.00    -0.077 NA 
HETATM   22  C   UNL     1      -7.552  15.634  67.355  1.00  0.00    -0.198 A  
HETATM   23  N   UNL     1      -7.389  13.318  67.572  1.00  0.00    -0.159 NA 
HETATM   24  C   UNL     1      -6.169  13.709  67.844  1.00  0.00    -0.155 A  
HETATM   25  S   UNL     1      -5.909  15.403  67.787  1.00  0.00    -0.098 SA 
HETATM   26  H2  UNL     1      -4.242  13.235  68.338  1.00  0.00     0.000 HD 
HETATM   27  H1  UNL     1      -5.326  11.857  68.177  1.00  0.00     0.000 HD 
ENDBRANCH  19  20
BRANCH  19  28
HETATM   28  N   UNL     1     -10.251  15.346  66.702  1.00  0.00    -0.269 NA 
HETATM   29  H   UNL     1      -9.930  16.016  66.003  1.00  0.00     0.000 HD 
BRANCH  28  30
HETATM   30  O   UNL     1     -11.402  15.563  67.463  1.00  0.00    -0.314 OA 
BRANCH  30  31
HETATM   31  C   UNL     1     -11.075  16.465  68.526  1.00  0.00    -0.357 C  
HETATM   32  O   UNL     1      -9.542  18.331  68.797  1.00  0.00    -0.324 OA 
HETATM   33  C   UNL     1     -10.381  17.760  68.110  1.00  0.00    -0.391 C  
HETATM   34  O   UNL     1     -10.824  18.277  66.939  1.00  0.00    -0.306 OA 
ENDBRANCH  30  31
ENDBRANCH  28  30
ENDBRANCH  19  28
ENDBRANCH  17  19
ENDBRANCH   8  15
TORSDOF 7
ENDMDL
MODEL       93
REMARK 921   NORMALIZED FREE ENERGY PREDICTED BY IDOCK:   -5.45 KCAL/MOL
REMARK 922        TOTAL FREE ENERGY PREDICTED BY IDOCK:   -9.04 KCAL/MOL
REMARK 923 INTER-LIGAND FREE ENERGY PREDICTED BY IDOCK:   -7.49 KCAL/MOL
REMARK 924 INTRA-LIGAND FREE ENERGY PREDICTED BY IDOCK:   -1.54 KCAL/MOL
REMARK 927      BINDING AFFINITY PREDICTED BY RF-SCORE:    0.00 PKD
ROOT
HETATM    1  C   UNL     1      -8.668  13.834  68.544  1.00  0.00    -0.118 C  
HETATM    2  S   UNL     1     -10.214  14.152  67.696  1.00  0.00    -0.242 SA 
HETATM    3  CG2 UNL     1     -10.497  12.464  67.165  1.00  0.00    -0.219 C  
HETATM    4  CB  UNL     1      -9.288  11.668  66.684  1.00  0.00    -0.203 C  
HETATM    5  O   UNL     1      -5.589  14.022  67.399  1.00  0.00    -0.345 OA 
HETATM    6  CA  UNL     1      -7.994  12.018  66.956  1.00  0.00    -0.150 C  
HETATM    7  N   UNL     1      -7.734  13.172  67.649  1.00  0.00    -0.153 N  
HETATM    8  CA  UNL     1      -7.657  15.035  68.565  1.00  0.00    -0.118 C  
HETATM    9  C   UNL     1      -6.834  11.142  66.506  1.00  0.00    -0.126 C  
HETATM   10  C   UNL     1      -6.713  14.026  67.846  1.00  0.00    -0.164 C  
HETATM   11  OXT UNL     1      -6.928   9.935  66.339  1.00  0.00    -0.089 OA 
HETATM   12  O   UNL     1      -5.641  11.739  66.322  1.00  0.00    -0.269 OA 
ENDROOT
BRANCH   4  13
HETATM   13  CG1 UNL     1      -9.674  10.526  65.832  1.00  0.00    -0.270 C  
HETATM   14  CD1 UNL     1      -9.975  10.546  64.525  1.00  0.00    -0.413 C  
ENDBRANCH   4  13
BRANCH   8  15
HETATM   15  N   UNL     1      -7.964  16.252  67.742  1.00  0.00    -0.140 N  
HETATM   16  H   UNL     1      -8.438  16.146  66.844  1.00  0.00     0.000 HD 
HETATM   17  C   UNL     1      -7.615  17.510  68.183  1.00  0.00    -0.221 C  
HETATM   18  O   UNL     1      -6.959  17.699  69.198  1.00  0.00    -0.257 OA 
BRANCH  17  19
HETATM   19  C   UNL     1      -8.025  18.696  67.304  1.00  0.00    -0.237 C  
BRANCH  19  20
HETATM   20  C   UNL     1      -7.036  19.325  66.432  1.00  0.00    -0.226 A  
HETATM   21  N   UNL     1      -5.202  19.101  63.445  1.00  0.00    -0.269 NA 
HETATM   22  C   UNL     1      -6.428  20.544  66.666  1.00  0.00    -0.235 A  
HETATM   23  N   UNL     1      -6.633  18.706  65.247  1.00  0.00    -0.485 NA 
HETATM   24  C   UNL     1      -5.752  19.445  64.618  1.00  0.00    -0.255 A  
HETATM   25  S   UNL     1      -5.338  20.916  65.395  1.00  0.00    -0.209 SA 
HETATM   26  H2  UNL     1      -4.526  19.727  63.006  1.00  0.00     0.000 HD 
HETATM   27  H1  UNL     1      -5.448  18.226  62.983  1.00  0.00     0.000 HD 
ENDBRANCH  19  20
BRANCH  19  28
HETATM   28  N   UNL     1      -9.210  19.245  67.250  1.00  0.00    -0.298 NA 
HETATM   29  H   UNL     1      -9.724  19.507  68.091  1.00  0.00     0.000 HD 
BRANCH  28  30
HETATM   30  O   UNL     1      -9.728  19.452  65.970  1.00  0.00    -0.366 OA 
BRANCH  30  31
HETATM   31  C   UNL     1     -10.891  18.632  65.817  1.00  0.00    -0.044 C  
HETATM   32  O   UNL     1     -11.517  16.772  64.384  1.00  0.00    -1.024 OA 
HETATM   33  C   UNL     1     -10.677  17.298  65.104  1.00  0.00     0.064 C  
HETATM   34  O   UNL     1      -9.498  16.698  65.391  1.00  0.00    -0.413 OA 
ENDBRANCH  30  31
ENDBRANCH  28  30
ENDBRANCH  19  28
ENDBRANCH  17  19
ENDBRANCH   8  15
TORSDOF 7
ENDMDL
MODEL       94
REMARK 921   NORMALIZED FREE ENERGY PREDICTED BY IDOCK:   -5.44 KCAL/MOL
REMARK 922        TOTAL FREE ENERGY PREDICTED BY IDOCK:   -9.02 KCAL/MOL
REMARK 923 INTER-LIGAND FREE ENERGY PREDICTED BY IDOCK:   -7.39 KCAL/MOL
REMARK 924 INTRA-LIGAND FREE ENERGY PREDICTED BY IDOCK:   -1.63 KCAL/MOL
REMARK 927      BINDING AFFINITY PREDICTED BY RF-SCORE:    0.00 PKD
ROOT
HETATM    1  C   UNL     1     -10.280   9.886  67.317  1.00  0.00    -0.222 C  
HETATM    2  S   UNL     1     -11.478  11.004  68.042  1.00  0.00    -0.252 SA 
HETATM    3  CG2 UNL     1     -10.598  12.515  67.652  1.00  0.00    -0.217 C  
HETATM    4  CB  UNL     1      -9.081  12.504  67.810  1.00  0.00    -0.191 C  
HETATM    5  O   UNL     1      -7.720   8.376  68.728  1.00  0.00    -0.098 OA 
HETATM    6  CA  UNL     1      -8.334  11.360  67.882  1.00  0.00    -0.137 C  
HETATM    7  N   UNL     1      -8.960  10.139  67.869  1.00  0.00    -0.128 N  
HETATM    8  CA  UNL     1     -10.192   8.470  67.989  1.00  0.00    -0.213 C  
HETATM    9  C   UNL     1      -6.817  11.417  67.969  1.00  0.00    -0.067 C  
HETATM   10  C   UNL     1      -8.703   8.867  68.222  1.00  0.00    -0.134 C  
HETATM   11  OXT UNL     1      -6.152  12.338  67.518  1.00  0.00    -0.107 OA 
HETATM   12  O   UNL     1      -6.188  10.375  68.546  1.00  0.00    -0.047 OA 
ENDROOT
BRANCH   4  13
HETATM   13  CG1 UNL     1      -8.524  13.863  67.953  1.00  0.00    -0.177 C  
HETATM   14  CD1 UNL     1      -8.731  14.921  67.154  1.00  0.00    -0.240 C  
ENDBRANCH   4  13
BRANCH   8  15
HETATM   15  N   UNL     1     -10.948   8.228  69.262  1.00  0.00    -0.428 N  
HETATM   16  H   UNL     1     -11.463   8.995  69.696  1.00  0.00     0.000 HD 
HETATM   17  C   UNL     1     -10.957   6.983  69.853  1.00  0.00    -0.263 C  
HETATM   18  O   UNL     1     -10.282   6.049  69.442  1.00  0.00    -0.179 OA 
BRANCH  17  19
HETATM   19  C   UNL     1     -11.807   6.815  71.115  1.00  0.00    -0.360 C  
BRANCH  19  20
HETATM   20  C   UNL     1     -11.187   6.329  72.346  1.00  0.00    -0.280 A  
HETATM   21  N   UNL     1     -10.561   3.561  74.415  1.00  0.00    -0.200 NA 
HETATM   22  C   UNL     1     -10.469   7.106  73.237  1.00  0.00    -0.349 A  
HETATM   23  N   UNL     1     -11.280   4.984  72.709  1.00  0.00    -0.244 NA 
HETATM   24  C   UNL     1     -10.647   4.768  73.836  1.00  0.00    -0.284 A  
HETATM   25  S   UNL     1      -9.910   6.145  74.543  1.00  0.00    -0.338 SA 
HETATM   26  H2  UNL     1     -10.047   3.461  75.290  1.00  0.00     0.000 HD 
HETATM   27  H1  UNL     1     -11.000   2.742  73.995  1.00  0.00     0.000 HD 
ENDBRANCH  19  20
BRANCH  19  28
HETATM   28  N   UNL     1     -13.088   7.056  71.223  1.00  0.00    -0.432 NA 
HETATM   29  H   UNL     1     -13.779   6.571  70.652  1.00  0.00     0.000 HD 
BRANCH  28  30
HETATM   30  O   UNL     1     -13.449   8.017  72.169  1.00  0.00    -0.262 OA 
BRANCH  30  31
HETATM   31  C   UNL     1     -13.822   9.213  71.476  1.00  0.00    -0.294 C  
HETATM   32  O   UNL     1     -13.160  11.549  71.581  1.00  0.00    -0.452 OA 
HETATM   33  C   UNL     1     -12.828  10.369  71.560  1.00  0.00    -0.464 C  
HETATM   34  O   UNL     1     -11.529   9.988  71.535  1.00  0.00    -0.332 OA 
ENDBRANCH  30  31
ENDBRANCH  28  30
ENDBRANCH  19  28
ENDBRANCH  17  19
ENDBRANCH   8  15
TORSDOF 7
ENDMDL
MODEL       95
REMARK 921   NORMALIZED FREE ENERGY PREDICTED BY IDOCK:   -5.44 KCAL/MOL
REMARK 922        TOTAL FREE ENERGY PREDICTED BY IDOCK:   -9.02 KCAL/MOL
REMARK 923 INTER-LIGAND FREE ENERGY PREDICTED BY IDOCK:   -7.72 KCAL/MOL
REMARK 924 INTRA-LIGAND FREE ENERGY PREDICTED BY IDOCK:   -1.30 KCAL/MOL
REMARK 927      BINDING AFFINITY PREDICTED BY RF-SCORE:    0.00 PKD
ROOT
HETATM    1  C   UNL     1      -9.463  15.849  69.410  1.00  0.00    -0.248 C  
HETATM    2  S   UNL     1      -7.802  15.213  69.624  1.00  0.00    -0.026 SA 
HETATM    3  CG2 UNL     1      -6.958  16.627  68.917  1.00  0.00    -0.200 C  
HETATM    4  CB  UNL     1      -7.584  17.273  67.685  1.00  0.00    -0.190 C  
HETATM    5  O   UNL     1     -11.547  15.424  66.899  1.00  0.00    -0.164 OA 
HETATM    6  CA  UNL     1      -8.885  17.081  67.307  1.00  0.00    -0.211 C  
HETATM    7  N   UNL     1      -9.681  16.224  68.023  1.00  0.00    -0.228 N  
HETATM    8  CA  UNL     1     -10.574  14.760  69.196  1.00  0.00    -0.248 C  
HETATM    9  C   UNL     1      -9.468  17.810  66.107  1.00  0.00    -0.159 C  
HETATM   10  C   UNL     1     -10.815  15.521  67.857  1.00  0.00    -0.307 C  
HETATM   11  OXT UNL     1      -9.061  18.894  65.715  1.00  0.00    -0.387 OA 
HETATM   12  O   UNL     1     -10.510  17.235  65.476  1.00  0.00    -0.609 OA 
ENDROOT
BRANCH   4  13
HETATM   13  CG1 UNL     1      -6.607  18.062  66.911  1.00  0.00    -0.210 C  
HETATM   14  CD1 UNL     1      -5.719  17.611  66.011  1.00  0.00    -0.222 C  
ENDBRANCH   4  13
BRANCH   8  15
HETATM   15  N   UNL     1     -10.157  13.331  69.001  1.00  0.00    -0.425 N  
HETATM   16  H   UNL     1      -9.184  13.117  68.781  1.00  0.00     0.000 HD 
HETATM   17  C   UNL     1     -11.071  12.306  69.115  1.00  0.00    -0.203 C  
HETATM   18  O   UNL     1     -12.268  12.500  69.277  1.00  0.00    -0.195 OA 
BRANCH  17  19
HETATM   19  C   UNL     1     -10.540  10.878  68.962  1.00  0.00    -0.216 C  
BRANCH  19  20
HETATM   20  C   UNL     1     -10.498   9.994  70.124  1.00  0.00    -0.284 A  
HETATM   21  N   UNL     1     -12.344   8.322  72.600  1.00  0.00    -0.592 NA 
HETATM   22  C   UNL     1      -9.352   9.433  70.658  1.00  0.00    -0.252 A  
HETATM   23  N   UNL     1     -11.671   9.637  70.793  1.00  0.00    -0.297 NA 
HETATM   24  C   UNL     1     -11.404   8.834  71.793  1.00  0.00    -0.339 A  
HETATM   25  S   UNL     1      -9.746   8.456  72.011  1.00  0.00    -0.311 SA 
HETATM   26  H2  UNL     1     -12.068   7.697  73.358  1.00  0.00     0.000 HD 
HETATM   27  H1  UNL     1     -13.331   8.547  72.471  1.00  0.00     0.000 HD 
ENDBRANCH  19  20
BRANCH  19  28
HETATM   28  N   UNL     1     -10.086  10.336  67.863  1.00  0.00    -0.164 NA 
HETATM   29  H   UNL     1      -9.642   9.418  67.855  1.00  0.00     0.000 HD 
BRANCH  28  30
HETATM   30  O   UNL     1     -10.248  11.091  66.699  1.00  0.00    -0.218 OA 
BRANCH  30  31
HETATM   31  C   UNL     1      -8.957  11.301  66.116  1.00  0.00    -0.202 C  
HETATM   32  O   UNL     1      -7.438   9.973  64.760  1.00  0.00    -0.135 OA 
HETATM   33  C   UNL     1      -8.582  10.359  64.973  1.00  0.00    -0.181 C  
HETATM   34  O   UNL     1      -9.613  10.036  64.158  1.00  0.00    -0.292 OA 
ENDBRANCH  30  31
ENDBRANCH  28  30
ENDBRANCH  19  28
ENDBRANCH  17  19
ENDBRANCH   8  15
TORSDOF 7
ENDMDL
MODEL       96
REMARK 921   NORMALIZED FREE ENERGY PREDICTED BY IDOCK:   -5.43 KCAL/MOL
REMARK 922        TOTAL FREE ENERGY PREDICTED BY IDOCK:   -9.01 KCAL/MOL
REMARK 923 INTER-LIGAND FREE ENERGY PREDICTED BY IDOCK:   -7.93 KCAL/MOL
REMARK 924 INTRA-LIGAND FREE ENERGY PREDICTED BY IDOCK:   -1.07 KCAL/MOL
REMARK 927      BINDING AFFINITY PREDICTED BY RF-SCORE:    0.00 PKD
ROOT
HETATM    1  C   UNL     1     -10.883   9.062  67.468  1.00  0.00    -0.060 C  
HETATM    2  S   UNL     1      -9.566   8.895  66.265  1.00  0.00    -0.267 SA 
HETATM    3  CG2 UNL     1      -8.811   7.446  67.001  1.00  0.00    -0.128 C  
HETATM    4  CB  UNL     1      -8.729   7.395  68.524  1.00  0.00    -0.127 C  
HETATM    5  O   UNL     1     -10.958  10.833  70.240  1.00  0.00    -0.246 OA 
HETATM    6  CA  UNL     1      -9.484   8.182  69.350  1.00  0.00    -0.162 C  
HETATM    7  N   UNL     1     -10.331   9.116  68.811  1.00  0.00    -0.211 N  
HETATM    8  CA  UNL     1     -11.384  10.530  67.712  1.00  0.00    -0.190 C  
HETATM    9  C   UNL     1      -9.404   8.033  70.861  1.00  0.00    -0.153 C  
HETATM   10  C   UNL     1     -10.964  10.242  69.185  1.00  0.00    -0.238 C  
HETATM   11  OXT UNL     1      -9.100   6.989  71.420  1.00  0.00    -0.147 OA 
HETATM   12  O   UNL     1      -9.724   9.107  71.609  1.00  0.00    -0.292 OA 
ENDROOT
BRANCH   4  13
HETATM   13  CG1 UNL     1      -7.691   6.458  68.996  1.00  0.00    -0.101 C  
HETATM   14  CD1 UNL     1      -7.634   5.132  68.799  1.00  0.00    -0.078 C  
ENDBRANCH   4  13
BRANCH   8  15
HETATM   15  N   UNL     1     -10.625  11.665  67.089  1.00  0.00    -0.223 N  
HETATM   16  H   UNL     1      -9.820  11.466  66.496  1.00  0.00     0.000 HD 
HETATM   17  C   UNL     1     -11.002  12.972  67.308  1.00  0.00    -0.264 C  
HETATM   18  O   UNL     1     -11.893  13.284  68.086  1.00  0.00    -0.335 OA 
BRANCH  17  19
HETATM   19  C   UNL     1     -10.206  14.059  66.580  1.00  0.00    -0.275 C  
BRANCH  19  20
HETATM   20  C   UNL     1      -9.716  15.217  67.325  1.00  0.00    -0.212 A  
HETATM   21  N   UNL     1     -10.495  18.343  68.724  1.00  0.00    -0.401 NA 
HETATM   22  C   UNL     1      -8.428  15.369  67.805  1.00  0.00    -0.150 A  
HETATM   23  N   UNL     1     -10.563  16.288  67.617  1.00  0.00    -0.306 NA 
HETATM   24  C   UNL     1      -9.923  17.208  68.296  1.00  0.00    -0.300 A  
HETATM   25  S   UNL     1      -8.275  16.868  68.625  1.00  0.00    -0.251 SA 
HETATM   26  H2  UNL     1      -9.940  19.015  69.254  1.00  0.00     0.000 HD 
HETATM   27  H1  UNL     1     -11.475  18.546  68.528  1.00  0.00     0.000 HD 
ENDBRANCH  19  20
BRANCH  19  28
HETATM   28  N   UNL     1      -9.910  14.080  65.307  1.00  0.00    -0.579 NA 
HETATM   29  H   UNL     1      -9.044  13.681  64.947  1.00  0.00     0.000 HD 
BRANCH  28  30
HETATM   30  O   UNL     1     -10.854  14.682  64.472  1.00  0.00    -0.338 OA 
BRANCH  30  31
HETATM   31  C   UNL     1     -12.038  13.876  64.477  1.00  0.00    -0.443 C  
HETATM   32  O   UNL     1     -13.011  12.229  62.979  1.00  0.00    -0.516 OA 
HETATM   33  C   UNL     1     -12.018  12.659  63.554  1.00  0.00    -0.548 C  
HETATM   34  O   UNL     1     -10.817  12.040  63.476  1.00  0.00    -0.395 OA 
ENDBRANCH  30  31
ENDBRANCH  28  30
ENDBRANCH  19  28
ENDBRANCH  17  19
ENDBRANCH   8  15
TORSDOF 7
ENDMDL
MODEL       97
REMARK 921   NORMALIZED FREE ENERGY PREDICTED BY IDOCK:   -5.43 KCAL/MOL
REMARK 922        TOTAL FREE ENERGY PREDICTED BY IDOCK:   -9.00 KCAL/MOL
REMARK 923 INTER-LIGAND FREE ENERGY PREDICTED BY IDOCK:   -7.82 KCAL/MOL
REMARK 924 INTRA-LIGAND FREE ENERGY PREDICTED BY IDOCK:   -1.18 KCAL/MOL
REMARK 927      BINDING AFFINITY PREDICTED BY RF-SCORE:    0.00 PKD
ROOT
HETATM    1  C   UNL     1      -9.411   9.486  70.353  1.00  0.00    -0.262 C  
HETATM    2  S   UNL     1     -10.814  10.421  69.747  1.00  0.00    -0.297 SA 
HETATM    3  CG2 UNL     1     -12.002   9.777  70.924  1.00  0.00    -0.328 C  
HETATM    4  CB  UNL     1     -11.917   8.293  71.265  1.00  0.00    -0.317 C  
HETATM    5  O   UNL     1      -8.291   6.548  69.383  1.00  0.00    -0.121 OA 
HETATM    6  CA  UNL     1     -10.814   7.521  71.021  1.00  0.00    -0.235 C  
HETATM    7  N   UNL     1      -9.730   8.068  70.385  1.00  0.00    -0.178 N  
HETATM    8  CA  UNL     1      -8.329   9.127  69.274  1.00  0.00    -0.123 C  
HETATM    9  C   UNL     1     -10.768   6.063  71.450  1.00  0.00    -0.259 C  
HETATM   10  C   UNL     1      -8.652   7.660  69.691  1.00  0.00    -0.136 C  
HETATM   11  OXT UNL     1     -11.404   5.619  72.395  1.00  0.00    -0.279 OA 
HETATM   12  O   UNL     1      -9.951   5.240  70.764  1.00  0.00    -0.185 OA 
ENDROOT
BRANCH   4  13
HETATM   13  CG1 UNL     1     -13.184   7.773  71.817  1.00  0.00    -0.354 C  
HETATM   14  CD1 UNL     1     -14.390   7.764  71.229  1.00  0.00    -0.425 C  
ENDBRANCH   4  13
BRANCH   8  15
HETATM   15  N   UNL     1      -8.625   9.414  67.831  1.00  0.00    -0.120 N  
HETATM   16  H   UNL     1      -9.178   8.749  67.290  1.00  0.00     0.000 HD 
HETATM   17  C   UNL     1      -8.161  10.563  67.229  1.00  0.00    -0.119 C  
HETATM   18  O   UNL     1      -7.412  11.350  67.790  1.00  0.00    -0.092 OA 
BRANCH  17  19
HETATM   19  C   UNL     1      -8.567  10.799  65.771  1.00  0.00    -0.183 C  
BRANCH  19  20
HETATM   20  C   UNL     1      -8.203   9.817  64.751  1.00  0.00    -0.148 A  
HETATM   21  N   UNL     1      -8.298   6.449  63.763  1.00  0.00    -0.331 NA 
HETATM   22  C   UNL     1      -7.545  10.103  63.569  1.00  0.00    -0.138 A  
HETATM   23  N   UNL     1      -8.521   8.468  64.914  1.00  0.00    -0.169 NA 
HETATM   24  C   UNL     1      -8.113   7.771  63.882  1.00  0.00    -0.052 A  
HETATM   25  S   UNL     1      -7.318   8.669  62.656  1.00  0.00    -0.101 SA 
HETATM   26  H2  UNL     1      -7.960   5.968  62.929  1.00  0.00     0.000 HD 
HETATM   27  H1  UNL     1      -8.770   5.914  64.492  1.00  0.00     0.000 HD 
ENDBRANCH  19  20
BRANCH  19  28
HETATM   28  N   UNL     1      -9.221  11.831  65.308  1.00  0.00    -0.419 NA 
HETATM   29  H   UNL     1      -8.748  12.612  64.853  1.00  0.00     0.000 HD 
BRANCH  28  30
HETATM   30  O   UNL     1     -10.607  11.799  65.473  1.00  0.00    -0.259 OA 
BRANCH  30  31
HETATM   31  C   UNL     1     -11.077  13.145  65.595  1.00  0.00    -0.275 C  
HETATM   32  O   UNL     1     -12.545  14.585  64.298  1.00  0.00    -0.681 OA 
HETATM   33  C   UNL     1     -12.335  13.486  64.797  1.00  0.00    -0.392 C  
HETATM   34  O   UNL     1     -13.247  12.486  64.743  1.00  0.00    -0.839 OA 
ENDBRANCH  30  31
ENDBRANCH  28  30
ENDBRANCH  19  28
ENDBRANCH  17  19
ENDBRANCH   8  15
TORSDOF 7
ENDMDL
MODEL       98
REMARK 921   NORMALIZED FREE ENERGY PREDICTED BY IDOCK:   -5.41 KCAL/MOL
REMARK 922        TOTAL FREE ENERGY PREDICTED BY IDOCK:   -8.98 KCAL/MOL
REMARK 923 INTER-LIGAND FREE ENERGY PREDICTED BY IDOCK:   -7.70 KCAL/MOL
REMARK 924 INTRA-LIGAND FREE ENERGY PREDICTED BY IDOCK:   -1.28 KCAL/MOL
REMARK 927      BINDING AFFINITY PREDICTED BY RF-SCORE:    0.00 PKD
ROOT
HETATM    1  C   UNL     1      -8.991  11.601  66.879  1.00  0.00    -0.191 C  
HETATM    2  S   UNL     1      -9.464  10.006  66.214  1.00  0.00    -0.204 SA 
HETATM    3  CG2 UNL     1     -10.096  10.624  64.655  1.00  0.00    -0.349 C  
HETATM    4  CB  UNL     1     -10.897  11.923  64.689  1.00  0.00    -0.363 C  
HETATM    5  O   UNL     1     -10.720  13.663  68.773  1.00  0.00    -0.247 OA 
HETATM    6  CA  UNL     1     -10.863  12.807  65.732  1.00  0.00    -0.272 C  
HETATM    7  N   UNL     1     -10.122  12.512  66.848  1.00  0.00    -0.222 N  
HETATM    8  CA  UNL     1      -9.054  11.719  68.444  1.00  0.00    -0.176 C  
HETATM    9  C   UNL     1     -11.631  14.118  65.673  1.00  0.00    -0.339 C  
HETATM   10  C   UNL     1     -10.053  12.876  68.141  1.00  0.00    -0.240 C  
HETATM   11  OXT UNL     1     -11.899  14.694  64.629  1.00  0.00    -0.419 OA 
HETATM   12  O   UNL     1     -11.994  14.678  66.843  1.00  0.00    -0.373 OA 
ENDROOT
BRANCH   4  13
HETATM   13  CG1 UNL     1     -11.764  12.075  63.504  1.00  0.00    -0.566 C  
HETATM   14  CD1 UNL     1     -13.016  11.618  63.343  1.00  0.00    -0.024 C  
ENDBRANCH   4  13
BRANCH   8  15
HETATM   15  N   UNL     1      -9.665  10.595  69.228  1.00  0.00    -0.338 N  
HETATM   16  H   UNL     1     -10.660  10.392  69.124  1.00  0.00     0.000 HD 
HETATM   17  C   UNL     1      -8.901   9.834  70.086  1.00  0.00    -0.188 C  
HETATM   18  O   UNL     1      -7.730  10.087  70.332  1.00  0.00    -0.227 OA 
BRANCH  17  19
HETATM   19  C   UNL     1      -9.599   8.671  70.796  1.00  0.00    -0.188 C  
BRANCH  19  20
HETATM   20  C   UNL     1     -10.012   7.498  70.027  1.00  0.00    -0.186 A  
HETATM   21  N   UNL     1     -11.333   6.295  67.004  1.00  0.00    -0.660 NA 
HETATM   22  C   UNL     1      -9.927   6.189  70.464  1.00  0.00    -0.181 A  
HETATM   23  N   UNL     1     -10.534   7.636  68.740  1.00  0.00    -0.207 NA 
HETATM   24  C   UNL     1     -10.827   6.463  68.234  1.00  0.00    -0.309 A  
HETATM   25  S   UNL     1     -10.511   5.122  69.255  1.00  0.00    -0.006 SA 
HETATM   26  H2  UNL     1     -11.533   5.352  66.669  1.00  0.00     0.000 HD 
HETATM   27  H1  UNL     1     -11.522   7.092  66.397  1.00  0.00     0.000 HD 
ENDBRANCH  19  20
BRANCH  19  28
HETATM   28  N   UNL     1      -9.895   8.605  72.067  1.00  0.00    -0.308 NA 
HETATM   29  H   UNL     1     -10.847   8.445  72.394  1.00  0.00     0.000 HD 
BRANCH  28  30
HETATM   30  O   UNL     1      -8.825   8.769  72.951  1.00  0.00    -0.362 OA 
BRANCH  30  31
HETATM   31  C   UNL     1      -8.917   7.759  73.961  1.00  0.00    -0.215 C  
HETATM   32  O   UNL     1      -8.989   5.330  73.973  1.00  0.00    -0.120 OA 
HETATM   33  C   UNL     1      -8.477   6.357  73.543  1.00  0.00    -0.120 C  
HETATM   34  O   UNL     1      -7.415   6.335  72.704  1.00  0.00    -0.097 OA 
ENDBRANCH  30  31
ENDBRANCH  28  30
ENDBRANCH  19  28
ENDBRANCH  17  19
ENDBRANCH   8  15
TORSDOF 7
ENDMDL
MODEL       99
REMARK 921   NORMALIZED FREE ENERGY PREDICTED BY IDOCK:   -5.37 KCAL/MOL
REMARK 922        TOTAL FREE ENERGY PREDICTED BY IDOCK:   -8.92 KCAL/MOL
REMARK 923 INTER-LIGAND FREE ENERGY PREDICTED BY IDOCK:   -7.54 KCAL/MOL
REMARK 924 INTRA-LIGAND FREE ENERGY PREDICTED BY IDOCK:   -1.38 KCAL/MOL
REMARK 927      BINDING AFFINITY PREDICTED BY RF-SCORE:    0.00 PKD
ROOT
HETATM    1  C   UNL     1     -10.415  12.869  66.009  1.00  0.00    -0.276 C  
HETATM    2  S   UNL     1     -11.892  13.301  66.926  1.00  0.00    -0.383 SA 
HETATM    3  CG2 UNL     1     -11.766  15.071  66.678  1.00  0.00    -0.139 C  
HETATM    4  CB  UNL     1     -10.375  15.693  66.755  1.00  0.00    -0.287 C  
HETATM    5  O   UNL     1      -7.333  12.472  67.090  1.00  0.00    -0.137 OA 
HETATM    6  CA  UNL     1      -9.216  14.973  66.648  1.00  0.00    -0.276 C  
HETATM    7  N   UNL     1      -9.274  13.609  66.519  1.00  0.00    -0.222 N  
HETATM    8  CA  UNL     1      -9.679  11.571  66.498  1.00  0.00    -0.203 C  
HETATM    9  C   UNL     1      -7.861  15.663  66.663  1.00  0.00    -0.099 C  
HETATM   10  C   UNL     1      -8.476  12.541  66.700  1.00  0.00    -0.001 C  
HETATM   11  OXT UNL     1      -7.688  16.815  66.293  1.00  0.00    -0.296 OA 
HETATM   12  O   UNL     1      -6.801  14.941  67.074  1.00  0.00    -0.185 OA 
ENDROOT
BRANCH   4  13
HETATM   13  CG1 UNL     1     -10.425  17.141  67.034  1.00  0.00    -0.282 C  
HETATM   14  CD1 UNL     1     -10.338  17.749  68.227  1.00  0.00    -0.387 C  
ENDBRANCH   4  13
BRANCH   8  15
HETATM   15  N   UNL     1     -10.135  10.918  67.770  1.00  0.00    -0.174 N  
HETATM   16  H   UNL     1     -10.318  11.492  68.593  1.00  0.00     0.000 HD 
HETATM   17  C   UNL     1     -10.312   9.553  67.839  1.00  0.00    -0.227 C  
HETATM   18  O   UNL     1     -10.016   8.799  66.923  1.00  0.00    -0.208 OA 
BRANCH  17  19
HETATM   19  C   UNL     1     -10.840   8.984  69.159  1.00  0.00    -0.089 C  
BRANCH  19  20
HETATM   20  C   UNL     1     -10.156   7.854  69.785  1.00  0.00    -0.199 A  
HETATM   21  N   UNL     1      -9.952   4.362  70.094  1.00  0.00    -0.218 NA 
HETATM   22  C   UNL     1      -9.088   7.953  70.658  1.00  0.00    -0.153 A  
HETATM   23  N   UNL     1     -10.555   6.543  69.518  1.00  0.00    -0.223 NA 
HETATM   24  C   UNL     1      -9.803   5.692  70.173  1.00  0.00    -0.190 A  
HETATM   25  S   UNL     1      -8.582   6.391  71.153  1.00  0.00    -0.127 SA 
HETATM   26  H2  UNL     1      -9.328   3.755  70.626  1.00  0.00     0.000 HD 
HETATM   27  H1  UNL     1     -10.679   3.946  69.512  1.00  0.00     0.000 HD 
ENDBRANCH  19  20
BRANCH  19  28
HETATM   28  N   UNL     1     -11.888   9.403  69.817  1.00  0.00    -0.372 NA 
HETATM   29  H   UNL     1     -12.799   8.953  69.728  1.00  0.00     0.000 HD 
BRANCH  28  30
HETATM   30  O   UNL     1     -11.685  10.505  70.650  1.00  0.00    -0.310 OA 
BRANCH  30  31
HETATM   31  C   UNL     1     -12.796  10.604  71.547  1.00  0.00    -0.462 C  
HETATM   32  O   UNL     1     -14.402   9.039  72.484  1.00  0.00    -0.570 OA 
HETATM   33  C   UNL     1     -13.237   9.298  72.206  1.00  0.00    -0.460 C  
HETATM   34  O   UNL     1     -12.219   8.468  72.530  1.00  0.00    -0.389 OA 
ENDBRANCH  30  31
ENDBRANCH  28  30
ENDBRANCH  19  28
ENDBRANCH  17  19
ENDBRANCH   8  15
TORSDOF 7
ENDMDL
MODEL      100
REMARK 921   NORMALIZED FREE ENERGY PREDICTED BY IDOCK:   -5.35 KCAL/MOL
REMARK 922        TOTAL FREE ENERGY PREDICTED BY IDOCK:   -8.90 KCAL/MOL
REMARK 923 INTER-LIGAND FREE ENERGY PREDICTED BY IDOCK:   -7.96 KCAL/MOL
REMARK 924 INTRA-LIGAND FREE ENERGY PREDICTED BY IDOCK:   -0.93 KCAL/MOL
REMARK 927      BINDING AFFINITY PREDICTED BY RF-SCORE:    0.00 PKD
ROOT
HETATM    1  C   UNL     1      -8.630   9.269  69.659  1.00  0.00    -0.150 C  
HETATM    2  S   UNL     1     -10.285   8.821  70.182  1.00  0.00    -0.198 SA 
HETATM    3  CG2 UNL     1     -10.067   7.049  70.024  1.00  0.00    -0.187 C  
HETATM    4  CB  UNL     1      -9.272   6.544  68.823  1.00  0.00    -0.131 C  
HETATM    5  O   UNL     1      -7.524  10.001  66.649  1.00  0.00    -0.100 OA 
HETATM    6  CA  UNL     1      -8.440   7.335  68.079  1.00  0.00    -0.123 C  
HETATM    7  N   UNL     1      -8.333   8.671  68.369  1.00  0.00    -0.125 N  
HETATM    8  CA  UNL     1      -8.509  10.660  68.942  1.00  0.00    -0.154 C  
HETATM    9  C   UNL     1      -7.621   6.753  66.937  1.00  0.00    -0.091 C  
HETATM   10  C   UNL     1      -7.940   9.808  67.767  1.00  0.00    -0.101 C  
HETATM   11  OXT UNL     1      -7.261   5.586  66.893  1.00  0.00    -0.075 OA 
HETATM   12  O   UNL     1      -7.254   7.590  65.948  1.00  0.00    -0.064 OA 
ENDROOT
BRANCH   4  13
HETATM   13  CG1 UNL     1      -9.565   5.131  68.514  1.00  0.00    -0.190 C  
HETATM   14  CD1 UNL     1      -9.753   4.125  69.382  1.00  0.00    -0.233 C  
ENDBRANCH   4  13
BRANCH   8  15
HETATM   15  N   UNL     1      -9.764  11.401  68.586  1.00  0.00    -0.241 N  
HETATM   16  H   UNL     1     -10.671  10.967  68.761  1.00  0.00     0.000 HD 
HETATM   17  C   UNL     1      -9.708  12.659  68.025  1.00  0.00    -0.215 C  
HETATM   18  O   UNL     1      -8.657  13.192  67.698  1.00  0.00    -0.168 OA 
BRANCH  17  19
HETATM   19  C   UNL     1     -11.041  13.362  67.754  1.00  0.00    -0.268 C  
BRANCH  19  20
HETATM   20  C   UNL     1     -11.366  13.795  66.397  1.00  0.00    -0.317 A  
HETATM   21  N   UNL     1     -11.287  16.417  64.061  1.00  0.00    -1.539 NA 
HETATM   22  C   UNL     1     -11.949  13.002  65.425  1.00  0.00    -0.414 A  
HETATM   23  N   UNL     1     -11.087  15.097  65.977  1.00  0.00    -0.334 NA 
HETATM   24  C   UNL     1     -11.450  15.266  64.729  1.00  0.00    -0.363 A  
HETATM   25  S   UNL     1     -12.153  13.896  63.976  1.00  0.00    -0.310 SA 
HETATM   26  H2  UNL     1     -11.586  16.479  63.088  1.00  0.00     0.000 HD 
HETATM   27  H1  UNL     1     -10.869  17.232  64.510  1.00  0.00     0.000 HD 
ENDBRANCH  19  20
BRANCH  19  28
HETATM   28  N   UNL     1     -11.960  13.645  68.639  1.00  0.00    -0.364 NA 
HETATM   29  H   UNL     1     -12.687  12.978  68.896  1.00  0.00     0.000 HD 
BRANCH  28  30
HETATM   30  O   UNL     1     -11.886  14.918  69.209  1.00  0.00    -0.299 OA 
BRANCH  30  31
HETATM   31  C   UNL     1     -12.924  15.034  70.188  1.00  0.00    -0.084 C  
HETATM   32  O   UNL     1     -13.019  14.998  72.616  1.00  0.00    -0.339 OA 
HETATM   33  C   UNL     1     -12.470  15.404  71.598  1.00  0.00    -0.381 C  
HETATM   34  O   UNL     1     -11.444  16.287  71.638  1.00  0.00    -0.401 OA 
ENDBRANCH  30  31
ENDBRANCH  28  30
ENDBRANCH  19  28
ENDBRANCH  17  19
ENDBRANCH   8  15
TORSDOF 7
ENDMDL
MODEL      101
REMARK 921   NORMALIZED FREE ENERGY PREDICTED BY IDOCK:   -5.35 KCAL/MOL
REMARK 922        TOTAL FREE ENERGY PREDICTED BY IDOCK:   -8.89 KCAL/MOL
REMARK 923 INTER-LIGAND FREE ENERGY PREDICTED BY IDOCK:   -7.68 KCAL/MOL
REMARK 924 INTRA-LIGAND FREE ENERGY PREDICTED BY IDOCK:   -1.21 KCAL/MOL
REMARK 927      BINDING AFFINITY PREDICTED BY RF-SCORE:    0.00 PKD
ROOT
HETATM    1  C   UNL     1      -9.335   7.118  67.965  1.00  0.00    -0.129 C  
HETATM    2  S   UNL     1     -10.917   6.602  67.300  1.00  0.00    -0.350 SA 
HETATM    3  CG2 UNL     1     -10.315   5.123  66.488  1.00  0.00    -0.291 C  
HETATM    4  CB  UNL     1      -8.963   5.209  65.785  1.00  0.00    -0.152 C  
HETATM    5  O   UNL     1      -7.088   9.139  66.664  1.00  0.00    -0.080 OA 
HETATM    6  CA  UNL     1      -8.045   6.194  66.026  1.00  0.00    -0.118 C  
HETATM    7  N   UNL     1      -8.349   7.205  66.901  1.00  0.00    -0.116 N  
HETATM    8  CA  UNL     1      -9.155   8.668  68.138  1.00  0.00    -0.141 C  
HETATM    9  C   UNL     1      -6.687   6.183  65.343  1.00  0.00    -0.047 C  
HETATM   10  C   UNL     1      -7.943   8.457  67.181  1.00  0.00    -0.104 C  
HETATM   11  OXT UNL     1      -6.133   5.162  64.963  1.00  0.00    -0.024 OA 
HETATM   12  O   UNL     1      -6.059   7.365  65.190  1.00  0.00    -0.037 OA 
ENDROOT
BRANCH   4  13
HETATM   13  CG1 UNL     1      -8.796   4.155  64.766  1.00  0.00    -0.135 C  
HETATM   14  CD1 UNL     1      -9.061   2.845  64.891  1.00  0.00    -0.141 C  
ENDBRANCH   4  13
BRANCH   8  15
HETATM   15  N   UNL     1     -10.203   9.584  67.577  1.00  0.00    -0.212 N  
HETATM   16  H   UNL     1     -10.940   9.201  66.984  1.00  0.00     0.000 HD 
HETATM   17  C   UNL     1     -10.183  10.934  67.852  1.00  0.00    -0.179 C  
HETATM   18  O   UNL     1      -9.274  11.471  68.471  1.00  0.00    -0.183 OA 
BRANCH  17  19
HETATM   19  C   UNL     1     -11.328  11.778  67.287  1.00  0.00    -0.315 C  
BRANCH  19  20
HETATM   20  C   UNL     1     -11.436  11.977  65.843  1.00  0.00    -0.333 A  
HETATM   21  N   UNL     1     -10.322  10.994  62.661  1.00  0.00    -0.733 NA 
HETATM   22  C   UNL     1     -12.287  12.874  65.224  1.00  0.00    -0.490 A  
HETATM   23  N   UNL     1     -10.654  11.231  64.960  1.00  0.00    -0.299 NA 
HETATM   24  C   UNL     1     -10.917  11.562  63.720  1.00  0.00    -0.409 A  
HETATM   25  S   UNL     1     -12.102  12.786  63.521  1.00  0.00    -0.532 SA 
HETATM   26  H2  UNL     1     -10.579  11.295  61.720  1.00  0.00     0.000 HD 
HETATM   27  H1  UNL     1      -9.617  10.267  62.779  1.00  0.00     0.000 HD 
ENDBRANCH  19  20
BRANCH  19  28
HETATM   28  N   UNL     1     -12.259  12.382  67.979  1.00  0.00    -0.277 NA 
HETATM   29  H   UNL     1     -13.107  12.744  67.544  1.00  0.00     0.000 HD 
BRANCH  28  30
HETATM   30  O   UNL     1     -12.019  12.499  69.350  1.00  0.00    -0.298 OA 
BRANCH  30  31
HETATM   31  C   UNL     1     -11.843  13.886  69.659  1.00  0.00    -0.327 C  
HETATM   32  O   UNL     1     -13.184  15.597  70.744  1.00  0.00    -0.517 OA 
HETATM   33  C   UNL     1     -12.759  14.448  70.744  1.00  0.00    -0.360 C  
HETATM   34  O   UNL     1     -13.011  13.588  71.759  1.00  0.00    -0.351 OA 
ENDBRANCH  30  31
ENDBRANCH  28  30
ENDBRANCH  19  28
ENDBRANCH  17  19
ENDBRANCH   8  15
TORSDOF 7
ENDMDL
MODEL      102
REMARK 921   NORMALIZED FREE ENERGY PREDICTED BY IDOCK:   -5.33 KCAL/MOL
REMARK 922        TOTAL FREE ENERGY PREDICTED BY IDOCK:   -8.87 KCAL/MOL
REMARK 923 INTER-LIGAND FREE ENERGY PREDICTED BY IDOCK:   -7.78 KCAL/MOL
REMARK 924 INTRA-LIGAND FREE ENERGY PREDICTED BY IDOCK:   -1.09 KCAL/MOL
REMARK 927      BINDING AFFINITY PREDICTED BY RF-SCORE:    0.00 PKD
ROOT
HETATM    1  C   UNL     1      -9.861  17.283  67.125  1.00  0.00    -0.269 C  
HETATM    2  S   UNL     1     -10.376  17.853  68.744  1.00  0.00    -0.219 SA 
HETATM    3  CG2 UNL     1      -9.258  19.251  68.824  1.00  0.00    -0.371 C  
HETATM    4  CB  UNL     1      -7.845  19.051  68.284  1.00  0.00    -0.350 C  
HETATM    5  O   UNL     1      -7.559  15.070  66.331  1.00  0.00     0.397 OA 
HETATM    6  CA  UNL     1      -7.492  18.028  67.446  1.00  0.00    -0.203 C  
HETATM    7  N   UNL     1      -8.422  17.083  67.098  1.00  0.00    -0.196 N  
HETATM    8  CA  UNL     1      -9.990  15.736  66.888  1.00  0.00    -0.243 C  
HETATM    9  C   UNL     1      -6.081  17.925  66.887  1.00  0.00    -0.153 C  
HETATM   10  C   UNL     1      -8.458  15.827  66.619  1.00  0.00    -0.288 C  
HETATM   11  OXT UNL     1      -5.351  18.891  66.719  1.00  0.00    -0.144 OA 
HETATM   12  O   UNL     1      -5.642  16.703  66.530  1.00  0.00    -0.341 OA 
ENDROOT
BRANCH   4  13
HETATM   13  CG1 UNL     1      -6.893  20.038  68.829  1.00  0.00    -0.328 C  
HETATM   14  CD1 UNL     1      -6.267  20.003  70.015  1.00  0.00    -0.395 C  
ENDBRANCH   4  13
BRANCH   8  15
HETATM   15  N   UNL     1     -10.339  14.854  68.050  1.00  0.00    -0.241 N  
HETATM   16  H   UNL     1      -9.764  14.882  68.893  1.00  0.00     0.000 HD 
HETATM   17  C   UNL     1     -11.425  14.007  67.995  1.00  0.00    -0.311 C  
HETATM   18  O   UNL     1     -12.093  13.852  66.982  1.00  0.00    -0.420 OA 
BRANCH  17  19
HETATM   19  C   UNL     1     -11.738  13.192  69.252  1.00  0.00    -0.321 C  
BRANCH  19  20
HETATM   20  C   UNL     1     -11.431  11.763  69.283  1.00  0.00    -0.306 A  
HETATM   21  N   UNL     1     -10.660   8.975  71.275  1.00  0.00    -0.280 NA 
HETATM   22  C   UNL     1     -11.377  10.936  68.176  1.00  0.00    -0.315 A  
HETATM   23  N   UNL     1     -11.169  11.115  70.491  1.00  0.00     0.042 NA 
HETATM   24  C   UNL     1     -10.929   9.843  70.289  1.00  0.00    -0.309 A  
HETATM   25  S   UNL     1     -10.990   9.335  68.652  1.00  0.00     0.092 SA 
HETATM   26  H2  UNL     1     -10.489   7.996  71.048  1.00  0.00     0.000 HD 
HETATM   27  H1  UNL     1     -10.623   9.278  72.248  1.00  0.00     0.000 HD 
ENDBRANCH  19  20
BRANCH  19  28
HETATM   28  N   UNL     1     -12.287  13.642  70.350  1.00  0.00    -0.351 NA 
HETATM   29  H   UNL     1     -11.971  13.347  71.273  1.00  0.00     0.000 HD 
BRANCH  28  30
HETATM   30  O   UNL     1     -13.332  14.552  70.179  1.00  0.00     0.075 OA 
BRANCH  30  31
HETATM   31  C   UNL     1     -13.173  15.605  71.135  1.00  0.00    -0.419 C  
HETATM   32  O   UNL     1     -14.157  16.143  73.292  1.00  0.00    -0.442 OA 
HETATM   33  C   UNL     1     -13.666  15.301  72.549  1.00  0.00    -0.526 C  
HETATM   34  O   UNL     1     -13.449  14.026  72.951  1.00  0.00    -0.647 OA 
ENDBRANCH  30  31
ENDBRANCH  28  30
ENDBRANCH  19  28
ENDBRANCH  17  19
ENDBRANCH   8  15
TORSDOF 7
ENDMDL
MODEL      103
REMARK 921   NORMALIZED FREE ENERGY PREDICTED BY IDOCK:   -5.33 KCAL/MOL
REMARK 922        TOTAL FREE ENERGY PREDICTED BY IDOCK:   -8.86 KCAL/MOL
REMARK 923 INTER-LIGAND FREE ENERGY PREDICTED BY IDOCK:   -6.92 KCAL/MOL
REMARK 924 INTRA-LIGAND FREE ENERGY PREDICTED BY IDOCK:   -1.94 KCAL/MOL
REMARK 927      BINDING AFFINITY PREDICTED BY RF-SCORE:    0.00 PKD
ROOT
HETATM    1  C   UNL     1     -11.711  13.648  67.234  1.00  0.00    -0.380 C  
HETATM    2  S   UNL     1     -11.751  12.545  68.645  1.00  0.00    -0.319 SA 
HETATM    3  CG2 UNL     1     -12.171  13.794  69.859  1.00  0.00    -0.321 C  
HETATM    4  CB  UNL     1     -11.495  15.156  69.727  1.00  0.00    -0.321 C  
HETATM    5  O   UNL     1      -9.167  15.289  65.946  1.00  0.00    -0.315 OA 
HETATM    6  CA  UNL     1     -10.885  15.591  68.583  1.00  0.00    -0.267 C  
HETATM    7  N   UNL     1     -10.813  14.761  67.494  1.00  0.00    -0.280 N  
HETATM    8  CA  UNL     1     -10.721  13.233  66.088  1.00  0.00    -0.279 C  
HETATM    9  C   UNL     1     -10.291  16.988  68.494  1.00  0.00    -0.359 C  
HETATM   10  C   UNL     1     -10.089  14.630  66.368  1.00  0.00    -0.278 C  
HETATM   11  OXT UNL     1     -10.695  17.934  69.154  1.00  0.00    -0.021 OA 
HETATM   12  O   UNL     1      -9.292  17.183  67.612  1.00  0.00    -0.235 OA 
ENDROOT
BRANCH   4  13
HETATM   13  CG1 UNL     1     -11.509  15.911  70.995  1.00  0.00    -0.461 C  
HETATM   14  CD1 UNL     1     -11.660  15.424  72.236  1.00  0.00    -0.554 C  
ENDBRANCH   4  13
BRANCH   8  15
HETATM   15  N   UNL     1      -9.775  12.093  66.329  1.00  0.00    -0.234 N  
HETATM   16  H   UNL     1      -9.107  12.148  67.098  1.00  0.00     0.000 HD 
HETATM   17  C   UNL     1      -9.796  10.975  65.524  1.00  0.00    -0.243 C  
HETATM   18  O   UNL     1     -10.499  10.889  64.527  1.00  0.00    -0.346 OA 
BRANCH  17  19
HETATM   19  C   UNL     1      -8.836   9.838  65.884  1.00  0.00    -0.150 C  
BRANCH  19  20
HETATM   20  C   UNL     1      -8.131   9.123  64.823  1.00  0.00    -0.140 A  
HETATM   21  N   UNL     1      -7.681   6.068  63.148  1.00  0.00    -0.089 NA 
HETATM   22  C   UNL     1      -7.203   9.683  63.964  1.00  0.00    -0.118 A  
HETATM   23  N   UNL     1      -8.371   7.766  64.595  1.00  0.00    -0.077 NA 
HETATM   24  C   UNL     1      -7.643   7.332  63.595  1.00  0.00    -0.114 A  
HETATM   25  S   UNL     1      -6.622   8.501  62.867  1.00  0.00    -0.090 SA 
HETATM   26  H2  UNL     1      -7.092   5.798  62.360  1.00  0.00     0.000 HD 
HETATM   27  H1  UNL     1      -8.288   5.373  63.582  1.00  0.00     0.000 HD 
ENDBRANCH  19  20
BRANCH  19  28
HETATM   28  N   UNL     1      -8.570   9.402  67.087  1.00  0.00    -0.127 NA 
HETATM   29  H   UNL     1      -7.644   9.065  67.349  1.00  0.00     0.000 HD 
BRANCH  28  30
HETATM   30  O   UNL     1      -9.634   9.427  67.993  1.00  0.00    -0.136 OA 
BRANCH  30  31
HETATM   31  C   UNL     1      -9.099   9.603  69.309  1.00  0.00    -0.172 C  
HETATM   32  O   UNL     1      -7.086  10.599  70.237  1.00  0.00    -0.230 OA 
HETATM   33  C   UNL     1      -8.025  10.679  69.453  1.00  0.00    -0.111 C  
HETATM   34  O   UNL     1      -8.232  11.777  68.689  1.00  0.00    -0.147 OA 
ENDBRANCH  30  31
ENDBRANCH  28  30
ENDBRANCH  19  28
ENDBRANCH  17  19
ENDBRANCH   8  15
TORSDOF 7
ENDMDL
MODEL      104
REMARK 921   NORMALIZED FREE ENERGY PREDICTED BY IDOCK:   -5.32 KCAL/MOL
REMARK 922        TOTAL FREE ENERGY PREDICTED BY IDOCK:   -8.85 KCAL/MOL
REMARK 923 INTER-LIGAND FREE ENERGY PREDICTED BY IDOCK:   -7.72 KCAL/MOL
REMARK 924 INTRA-LIGAND FREE ENERGY PREDICTED BY IDOCK:   -1.13 KCAL/MOL
REMARK 927      BINDING AFFINITY PREDICTED BY RF-SCORE:    0.00 PKD
ROOT
HETATM    1  C   UNL     1     -10.502   7.996  68.892  1.00  0.00    -0.191 C  
HETATM    2  S   UNL     1     -10.486   7.925  67.102  1.00  0.00    -0.321 SA 
HETATM    3  CG2 UNL     1      -9.546   6.406  66.975  1.00  0.00    -0.142 C  
HETATM    4  CB  UNL     1      -8.389   6.212  67.951  1.00  0.00    -0.117 C  
HETATM    5  O   UNL     1      -8.409   9.503  70.935  1.00  0.00    -0.280 OA 
HETATM    6  CA  UNL     1      -8.247   6.928  69.108  1.00  0.00    -0.121 C  
HETATM    7  N   UNL     1      -9.147   7.918  69.409  1.00  0.00    -0.146 N  
HETATM    8  CA  UNL     1     -10.557   9.441  69.504  1.00  0.00    -0.222 C  
HETATM    9  C   UNL     1      -7.108   6.638  70.074  1.00  0.00    -0.071 C  
HETATM   10  C   UNL     1      -9.223   9.012  70.188  1.00  0.00    -0.192 C  
HETATM   11  OXT UNL     1      -6.575   5.543  70.176  1.00  0.00    -0.039 OA 
HETATM   12  O   UNL     1      -6.703   7.642  70.875  1.00  0.00    -0.042 OA 
ENDROOT
BRANCH   4  13
HETATM   13  CG1 UNL     1      -7.407   5.224  67.465  1.00  0.00    -0.079 C  
HETATM   14  CD1 UNL     1      -7.656   4.054  66.856  1.00  0.00    -0.084 C  
ENDBRANCH   4  13
BRANCH   8  15
HETATM   15  N   UNL     1     -10.403  10.620  68.588  1.00  0.00    -0.176 N  
HETATM   16  H   UNL     1      -9.504  10.793  68.139  1.00  0.00     0.000 HD 
HETATM   17  C   UNL     1     -11.460  11.470  68.347  1.00  0.00    -0.298 C  
HETATM   18  O   UNL     1     -12.532  11.378  68.930  1.00  0.00    -0.386 OA 
BRANCH  17  19
HETATM   19  C   UNL     1     -11.226  12.608  67.350  1.00  0.00    -0.290 C  
BRANCH  19  20
HETATM   20  C   UNL     1     -11.497  12.393  65.930  1.00  0.00    -0.374 A  
HETATM   21  N   UNL     1     -10.330  11.071  62.893  1.00  0.00    -0.770 NA 
HETATM   22  C   UNL     1     -12.653  12.774  65.273  1.00  0.00    -0.393 A  
HETATM   23  N   UNL     1     -10.564  11.751  65.114  1.00  0.00    -0.273 NA 
HETATM   24  C   UNL     1     -11.013  11.656  63.887  1.00  0.00    -0.407 A  
HETATM   25  S   UNL     1     -12.568  12.329  63.619  1.00  0.00    -0.411 SA 
HETATM   26  H2  UNL     1     -10.742  11.025  61.961  1.00  0.00     0.000 HD 
HETATM   27  H1  UNL     1      -9.405  10.671  63.052  1.00  0.00     0.000 HD 
ENDBRANCH  19  20
BRANCH  19  28
HETATM   28  N   UNL     1     -10.778  13.803  67.631  1.00  0.00    -0.248 NA 
HETATM   29  H   UNL     1      -9.839  14.104  67.372  1.00  0.00     0.000 HD 
BRANCH  28  30
HETATM   30  O   UNL     1     -11.666  14.643  68.309  1.00  0.00    -0.314 OA 
BRANCH  30  31
HETATM   31  C   UNL     1     -10.930  15.372  69.297  1.00  0.00    -0.261 C  
HETATM   32  O   UNL     1     -11.415  16.254  71.509  1.00  0.00    -0.412 OA 
HETATM   33  C   UNL     1     -11.492  15.322  70.716  1.00  0.00    -0.325 C  
HETATM   34  O   UNL     1     -12.025  14.127  71.062  1.00  0.00    -0.333 OA 
ENDBRANCH  30  31
ENDBRANCH  28  30
ENDBRANCH  19  28
ENDBRANCH  17  19
ENDBRANCH   8  15
TORSDOF 7
ENDMDL
MODEL      105
REMARK 921   NORMALIZED FREE ENERGY PREDICTED BY IDOCK:   -5.31 KCAL/MOL
REMARK 922        TOTAL FREE ENERGY PREDICTED BY IDOCK:   -8.84 KCAL/MOL
REMARK 923 INTER-LIGAND FREE ENERGY PREDICTED BY IDOCK:   -7.12 KCAL/MOL
REMARK 924 INTRA-LIGAND FREE ENERGY PREDICTED BY IDOCK:   -1.72 KCAL/MOL
REMARK 927      BINDING AFFINITY PREDICTED BY RF-SCORE:    0.00 PKD
ROOT
HETATM    1  C   UNL     1      -9.695  11.109  68.198  1.00  0.00    -0.181 C  
HETATM    2  S   UNL     1     -10.848  10.787  66.865  1.00  0.00    -0.186 SA 
HETATM    3  CG2 UNL     1     -10.340   9.094  66.572  1.00  0.00    -0.199 C  
HETATM    4  CB  UNL     1      -8.847   8.787  66.642  1.00  0.00    -0.153 C  
HETATM    5  O   UNL     1      -6.665  12.385  68.068  1.00  0.00    -0.066 OA 
HETATM    6  CA  UNL     1      -7.933   9.608  67.242  1.00  0.00    -0.106 C  
HETATM    7  N   UNL     1      -8.340  10.806  67.772  1.00  0.00    -0.112 N  
HETATM    8  CA  UNL     1      -9.224  12.601  68.329  1.00  0.00    -0.184 C  
HETATM    9  C   UNL     1      -6.468   9.211  67.340  1.00  0.00    -0.064 C  
HETATM   10  C   UNL     1      -7.806  11.987  68.130  1.00  0.00    -0.145 C  
HETATM   11  OXT UNL     1      -6.086   8.050  67.362  1.00  0.00    -0.048 OA 
HETATM   12  O   UNL     1      -5.561  10.202  67.441  1.00  0.00    -0.041 OA 
ENDROOT
BRANCH   4  13
HETATM   13  CG1 UNL     1      -8.498   7.547  65.922  1.00  0.00    -0.153 C  
HETATM   14  CD1 UNL     1      -9.030   6.327  66.087  1.00  0.00    -0.164 C  
ENDBRANCH   4  13
BRANCH   8  15
HETATM   15  N   UNL     1      -9.606  13.576  67.254  1.00  0.00    -0.228 N  
HETATM   16  H   UNL     1     -10.095  13.243  66.423  1.00  0.00     0.000 HD 
HETATM   17  C   UNL     1      -9.305  14.916  67.374  1.00  0.00    -0.199 C  
HETATM   18  O   UNL     1      -8.634  15.364  68.294  1.00  0.00    -0.153 OA 
BRANCH  17  19
HETATM   19  C   UNL     1      -9.789  15.843  66.256  1.00  0.00    -0.302 C  
BRANCH  19  20
HETATM   20  C   UNL     1      -9.359  17.240  66.238  1.00  0.00    -0.223 A  
HETATM   21  N   UNL     1      -6.756  19.493  65.545  1.00  0.00    -0.271 NA 
HETATM   22  C   UNL     1     -10.147  18.321  66.589  1.00  0.00    -0.375 A  
HETATM   23  N   UNL     1      -8.066  17.583  65.838  1.00  0.00    -0.555 NA 
HETATM   24  C   UNL     1      -7.899  18.882  65.889  1.00  0.00    -0.086 A  
HETATM   25  S   UNL     1      -9.260  19.779  66.421  1.00  0.00    -0.390 SA 
HETATM   26  H2  UNL     1      -6.695  20.510  65.602  1.00  0.00     0.000 HD 
HETATM   27  H1  UNL     1      -5.946  18.960  65.229  1.00  0.00     0.000 HD 
ENDBRANCH  19  20
BRANCH  19  28
HETATM   28  N   UNL     1     -10.591  15.520  65.276  1.00  0.00    -0.399 NA 
HETATM   29  H   UNL     1     -11.366  16.119  64.991  1.00  0.00     0.000 HD 
BRANCH  28  30
HETATM   30  O   UNL     1     -10.322  14.304  64.644  1.00  0.00    -0.417 OA 
BRANCH  30  31
HETATM   31  C   UNL     1     -11.523  13.850  64.011  1.00  0.00    -0.158 C  
HETATM   32  O   UNL     1     -13.296  12.290  64.587  1.00  0.00    -0.717 OA 
HETATM   33  C   UNL     1     -12.559  13.207  64.932  1.00  0.00    -0.407 C  
HETATM   34  O   UNL     1     -12.652  13.784  66.153  1.00  0.00    -0.438 OA 
ENDBRANCH  30  31
ENDBRANCH  28  30
ENDBRANCH  19  28
ENDBRANCH  17  19
ENDBRANCH   8  15
TORSDOF 7
ENDMDL
MODEL      106
REMARK 921   NORMALIZED FREE ENERGY PREDICTED BY IDOCK:   -5.30 KCAL/MOL
REMARK 922        TOTAL FREE ENERGY PREDICTED BY IDOCK:   -8.82 KCAL/MOL
REMARK 923 INTER-LIGAND FREE ENERGY PREDICTED BY IDOCK:   -7.45 KCAL/MOL
REMARK 924 INTRA-LIGAND FREE ENERGY PREDICTED BY IDOCK:   -1.37 KCAL/MOL
REMARK 927      BINDING AFFINITY PREDICTED BY RF-SCORE:    0.00 PKD
ROOT
HETATM    1  C   UNL     1     -10.737  15.314  68.557  1.00  0.00    -0.247 C  
HETATM    2  S   UNL     1      -9.038  15.237  69.121  1.00  0.00    -0.231 SA 
HETATM    3  CG2 UNL     1      -8.596  16.906  68.641  1.00  0.00    -0.267 C  
HETATM    4  CB  UNL     1      -9.141  17.421  67.312  1.00  0.00    -0.239 C  
HETATM    5  O   UNL     1     -12.003  14.462  65.642  1.00  0.00    -0.364 OA 
HETATM    6  CA  UNL     1     -10.197  16.851  66.654  1.00  0.00    -0.312 C  
HETATM    7  N   UNL     1     -10.784  15.721  67.162  1.00  0.00    -0.318 N  
HETATM    8  CA  UNL     1     -11.348  13.947  68.085  1.00  0.00    -0.295 C  
HETATM    9  C   UNL     1     -10.736  17.455  65.367  1.00  0.00    -0.035 C  
HETATM   10  C   UNL     1     -11.556  14.705  66.739  1.00  0.00    -0.360 C  
HETATM   11  OXT UNL     1     -10.649  18.643  65.092  1.00  0.00    -0.362 OA 
HETATM   12  O   UNL     1     -11.373  16.631  64.513  1.00  0.00    -0.877 OA 
ENDROOT
BRANCH   4  13
HETATM   13  CG1 UNL     1      -8.353  18.552  66.785  1.00  0.00    -0.279 C  
HETATM   14  CD1 UNL     1      -8.271  19.795  67.283  1.00  0.00    -0.341 C  
ENDBRANCH   4  13
BRANCH   8  15
HETATM   15  N   UNL     1     -10.443  12.756  67.963  1.00  0.00    -0.220 N  
HETATM   16  H   UNL     1      -9.440  12.869  68.106  1.00  0.00     0.000 HD 
HETATM   17  C   UNL     1     -10.951  11.511  67.660  1.00  0.00    -0.242 C  
HETATM   18  O   UNL     1     -12.127  11.325  67.379  1.00  0.00    -0.450 OA 
BRANCH  17  19
HETATM   19  C   UNL     1      -9.960  10.345  67.619  1.00  0.00    -0.174 C  
BRANCH  19  20
HETATM   20  C   UNL     1      -8.912  10.250  68.633  1.00  0.00    -0.144 A  
HETATM   21  N   UNL     1      -6.134  11.793  70.128  1.00  0.00    -0.194 NA 
HETATM   22  C   UNL     1      -8.751   9.197  69.516  1.00  0.00    -0.140 A  
HETATM   23  N   UNL     1      -7.970  11.269  68.785  1.00  0.00    -0.147 NA 
HETATM   24  C   UNL     1      -7.135  10.984  69.753  1.00  0.00    -0.047 A  
HETATM   25  S   UNL     1      -7.406   9.485  70.540  1.00  0.00    -0.123 SA 
HETATM   26  H2  UNL     1      -5.523  11.512  70.895  1.00  0.00     0.000 HD 
HETATM   27  H1  UNL     1      -5.972  12.684  69.659  1.00  0.00     0.000 HD 
ENDBRANCH  19  20
BRANCH  19  28
HETATM   28  N   UNL     1      -9.931   9.385  66.732  1.00  0.00    -0.220 NA 
HETATM   29  H   UNL     1     -10.527   8.561  66.807  1.00  0.00     0.000 HD 
BRANCH  28  30
HETATM   30  O   UNL     1      -9.034   9.558  65.676  1.00  0.00    -0.158 OA 
BRANCH  30  31
HETATM   31  C   UNL     1      -9.786   9.756  64.474  1.00  0.00    -0.039 C  
HETATM   32  O   UNL     1      -9.382  10.859  62.346  1.00  0.00    -0.266 OA 
HETATM   33  C   UNL     1      -8.973  10.117  63.232  1.00  0.00    -0.247 C  
HETATM   34  O   UNL     1      -7.777   9.488  63.148  1.00  0.00    -0.118 OA 
ENDBRANCH  30  31
ENDBRANCH  28  30
ENDBRANCH  19  28
ENDBRANCH  17  19
ENDBRANCH   8  15
TORSDOF 7
ENDMDL
MODEL      107
REMARK 921   NORMALIZED FREE ENERGY PREDICTED BY IDOCK:   -5.30 KCAL/MOL
REMARK 922        TOTAL FREE ENERGY PREDICTED BY IDOCK:   -8.82 KCAL/MOL
REMARK 923 INTER-LIGAND FREE ENERGY PREDICTED BY IDOCK:   -7.56 KCAL/MOL
REMARK 924 INTRA-LIGAND FREE ENERGY PREDICTED BY IDOCK:   -1.26 KCAL/MOL
REMARK 927      BINDING AFFINITY PREDICTED BY RF-SCORE:    0.00 PKD
ROOT
HETATM    1  C   UNL     1      -8.937  11.086  67.479  1.00  0.00    -0.137 C  
HETATM    2  S   UNL     1      -8.098   9.623  66.875  1.00  0.00    -0.113 SA 
HETATM    3  CG2 UNL     1      -8.025  10.133  65.158  1.00  0.00    -0.146 C  
HETATM    4  CB  UNL     1      -9.249  10.840  64.584  1.00  0.00    -0.249 C  
HETATM    5  O   UNL     1     -12.160  11.636  67.844  1.00  0.00    -0.613 OA 
HETATM    6  CA  UNL     1     -10.224  11.412  65.355  1.00  0.00    -0.270 C  
HETATM    7  N   UNL     1     -10.156  11.313  66.721  1.00  0.00    -0.213 N  
HETATM    8  CA  UNL     1      -9.862  10.859  68.727  1.00  0.00    -0.196 C  
HETATM    9  C   UNL     1     -11.384  12.163  64.720  1.00  0.00    -0.325 C  
HETATM   10  C   UNL     1     -10.973  11.412  67.784  1.00  0.00    -0.247 C  
HETATM   11  OXT UNL     1     -11.312  12.719  63.634  1.00  0.00    -0.433 OA 
HETATM   12  O   UNL     1     -12.532  12.241  65.421  1.00  0.00    -0.596 OA 
ENDROOT
BRANCH   4  13
HETATM   13  CG1 UNL     1      -9.295  10.768  63.111  1.00  0.00    -0.336 C  
HETATM   14  CD1 UNL     1      -9.129   9.684  62.339  1.00  0.00    -0.290 C  
ENDBRANCH   4  13
BRANCH   8  15
HETATM   15  N   UNL     1     -10.119   9.455  69.190  1.00  0.00    -0.188 N  
HETATM   16  H   UNL     1     -10.922   8.944  68.823  1.00  0.00     0.000 HD 
HETATM   17  C   UNL     1      -9.285   8.848  70.103  1.00  0.00    -0.180 C  
HETATM   18  O   UNL     1      -8.366   9.436  70.655  1.00  0.00    -0.186 OA 
BRANCH  17  19
HETATM   19  C   UNL     1      -9.591   7.392  70.468  1.00  0.00    -0.172 C  
BRANCH  19  20
HETATM   20  C   UNL     1      -8.917   6.311  69.754  1.00  0.00    -0.140 A  
HETATM   21  N   UNL     1      -6.254   5.403  67.651  1.00  0.00    -0.033 NA 
HETATM   22  C   UNL     1      -9.299   4.982  69.775  1.00  0.00    -0.134 A  
HETATM   23  N   UNL     1      -7.785   6.565  68.976  1.00  0.00    -0.107 NA 
HETATM   24  C   UNL     1      -7.339   5.457  68.437  1.00  0.00    -0.072 A  
HETATM   25  S   UNL     1      -8.236   4.045  68.810  1.00  0.00    -0.074 SA 
HETATM   26  H2  UNL     1      -5.956   4.506  67.269  1.00  0.00     0.000 HD 
HETATM   27  H1  UNL     1      -5.720   6.244  67.429  1.00  0.00     0.000 HD 
ENDBRANCH  19  20
BRANCH  19  28
HETATM   28  N   UNL     1     -10.436   6.985  71.378  1.00  0.00    -0.209 NA 
HETATM   29  H   UNL     1     -10.652   5.997  71.512  1.00  0.00     0.000 HD 
BRANCH  28  30
HETATM   30  O   UNL     1     -11.024   7.985  72.155  1.00  0.00    -0.252 OA 
BRANCH  30  31
HETATM   31  C   UNL     1     -12.445   7.890  72.011  1.00  0.00    -0.304 C  
HETATM   32  O   UNL     1     -14.340   9.288  72.613  1.00  0.00    -0.497 OA 
HETATM   33  C   UNL     1     -13.216   9.203  72.131  1.00  0.00    -0.458 C  
HETATM   34  O   UNL     1     -12.583  10.271  71.591  1.00  0.00    -0.391 OA 
ENDBRANCH  30  31
ENDBRANCH  28  30
ENDBRANCH  19  28
ENDBRANCH  17  19
ENDBRANCH   8  15
TORSDOF 7
ENDMDL
MODEL      108
REMARK 921   NORMALIZED FREE ENERGY PREDICTED BY IDOCK:   -5.26 KCAL/MOL
REMARK 922        TOTAL FREE ENERGY PREDICTED BY IDOCK:   -8.77 KCAL/MOL
REMARK 923 INTER-LIGAND FREE ENERGY PREDICTED BY IDOCK:   -7.44 KCAL/MOL
REMARK 924 INTRA-LIGAND FREE ENERGY PREDICTED BY IDOCK:   -1.33 KCAL/MOL
REMARK 927      BINDING AFFINITY PREDICTED BY RF-SCORE:    0.00 PKD
ROOT
HETATM    1  C   UNL     1      -9.730  15.569  69.240  1.00  0.00    -0.272 C  
HETATM    2  S   UNL     1      -7.986  15.329  69.574  1.00  0.00    -0.130 SA 
HETATM    3  CG2 UNL     1      -7.453  16.939  68.995  1.00  0.00    -0.220 C  
HETATM    4  CB  UNL     1      -8.120  17.490  67.739  1.00  0.00    -0.221 C  
HETATM    5  O   UNL     1     -11.457  14.811  66.544  1.00  0.00    -0.352 OA 
HETATM    6  CA  UNL     1      -9.305  17.020  67.243  1.00  0.00    -0.237 C  
HETATM    7  N   UNL     1      -9.925  15.961  67.854  1.00  0.00    -0.220 N  
HETATM    8  CA  UNL     1     -10.530  14.264  68.890  1.00  0.00    -0.238 C  
HETATM    9  C   UNL     1      -9.953  17.659  66.024  1.00  0.00    -0.209 C  
HETATM   10  C   UNL     1     -10.844  15.022  67.565  1.00  0.00    -0.297 C  
HETATM   11  OXT UNL     1      -9.788  18.829  65.710  1.00  0.00    -0.464 OA 
HETATM   12  O   UNL     1     -10.777  16.892  65.285  1.00  0.00    -0.599 OA 
ENDROOT
BRANCH   4  13
HETATM   13  CG1 UNL     1      -7.303  18.529  67.082  1.00  0.00    -0.219 C  
HETATM   14  CD1 UNL     1      -6.059  18.406  66.596  1.00  0.00    -0.184 C  
ENDBRANCH   4  13
BRANCH   8  15
HETATM   15  N   UNL     1      -9.771  12.986  68.679  1.00  0.00    -0.403 N  
HETATM   16  H   UNL     1      -8.793  13.024  68.391  1.00  0.00     0.000 HD 
HETATM   17  C   UNL     1     -10.378  11.764  68.869  1.00  0.00    -0.128 C  
HETATM   18  O   UNL     1     -11.570  11.647  69.116  1.00  0.00    -0.258 OA 
BRANCH  17  19
HETATM   19  C   UNL     1      -9.507  10.518  68.690  1.00  0.00    -0.172 C  
BRANCH  19  20
HETATM   20  C   UNL     1      -8.547  10.458  67.590  1.00  0.00    -0.118 A  
HETATM   21  N   UNL     1      -5.648  11.825  66.154  1.00  0.00    -0.498 NA 
HETATM   22  C   UNL     1      -8.580   9.543  66.553  1.00  0.00    -0.134 A  
HETATM   23  N   UNL     1      -7.484  11.359  67.520  1.00  0.00    -0.106 NA 
HETATM   24  C   UNL     1      -6.746  11.120  66.464  1.00  0.00    -0.128 A  
HETATM   25  S   UNL     1      -7.271   9.818  65.480  1.00  0.00    -0.114 SA 
HETATM   26  H2  UNL     1      -5.115  11.582  65.319  1.00  0.00     0.000 HD 
HETATM   27  H1  UNL     1      -5.337  12.600  66.739  1.00  0.00     0.000 HD 
ENDBRANCH  19  20
BRANCH  19  28
HETATM   28  N   UNL     1      -9.531   9.444  69.435  1.00  0.00    -0.165 NA 
HETATM   29  H   UNL     1      -9.094   8.571  69.140  1.00  0.00     0.000 HD 
BRANCH  28  30
HETATM   30  O   UNL     1     -10.192   9.566  70.659  1.00  0.00    -0.265 OA 
BRANCH  30  31
HETATM   31  C   UNL     1     -11.168   8.524  70.750  1.00  0.00    -0.257 C  
HETATM   32  O   UNL     1     -11.433   6.315  69.771  1.00  0.00    -0.430 OA 
HETATM   33  C   UNL     1     -10.703   7.136  70.315  1.00  0.00    -0.238 C  
HETATM   34  O   UNL     1      -9.422   6.850  70.646  1.00  0.00    -0.165 OA 
ENDBRANCH  30  31
ENDBRANCH  28  30
ENDBRANCH  19  28
ENDBRANCH  17  19
ENDBRANCH   8  15
TORSDOF 7
ENDMDL
MODEL      109
REMARK 921   NORMALIZED FREE ENERGY PREDICTED BY IDOCK:   -5.26 KCAL/MOL
REMARK 922        TOTAL FREE ENERGY PREDICTED BY IDOCK:   -8.77 KCAL/MOL
REMARK 923 INTER-LIGAND FREE ENERGY PREDICTED BY IDOCK:   -7.10 KCAL/MOL
REMARK 924 INTRA-LIGAND FREE ENERGY PREDICTED BY IDOCK:   -1.67 KCAL/MOL
REMARK 927      BINDING AFFINITY PREDICTED BY RF-SCORE:    0.00 PKD
ROOT
HETATM    1  C   UNL     1      -9.057   6.583  67.575  1.00  0.00    -0.115 C  
HETATM    2  S   UNL     1     -10.780   6.297  67.175  1.00  0.00    -0.386 SA 
HETATM    3  CG2 UNL     1     -10.514   4.803  66.222  1.00  0.00    -0.269 C  
HETATM    4  CB  UNL     1      -9.299   4.766  65.301  1.00  0.00    -0.148 C  
HETATM    5  O   UNL     1      -6.820   8.390  65.976  1.00  0.00    -0.063 OA 
HETATM    6  CA  UNL     1      -8.236   5.620  65.413  1.00  0.00    -0.132 C  
HETATM    7  N   UNL     1      -8.259   6.611  66.361  1.00  0.00    -0.112 N  
HETATM    8  CA  UNL     1      -8.655   8.089  67.766  1.00  0.00    -0.128 C  
HETATM    9  C   UNL     1      -7.023   5.485  64.507  1.00  0.00    -0.049 C  
HETATM   10  C   UNL     1      -7.656   7.788  66.608  1.00  0.00    -0.097 C  
HETATM   11  OXT UNL     1      -6.674   4.427  64.002  1.00  0.00    -0.041 OA 
HETATM   12  O   UNL     1      -6.285   6.590  64.288  1.00  0.00    -0.035 OA 
ENDROOT
BRANCH   4  13
HETATM   13  CG1 UNL     1      -9.438   3.757  64.233  1.00  0.00    -0.158 C  
HETATM   14  CD1 UNL     1     -10.527   3.490  63.495  1.00  0.00    -0.252 C  
ENDBRANCH   4  13
BRANCH   8  15
HETATM   15  N   UNL     1      -9.658   9.153  67.425  1.00  0.00    -0.146 N  
HETATM   16  H   UNL     1     -10.534   8.891  66.973  1.00  0.00     0.000 HD 
HETATM   17  C   UNL     1      -9.409  10.477  67.715  1.00  0.00    -0.149 C  
HETATM   18  O   UNL     1      -8.341  10.868  68.163  1.00  0.00    -0.114 OA 
BRANCH  17  19
HETATM   19  C   UNL     1     -10.517  11.482  67.387  1.00  0.00    -0.209 C  
BRANCH  19  20
HETATM   20  C   UNL     1     -10.731  11.895  66.001  1.00  0.00    -0.285 A  
HETATM   21  N   UNL     1      -9.527  11.818  62.703  1.00  0.00    -0.529 NA 
HETATM   22  C   UNL     1     -11.812  12.627  65.546  1.00  0.00    -0.431 A  
HETATM   23  N   UNL     1      -9.816  11.551  65.004  1.00  0.00    -0.252 NA 
HETATM   24  C   UNL     1     -10.208  12.012  63.842  1.00  0.00    -0.398 A  
HETATM   25  S   UNL     1     -11.680  12.891  63.857  1.00  0.00    -0.493 SA 
HETATM   26  H2  UNL     1      -9.892  12.200  61.830  1.00  0.00     0.000 HD 
HETATM   27  H1  UNL     1      -8.651  11.296  62.694  1.00  0.00     0.000 HD 
ENDBRANCH  19  20
BRANCH  19  28
HETATM   28  N   UNL     1     -11.323  12.051  68.243  1.00  0.00    -0.262 NA 
HETATM   29  H   UNL     1     -11.240  13.036  68.493  1.00  0.00     0.000 HD 
BRANCH  28  30
HETATM   30  O   UNL     1     -12.306  11.227  68.795  1.00  0.00    -0.518 OA 
BRANCH  30  31
HETATM   31  C   UNL     1     -12.141  11.219  70.217  1.00  0.00    -0.373 C  
HETATM   32  O   UNL     1     -12.325   9.544  71.968  1.00  0.00    -0.368 OA 
HETATM   33  C   UNL     1     -11.916   9.849  70.854  1.00  0.00    -0.345 C  
HETATM   34  O   UNL     1     -11.157   9.009  70.112  1.00  0.00    -0.239 OA 
ENDBRANCH  30  31
ENDBRANCH  28  30
ENDBRANCH  19  28
ENDBRANCH  17  19
ENDBRANCH   8  15
TORSDOF 7
ENDMDL
MODEL      110
REMARK 921   NORMALIZED FREE ENERGY PREDICTED BY IDOCK:   -5.24 KCAL/MOL
REMARK 922        TOTAL FREE ENERGY PREDICTED BY IDOCK:   -8.73 KCAL/MOL
REMARK 923 INTER-LIGAND FREE ENERGY PREDICTED BY IDOCK:   -7.53 KCAL/MOL
REMARK 924 INTRA-LIGAND FREE ENERGY PREDICTED BY IDOCK:   -1.21 KCAL/MOL
REMARK 927      BINDING AFFINITY PREDICTED BY RF-SCORE:    0.00 PKD
ROOT
HETATM    1  C   UNL     1      -8.358  10.293  69.459  1.00  0.00    -0.151 C  
HETATM    2  S   UNL     1     -10.113  10.084  69.756  1.00  0.00    -0.241 SA 
HETATM    3  CG2 UNL     1     -10.037   8.340  70.159  1.00  0.00    -0.191 C  
HETATM    4  CB  UNL     1      -9.096   7.469  69.333  1.00  0.00    -0.142 C  
HETATM    5  O   UNL     1      -6.680  10.048  66.639  1.00  0.00    -0.077 OA 
HETATM    6  CA  UNL     1      -8.076   7.969  68.570  1.00  0.00    -0.125 C  
HETATM    7  N   UNL     1      -7.898   9.325  68.478  1.00  0.00    -0.089 N  
HETATM    8  CA  UNL     1      -7.985  11.400  68.410  1.00  0.00    -0.142 C  
HETATM    9  C   UNL     1      -7.128   7.041  67.824  1.00  0.00    -0.085 C  
HETATM   10  C   UNL     1      -7.302  10.214  67.663  1.00  0.00    -0.089 C  
HETATM   11  OXT UNL     1      -6.876   5.902  68.189  1.00  0.00    -0.062 OA 
HETATM   12  O   UNL     1      -6.517   7.529  66.727  1.00  0.00    -0.053 OA 
ENDROOT
BRANCH   4  13
HETATM   13  CG1 UNL     1      -9.460   6.040  69.392  1.00  0.00    -0.155 C  
HETATM   14  CD1 UNL     1     -10.689   5.505  69.325  1.00  0.00    -0.288 C  
ENDBRANCH   4  13
BRANCH   8  15
HETATM   15  N   UNL     1      -9.084  12.046  67.618  1.00  0.00    -0.173 N  
HETATM   16  H   UNL     1      -9.976  11.563  67.509  1.00  0.00     0.000 HD 
HETATM   17  C   UNL     1      -8.905  13.283  67.038  1.00  0.00    -0.212 C  
HETATM   18  O   UNL     1      -7.831  13.869  67.045  1.00  0.00    -0.078 OA 
BRANCH  17  19
HETATM   19  C   UNL     1     -10.103  13.889  66.303  1.00  0.00    -0.300 C  
BRANCH  19  20
HETATM   20  C   UNL     1     -10.734  13.147  65.214  1.00  0.00    -0.303 A  
HETATM   21  N   UNL     1     -10.324  10.751  62.679  1.00  0.00    -0.759 NA 
HETATM   22  C   UNL     1     -12.061  13.256  64.839  1.00  0.00    -0.397 A  
HETATM   23  N   UNL     1     -10.002  12.234  64.454  1.00  0.00    -0.243 NA 
HETATM   24  C   UNL     1     -10.762  11.678  63.543  1.00  0.00    -0.428 A  
HETATM   25  S   UNL     1     -12.392  12.209  63.522  1.00  0.00    -0.509 SA 
HETATM   26  H2  UNL     1     -10.971  10.354  61.998  1.00  0.00     0.000 HD 
HETATM   27  H1  UNL     1      -9.354  10.436  62.691  1.00  0.00     0.000 HD 
ENDBRANCH  19  20
BRANCH  19  28
HETATM   28  N   UNL     1     -10.647  15.054  66.539  1.00  0.00    -0.298 NA 
HETATM   29  H   UNL     1     -11.493  15.153  67.100  1.00  0.00     0.000 HD 
BRANCH  28  30
HETATM   30  O   UNL     1      -9.997  16.155  65.977  1.00  0.00    -0.305 OA 
BRANCH  30  31
HETATM   31  C   UNL     1     -10.261  17.300  66.794  1.00  0.00    -0.318 C  
HETATM   32  O   UNL     1     -10.035  19.704  66.523  1.00  0.00    -0.368 OA 
HETATM   33  C   UNL     1     -10.392  18.630  66.055  1.00  0.00    -0.399 C  
HETATM   34  O   UNL     1     -11.010  18.539  64.853  1.00  0.00    -0.547 OA 
ENDBRANCH  30  31
ENDBRANCH  28  30
ENDBRANCH  19  28
ENDBRANCH  17  19
ENDBRANCH   8  15
TORSDOF 7
ENDMDL
MODEL      111
REMARK 921   NORMALIZED FREE ENERGY PREDICTED BY IDOCK:   -5.23 KCAL/MOL
REMARK 922        TOTAL FREE ENERGY PREDICTED BY IDOCK:   -8.72 KCAL/MOL
REMARK 923 INTER-LIGAND FREE ENERGY PREDICTED BY IDOCK:   -7.79 KCAL/MOL
REMARK 924 INTRA-LIGAND FREE ENERGY PREDICTED BY IDOCK:   -0.93 KCAL/MOL
REMARK 927      BINDING AFFINITY PREDICTED BY RF-SCORE:    0.00 PKD
ROOT
HETATM    1  C   UNL     1      -9.166  14.874  66.472  1.00  0.00    -0.285 C  
HETATM    2  S   UNL     1     -10.918  15.167  66.708  1.00  0.00    -0.304 SA 
HETATM    3  CG2 UNL     1     -10.779  16.920  67.054  1.00  0.00    -0.153 C  
HETATM    4  CB  UNL     1      -9.607  17.373  67.920  1.00  0.00    -0.267 C  
HETATM    5  O   UNL     1      -6.899  13.930  68.662  1.00  0.00    -0.088 OA 
HETATM    6  CA  UNL     1      -8.494  16.611  68.147  1.00  0.00    -0.198 C  
HETATM    7  N   UNL     1      -8.420  15.345  67.627  1.00  0.00    -0.156 N  
HETATM    8  CA  UNL     1      -8.671  13.433  66.852  1.00  0.00    -0.142 C  
HETATM    9  C   UNL     1      -7.329  17.150  68.964  1.00  0.00    -0.217 C  
HETATM   10  C   UNL     1      -7.741  14.203  67.838  1.00  0.00    -0.158 C  
HETATM   11  OXT UNL     1      -7.063  18.339  69.053  1.00  0.00    -0.271 OA 
HETATM   12  O   UNL     1      -6.539  16.253  69.585  1.00  0.00    -0.201 OA 
ENDROOT
BRANCH   4  13
HETATM   13  CG1 UNL     1      -9.849  18.689  68.543  1.00  0.00    -0.427 C  
HETATM   14  CD1 UNL     1     -10.144  19.844  67.927  1.00  0.00    -0.571 C  
ENDBRANCH   4  13
BRANCH   8  15
HETATM   15  N   UNL     1      -9.624  12.500  67.540  1.00  0.00    -0.183 N  
HETATM   16  H   UNL     1     -10.182  12.839  68.324  1.00  0.00     0.000 HD 
HETATM   17  C   UNL     1      -9.756  11.193  67.125  1.00  0.00    -0.177 C  
HETATM   18  O   UNL     1      -9.049  10.697  66.260  1.00  0.00    -0.159 OA 
BRANCH  17  19
HETATM   19  C   UNL     1     -10.799  10.334  67.847  1.00  0.00    -0.284 C  
BRANCH  19  20
HETATM   20  C   UNL     1     -10.489   8.944  68.175  1.00  0.00    -0.202 A  
HETATM   21  N   UNL     1      -9.252   6.709  70.585  1.00  0.00    -0.158 NA 
HETATM   22  C   UNL     1     -10.701   7.862  67.340  1.00  0.00    -0.208 A  
HETATM   23  N   UNL     1      -9.941   8.608  69.414  1.00  0.00    -0.192 NA 
HETATM   24  C   UNL     1      -9.753   7.314  69.499  1.00  0.00    -0.158 A  
HETATM   25  S   UNL     1     -10.205   6.413  68.112  1.00  0.00    -0.188 SA 
HETATM   26  H2  UNL     1      -9.137   5.696  70.587  1.00  0.00     0.000 HD 
HETATM   27  H1  UNL     1      -8.982   7.245  71.410  1.00  0.00     0.000 HD 
ENDBRANCH  19  20
BRANCH  19  28
HETATM   28  N   UNL     1     -11.995  10.713  68.211  1.00  0.00    -0.814 NA 
HETATM   29  H   UNL     1     -12.790  10.681  67.573  1.00  0.00     0.000 HD 
BRANCH  28  30
HETATM   30  O   UNL     1     -12.118  11.165  69.527  1.00  0.00    -0.322 OA 
BRANCH  30  31
HETATM   31  C   UNL     1     -13.016  10.292  70.220  1.00  0.00    -0.001 C  
HETATM   32  O   UNL     1     -13.382   9.683  72.544  1.00  0.00    -0.390 OA 
HETATM   33  C   UNL     1     -13.187  10.563  71.714  1.00  0.00    -0.417 C  
HETATM   34  O   UNL     1     -13.179  11.875  72.045  1.00  0.00    -0.495 OA 
ENDBRANCH  30  31
ENDBRANCH  28  30
ENDBRANCH  19  28
ENDBRANCH  17  19
ENDBRANCH   8  15
TORSDOF 7
ENDMDL
MODEL      112
REMARK 921   NORMALIZED FREE ENERGY PREDICTED BY IDOCK:   -5.23 KCAL/MOL
REMARK 922        TOTAL FREE ENERGY PREDICTED BY IDOCK:   -8.72 KCAL/MOL
REMARK 923 INTER-LIGAND FREE ENERGY PREDICTED BY IDOCK:   -7.46 KCAL/MOL
REMARK 924 INTRA-LIGAND FREE ENERGY PREDICTED BY IDOCK:   -1.26 KCAL/MOL
REMARK 927      BINDING AFFINITY PREDICTED BY RF-SCORE:    0.00 PKD
ROOT
HETATM    1  C   UNL     1     -11.404  10.606  67.382  1.00  0.00    -0.105 C  
HETATM    2  S   UNL     1      -9.908  10.439  66.410  1.00  0.00    -0.223 SA 
HETATM    3  CG2 UNL     1      -9.510   8.777  66.948  1.00  0.00    -0.177 C  
HETATM    4  CB  UNL     1      -9.738   8.442  68.419  1.00  0.00    -0.168 C  
HETATM    5  O   UNL     1     -11.795  11.841  70.406  1.00  0.00    -0.343 OA 
HETATM    6  CA  UNL     1     -10.532   9.183  69.250  1.00  0.00    -0.221 C  
HETATM    7  N   UNL     1     -11.126  10.326  68.781  1.00  0.00    -0.237 N  
HETATM    8  CA  UNL     1     -11.747  12.070  67.835  1.00  0.00    -0.323 C  
HETATM    9  C   UNL     1     -10.775   8.755  70.689  1.00  0.00    -0.225 C  
HETATM   10  C   UNL     1     -11.669  11.457  69.267  1.00  0.00    -0.337 C  
HETATM   11  OXT UNL     1     -10.726   7.593  71.063  1.00  0.00    -0.224 OA 
HETATM   12  O   UNL     1     -11.093   9.717  71.577  1.00  0.00    -0.370 OA 
ENDROOT
BRANCH   4  13
HETATM   13  CG1 UNL     1      -8.945   7.276  68.856  1.00  0.00    -0.133 C  
HETATM   14  CD1 UNL     1      -7.627   7.229  69.104  1.00  0.00    -0.102 C  
ENDBRANCH   4  13
BRANCH   8  15
HETATM   15  N   UNL     1     -10.738  13.155  67.598  1.00  0.00    -0.236 N  
HETATM   16  H   UNL     1      -9.874  12.938  67.100  1.00  0.00     0.000 HD 
HETATM   17  C   UNL     1     -10.964  14.440  68.042  1.00  0.00    -0.258 C  
HETATM   18  O   UNL     1     -11.929  14.743  68.730  1.00  0.00    -0.304 OA 
BRANCH  17  19
HETATM   19  C   UNL     1      -9.907  15.492  67.698  1.00  0.00    -0.213 C  
BRANCH  19  20
HETATM   20  C   UNL     1      -8.537  15.327  68.181  1.00  0.00    -0.160 A  
HETATM   21  N   UNL     1      -6.470  14.328  70.839  1.00  0.00    -0.373 NA 
HETATM   22  C   UNL     1      -7.396  15.603  67.451  1.00  0.00    -0.204 A  
HETATM   23  N   UNL     1      -8.288  14.849  69.469  1.00  0.00    -0.088 NA 
HETATM   24  C   UNL     1      -6.998  14.770  69.688  1.00  0.00    -0.172 A  
HETATM   25  S   UNL     1      -5.999  15.266  68.386  1.00  0.00    -0.116 SA 
HETATM   26  H2  UNL     1      -5.456  14.286  70.942  1.00  0.00     0.000 HD 
HETATM   27  H1  UNL     1      -7.065  14.034  71.614  1.00  0.00     0.000 HD 
ENDBRANCH  19  20
BRANCH  19  28
HETATM   28  N   UNL     1     -10.097  16.581  67.000  1.00  0.00    -0.272 NA 
HETATM   29  H   UNL     1      -9.663  17.468  67.252  1.00  0.00     0.000 HD 
BRANCH  28  30
HETATM   30  O   UNL     1     -10.932  16.453  65.888  1.00  0.00    -0.158 OA 
BRANCH  30  31
HETATM   31  C   UNL     1     -10.381  15.454  65.024  1.00  0.00    -0.329 C  
HETATM   32  O   UNL     1     -11.104  13.279  64.215  1.00  0.00    -0.367 OA 
HETATM   33  C   UNL     1     -11.377  14.452  64.443  1.00  0.00    -0.251 C  
HETATM   34  O   UNL     1     -12.581  14.984  64.128  1.00  0.00    -0.770 OA 
ENDBRANCH  30  31
ENDBRANCH  28  30
ENDBRANCH  19  28
ENDBRANCH  17  19
ENDBRANCH   8  15
TORSDOF 7
ENDMDL
MODEL      113
REMARK 921   NORMALIZED FREE ENERGY PREDICTED BY IDOCK:   -5.22 KCAL/MOL
REMARK 922        TOTAL FREE ENERGY PREDICTED BY IDOCK:   -8.71 KCAL/MOL
REMARK 923 INTER-LIGAND FREE ENERGY PREDICTED BY IDOCK:   -7.38 KCAL/MOL
REMARK 924 INTRA-LIGAND FREE ENERGY PREDICTED BY IDOCK:   -1.33 KCAL/MOL
REMARK 927      BINDING AFFINITY PREDICTED BY RF-SCORE:    0.00 PKD
ROOT
HETATM    1  C   UNL     1     -10.148   8.706  66.629  1.00  0.00    -0.294 C  
HETATM    2  S   UNL     1     -10.668  10.257  67.360  1.00  0.00    -0.269 SA 
HETATM    3  CG2 UNL     1      -9.331  11.246  66.693  1.00  0.00    -0.180 C  
HETATM    4  CB  UNL     1      -7.940  10.619  66.667  1.00  0.00    -0.134 C  
HETATM    5  O   UNL     1      -8.219   6.356  67.887  1.00  0.00    -0.114 OA 
HETATM    6  CA  UNL     1      -7.713   9.274  66.781  1.00  0.00    -0.094 C  
HETATM    7  N   UNL     1      -8.768   8.423  66.986  1.00  0.00    -0.124 N  
HETATM    8  CA  UNL     1     -10.529   7.420  67.446  1.00  0.00    -0.296 C  
HETATM    9  C   UNL     1      -6.306   8.706  66.678  1.00  0.00    -0.059 C  
HETATM   10  C   UNL     1      -8.989   7.180  67.450  1.00  0.00    -0.122 C  
HETATM   11  OXT UNL     1      -5.408   9.243  66.045  1.00  0.00    -0.039 OA 
HETATM   12  O   UNL     1      -6.064   7.531  67.291  1.00  0.00    -0.044 OA 
ENDROOT
BRANCH   4  13
HETATM   13  CG1 UNL     1      -6.871  11.633  66.584  1.00  0.00    -0.032 C  
HETATM   14  CD1 UNL     1      -6.355  12.364  67.584  1.00  0.00    -0.131 C  
ENDBRANCH   4  13
BRANCH   8  15
HETATM   15  N   UNL     1     -11.108   7.584  68.821  1.00  0.00    -0.421 N  
HETATM   16  H   UNL     1     -11.342   8.517  69.160  1.00  0.00     0.000 HD 
HETATM   17  C   UNL     1     -11.329   6.490  69.630  1.00  0.00    -0.380 C  
HETATM   18  O   UNL     1     -10.980   5.359  69.324  1.00  0.00    -0.168 OA 
BRANCH  17  19
HETATM   19  C   UNL     1     -11.982   6.749  70.990  1.00  0.00    -0.379 C  
BRANCH  19  20
HETATM   20  C   UNL     1     -11.232   6.477  72.215  1.00  0.00    -0.273 A  
HETATM   21  N   UNL     1      -8.918   7.689  74.562  1.00  0.00    -0.434 NA 
HETATM   22  C   UNL     1     -11.315   5.314  72.958  1.00  0.00    -0.309 A  
HETATM   23  N   UNL     1     -10.351   7.426  72.738  1.00  0.00    -0.232 NA 
HETATM   24  C   UNL     1      -9.797   6.981  73.839  1.00  0.00    -0.316 A  
HETATM   25  S   UNL     1     -10.277   5.407  74.320  1.00  0.00    -0.280 SA 
HETATM   26  H2  UNL     1      -8.528   7.285  75.414  1.00  0.00     0.000 HD 
HETATM   27  H1  UNL     1      -8.632   8.625  74.276  1.00  0.00     0.000 HD 
ENDBRANCH  19  20
BRANCH  19  28
HETATM   28  N   UNL     1     -13.193   7.194  71.195  1.00  0.00    -0.538 NA 
HETATM   29  H   UNL     1     -13.953   7.018  70.538  1.00  0.00     0.000 HD 
BRANCH  28  30
HETATM   30  O   UNL     1     -13.383   7.927  72.369  1.00  0.00    -0.091 OA 
BRANCH  30  31
HETATM   31  C   UNL     1     -13.987   9.179  72.025  1.00  0.00    -0.371 C  
HETATM   32  O   UNL     1     -13.240  11.490  71.938  1.00  0.00    -0.485 OA 
HETATM   33  C   UNL     1     -13.022  10.312  71.682  1.00  0.00    -0.465 C  
HETATM   34  O   UNL     1     -11.922   9.917  70.997  1.00  0.00    -0.311 OA 
ENDBRANCH  30  31
ENDBRANCH  28  30
ENDBRANCH  19  28
ENDBRANCH  17  19
ENDBRANCH   8  15
TORSDOF 7
ENDMDL
MODEL      114
REMARK 921   NORMALIZED FREE ENERGY PREDICTED BY IDOCK:   -5.22 KCAL/MOL
REMARK 922        TOTAL FREE ENERGY PREDICTED BY IDOCK:   -8.70 KCAL/MOL
REMARK 923 INTER-LIGAND FREE ENERGY PREDICTED BY IDOCK:   -9.19 KCAL/MOL
REMARK 924 INTRA-LIGAND FREE ENERGY PREDICTED BY IDOCK:    0.48 KCAL/MOL
REMARK 927      BINDING AFFINITY PREDICTED BY RF-SCORE:    0.00 PKD
ROOT
HETATM    1  C   UNL     1      -9.287  13.655  66.864  1.00  0.00    -0.257 C  
HETATM    2  S   UNL     1      -8.544  12.479  67.992  1.00  0.00    -0.191 SA 
HETATM    3  CG2 UNL     1      -8.016  11.312  66.739  1.00  0.00    -0.159 C  
HETATM    4  CB  UNL     1      -8.970  11.052  65.577  1.00  0.00    -0.208 C  
HETATM    5  O   UNL     1     -12.402  13.861  65.825  1.00  0.00    -0.430 OA 
HETATM    6  CA  UNL     1     -10.005  11.883  65.246  1.00  0.00    -0.251 C  
HETATM    7  N   UNL     1     -10.260  12.989  66.015  1.00  0.00    -0.282 N  
HETATM    8  CA  UNL     1     -10.492  14.475  67.449  1.00  0.00    -0.264 C  
HETATM    9  C   UNL     1     -10.877  11.603  64.031  1.00  0.00    -0.392 C  
HETATM   10  C   UNL     1     -11.275  13.837  66.262  1.00  0.00    -0.306 C  
HETATM   11  OXT UNL     1     -10.486  10.990  63.049  1.00  0.00    -0.238 OA 
HETATM   12  O   UNL     1     -12.131  12.094  64.041  1.00  0.00    -0.414 OA 
ENDROOT
BRANCH   4  13
HETATM   13  CG1 UNL     1      -8.693   9.768  64.903  1.00  0.00    -0.207 C  
HETATM   14  CD1 UNL     1      -8.564   8.558  65.469  1.00  0.00    -0.204 C  
ENDBRANCH   4  13
BRANCH   8  15
HETATM   15  N   UNL     1     -11.038  14.094  68.794  1.00  0.00    -0.251 N  
HETATM   16  H   UNL     1     -10.834  14.680  69.604  1.00  0.00     0.000 HD 
HETATM   17  C   UNL     1     -11.812  12.965  68.949  1.00  0.00    -0.309 C  
HETATM   18  O   UNL     1     -12.011  12.168  68.043  1.00  0.00    -0.465 OA 
BRANCH  17  19
HETATM   19  C   UNL     1     -12.376  12.692  70.346  1.00  0.00    -0.237 C  
BRANCH  19  20
HETATM   20  C   UNL     1     -12.771  13.813  71.198  1.00  0.00    -0.362 A  
HETATM   21  N   UNL     1     -11.787  16.818  72.726  1.00  0.00    -0.392 NA 
HETATM   22  C   UNL     1     -14.028  13.993  71.746  1.00  0.00    -0.386 A  
HETATM   23  N   UNL     1     -11.861  14.822  71.517  1.00  0.00    -0.348 NA 
HETATM   24  C   UNL     1     -12.425  15.727  72.279  1.00  0.00    -0.450 A  
HETATM   25  S   UNL     1     -14.068  15.435  72.673  1.00  0.00    -0.275 SA 
HETATM   26  H2  UNL     1     -12.288  17.487  73.311  1.00  0.00     0.000 HD 
HETATM   27  H1  UNL     1     -10.810  16.991  72.492  1.00  0.00     0.000 HD 
ENDBRANCH  19  20
BRANCH  19  28
HETATM   28  N   UNL     1     -12.543  11.520  70.898  1.00  0.00    -0.366 NA 
HETATM   29  H   UNL     1     -13.444  11.218  71.268  1.00  0.00     0.000 HD 
BRANCH  28  30
HETATM   30  O   UNL     1     -11.410  10.705  70.951  1.00  0.00    -0.253 OA 
BRANCH  30  31
HETATM   31  C   UNL     1     -11.785   9.385  70.545  1.00  0.00    -0.198 C  
HETATM   32  O   UNL     1     -12.371   7.325  71.695  1.00  0.00    -0.317 OA 
HETATM   33  C   UNL     1     -12.497   8.541  71.600  1.00  0.00    -0.330 C  
HETATM   34  O   UNL     1     -13.347   9.239  72.390  1.00  0.00    -0.445 OA 
ENDBRANCH  30  31
ENDBRANCH  28  30
ENDBRANCH  19  28
ENDBRANCH  17  19
ENDBRANCH   8  15
TORSDOF 7
ENDMDL
MODEL      115
REMARK 921   NORMALIZED FREE ENERGY PREDICTED BY IDOCK:   -5.20 KCAL/MOL
REMARK 922        TOTAL FREE ENERGY PREDICTED BY IDOCK:   -8.69 KCAL/MOL
REMARK 923 INTER-LIGAND FREE ENERGY PREDICTED BY IDOCK:   -6.87 KCAL/MOL
REMARK 924 INTRA-LIGAND FREE ENERGY PREDICTED BY IDOCK:   -1.82 KCAL/MOL
REMARK 927      BINDING AFFINITY PREDICTED BY RF-SCORE:    0.00 PKD
ROOT
HETATM    1  C   UNL     1      -9.760  12.338  66.504  1.00  0.00    -0.234 C  
HETATM    2  S   UNL     1     -11.507  12.125  66.839  1.00  0.00    -0.338 SA 
HETATM    3  CG2 UNL     1     -11.843  13.841  67.227  1.00  0.00    -0.401 C  
HETATM    4  CB  UNL     1     -10.797  14.594  68.044  1.00  0.00    -0.260 C  
HETATM    5  O   UNL     1      -7.197  12.039  68.545  1.00  0.00    -0.089 OA 
HETATM    6  CA  UNL     1      -9.504  14.172  68.191  1.00  0.00    -0.213 C  
HETATM    7  N   UNL     1      -9.109  12.984  67.631  1.00  0.00    -0.187 N  
HETATM    8  CA  UNL     1      -8.861  11.089  66.816  1.00  0.00    -0.156 C  
HETATM    9  C   UNL     1      -8.491  15.005  68.961  1.00  0.00    -0.200 C  
HETATM   10  C   UNL     1      -8.127  12.076  67.774  1.00  0.00    -0.149 C  
HETATM   11  OXT UNL     1      -8.563  16.220  69.070  1.00  0.00    -0.242 OA 
HETATM   12  O   UNL     1      -7.447  14.358  69.514  1.00  0.00    -0.083 OA 
ENDROOT
BRANCH   4  13
HETATM   13  CG1 UNL     1     -11.361  15.781  68.715  1.00  0.00    -0.362 C  
HETATM   14  CD1 UNL     1     -11.979  15.832  69.905  1.00  0.00    -0.346 C  
ENDBRANCH   4  13
BRANCH   8  15
HETATM   15  N   UNL     1      -9.475   9.917  67.525  1.00  0.00    -0.150 N  
HETATM   16  H   UNL     1     -10.261  10.068  68.158  1.00  0.00     0.000 HD 
HETATM   17  C   UNL     1      -8.990   8.642  67.333  1.00  0.00    -0.133 C  
HETATM   18  O   UNL     1      -7.990   8.406  66.669  1.00  0.00    -0.095 OA 
BRANCH  17  19
HETATM   19  C   UNL     1      -9.719   7.503  68.051  1.00  0.00    -0.146 C  
BRANCH  19  20
HETATM   20  C   UNL     1      -9.871   6.210  67.387  1.00  0.00    -0.132 A  
HETATM   21  N   UNL     1     -11.510   4.383  64.874  1.00  0.00    -1.068 NA 
HETATM   22  C   UNL     1      -9.160   5.065  67.698  1.00  0.00    -0.113 A  
HETATM   23  N   UNL     1     -10.783   6.047  66.342  1.00  0.00    -0.137 NA 
HETATM   24  C   UNL     1     -10.748   4.818  65.889  1.00  0.00    -0.173 A  
HETATM   25  S   UNL     1      -9.641   3.774  66.677  1.00  0.00    -0.122 SA 
HETATM   26  H2  UNL     1     -11.429   3.414  64.566  1.00  0.00     0.000 HD 
HETATM   27  H1  UNL     1     -12.169   5.004  64.405  1.00  0.00     0.000 HD 
ENDBRANCH  19  20
BRANCH  19  28
HETATM   28  N   UNL     1     -10.258   7.558  69.240  1.00  0.00    -0.196 NA 
HETATM   29  H   UNL     1     -10.175   6.792  69.908  1.00  0.00     0.000 HD 
BRANCH  28  30
HETATM   30  O   UNL     1     -10.956   8.730  69.539  1.00  0.00    -0.186 OA 
BRANCH  30  31
HETATM   31  C   UNL     1     -10.880   8.952  70.951  1.00  0.00    -0.248 C  
HETATM   32  O   UNL     1      -9.139   8.768  72.637  1.00  0.00    -0.354 OA 
HETATM   33  C   UNL     1      -9.476   9.144  71.520  1.00  0.00    -0.169 C  
HETATM   34  O   UNL     1      -8.640   9.838  70.713  1.00  0.00    -0.183 OA 
ENDBRANCH  30  31
ENDBRANCH  28  30
ENDBRANCH  19  28
ENDBRANCH  17  19
ENDBRANCH   8  15
TORSDOF 7
ENDMDL
MODEL      116
REMARK 921   NORMALIZED FREE ENERGY PREDICTED BY IDOCK:   -5.18 KCAL/MOL
REMARK 922        TOTAL FREE ENERGY PREDICTED BY IDOCK:   -8.65 KCAL/MOL
REMARK 923 INTER-LIGAND FREE ENERGY PREDICTED BY IDOCK:   -6.99 KCAL/MOL
REMARK 924 INTRA-LIGAND FREE ENERGY PREDICTED BY IDOCK:   -1.66 KCAL/MOL
REMARK 927      BINDING AFFINITY PREDICTED BY RF-SCORE:    0.00 PKD
ROOT
HETATM    1  C   UNL     1     -11.084   7.254  69.804  1.00  0.00    -0.182 C  
HETATM    2  S   UNL     1     -10.543   6.253  68.419  1.00  0.00    -0.290 SA 
HETATM    3  CG2 UNL     1      -9.976   4.860  69.394  1.00  0.00    -0.212 C  
HETATM    4  CB  UNL     1      -9.244   5.168  70.696  1.00  0.00    -0.191 C  
HETATM    5  O   UNL     1      -9.424   9.534  71.498  1.00  0.00    -0.206 OA 
HETATM    6  CA  UNL     1      -9.301   6.379  71.330  1.00  0.00    -0.152 C  
HETATM    7  N   UNL     1     -10.002   7.411  70.761  1.00  0.00    -0.182 N  
HETATM    8  CA  UNL     1     -10.994   8.805  69.583  1.00  0.00    -0.105 C  
HETATM    9  C   UNL     1      -8.604   6.599  72.664  1.00  0.00    -0.123 C  
HETATM   10  C   UNL     1     -10.062   8.753  70.831  1.00  0.00    -0.219 C  
HETATM   11  OXT UNL     1      -8.387   5.703  73.466  1.00  0.00    -0.113 OA 
HETATM   12  O   UNL     1      -8.245   7.859  72.976  1.00  0.00    -0.127 OA 
ENDROOT
BRANCH   4  13
HETATM   13  CG1 UNL     1      -8.410   4.037  71.149  1.00  0.00    -0.085 C  
HETATM   14  CD1 UNL     1      -7.759   3.144  70.388  1.00  0.00    -0.043 C  
ENDBRANCH   4  13
BRANCH   8  15
HETATM   15  N   UNL     1     -10.309   9.321  68.351  1.00  0.00    -0.203 N  
HETATM   16  H   UNL     1      -9.421   8.912  68.061  1.00  0.00     0.000 HD 
HETATM   17  C   UNL     1     -10.864  10.340  67.608  1.00  0.00    -0.307 C  
HETATM   18  O   UNL     1     -11.872  10.940  67.954  1.00  0.00    -0.590 OA 
BRANCH  17  19
HETATM   19  C   UNL     1     -10.124  10.757  66.334  1.00  0.00    -0.227 C  
BRANCH  19  20
HETATM   20  C   UNL     1     -10.451  12.028  65.691  1.00  0.00    -0.256 A  
HETATM   21  N   UNL     1     -12.317  13.656  63.201  1.00  0.00    -1.076 NA 
HETATM   22  C   UNL     1      -9.940  13.260  66.056  1.00  0.00    -0.292 A  
HETATM   23  N   UNL     1     -11.348  12.078  64.622  1.00  0.00    -0.323 NA 
HETATM   24  C   UNL     1     -11.501  13.311  64.207  1.00  0.00    -0.396 A  
HETATM   25  S   UNL     1     -10.585  14.490  65.050  1.00  0.00    -0.433 SA 
HETATM   26  H2  UNL     1     -12.394  14.637  62.932  1.00  0.00     0.000 HD 
HETATM   27  H1  UNL     1     -12.861  12.955  62.699  1.00  0.00     0.000 HD 
ENDBRANCH  19  20
BRANCH  19  28
HETATM   28  N   UNL     1      -9.199  10.070  65.717  1.00  0.00    -0.164 NA 
HETATM   29  H   UNL     1      -9.222   9.914  64.709  1.00  0.00     0.000 HD 
BRANCH  28  30
HETATM   30  O   UNL     1      -8.177   9.563  66.523  1.00  0.00    -0.117 OA 
BRANCH  30  31
HETATM   31  C   UNL     1      -7.145  10.550  66.614  1.00  0.00    -0.118 C  
HETATM   32  O   UNL     1      -6.801  12.574  67.915  1.00  0.00    -0.081 OA 
HETATM   33  C   UNL     1      -7.146  11.398  67.885  1.00  0.00    -0.075 C  
HETATM   34  O   UNL     1      -7.492  10.722  69.005  1.00  0.00    -0.098 OA 
ENDBRANCH  30  31
ENDBRANCH  28  30
ENDBRANCH  19  28
ENDBRANCH  17  19
ENDBRANCH   8  15
TORSDOF 7
ENDMDL
MODEL      117
REMARK 921   NORMALIZED FREE ENERGY PREDICTED BY IDOCK:   -5.11 KCAL/MOL
REMARK 922        TOTAL FREE ENERGY PREDICTED BY IDOCK:   -8.56 KCAL/MOL
REMARK 923 INTER-LIGAND FREE ENERGY PREDICTED BY IDOCK:   -7.74 KCAL/MOL
REMARK 924 INTRA-LIGAND FREE ENERGY PREDICTED BY IDOCK:   -0.82 KCAL/MOL
REMARK 927      BINDING AFFINITY PREDICTED BY RF-SCORE:    0.00 PKD
ROOT
HETATM    1  C   UNL     1     -11.040  10.347  67.203  1.00  0.00    -0.122 C  
HETATM    2  S   UNL     1      -9.353   9.978  66.724  1.00  0.00    -0.165 SA 
HETATM    3  CG2 UNL     1      -9.176   8.514  67.742  1.00  0.00    -0.135 C  
HETATM    4  CB  UNL     1      -9.788   8.553  69.139  1.00  0.00    -0.186 C  
HETATM    5  O   UNL     1     -12.142  12.290  69.618  1.00  0.00    -0.279 OA 
HETATM    6  CA  UNL     1     -10.738   9.459  69.525  1.00  0.00    -0.222 C  
HETATM    7  N   UNL     1     -11.143  10.433  68.650  1.00  0.00    -0.258 N  
HETATM    8  CA  UNL     1     -11.427  11.868  67.174  1.00  0.00    -0.319 C  
HETATM    9  C   UNL     1     -11.359   9.400  70.912  1.00  0.00    -0.319 C  
HETATM   10  C   UNL     1     -11.745  11.636  68.682  1.00  0.00    -0.325 C  
HETATM   11  OXT UNL     1     -11.457   8.369  71.562  1.00  0.00    -0.255 OA 
HETATM   12  O   UNL     1     -11.854  10.545  71.421  1.00  0.00    -0.298 OA 
ENDROOT
BRANCH   4  13
HETATM   13  CG1 UNL     1      -9.184   7.554  70.042  1.00  0.00    -0.151 C  
HETATM   14  CD1 UNL     1      -8.062   7.679  70.767  1.00  0.00    -0.103 C  
ENDBRANCH   4  13
BRANCH   8  15
HETATM   15  N   UNL     1     -10.346  12.884  66.944  1.00  0.00    -0.242 N  
HETATM   16  H   UNL     1      -9.376  12.577  66.869  1.00  0.00     0.000 HD 
HETATM   17  C   UNL     1     -10.648  14.224  66.832  1.00  0.00    -0.273 C  
HETATM   18  O   UNL     1     -11.773  14.667  67.011  1.00  0.00    -0.377 OA 
BRANCH  17  19
HETATM   19  C   UNL     1      -9.487  15.177  66.535  1.00  0.00    -0.283 C  
BRANCH  19  20
HETATM   20  C   UNL     1      -8.262  15.093  67.327  1.00  0.00    -0.208 A  
HETATM   21  N   UNL     1      -6.736  13.860  70.240  1.00  0.00    -0.395 NA 
HETATM   22  C   UNL     1      -7.045  15.647  66.974  1.00  0.00    -0.092 A  
HETATM   23  N   UNL     1      -8.243  14.407  68.543  1.00  0.00    -0.147 NA 
HETATM   24  C   UNL     1      -7.047  14.449  69.076  1.00  0.00    -0.120 A  
HETATM   25  S   UNL     1      -5.870  15.310  68.176  1.00  0.00    -0.140 SA 
HETATM   26  H2  UNL     1      -5.783  13.926  70.597  1.00  0.00     0.000 HD 
HETATM   27  H1  UNL     1      -7.437  13.348  70.776  1.00  0.00     0.000 HD 
ENDBRANCH  19  20
BRANCH  19  28
HETATM   28  N   UNL     1      -9.468  16.112  65.621  1.00  0.00    -0.443 NA 
HETATM   29  H   UNL     1      -9.716  15.924  64.651  1.00  0.00     0.000 HD 
BRANCH  28  30
HETATM   30  O   UNL     1      -9.086  17.382  66.057  1.00  0.00    -0.487 OA 
BRANCH  30  31
HETATM   31  C   UNL     1     -10.189  17.969  66.755  1.00  0.00    -0.364 C  
HETATM   32  O   UNL     1     -10.673  20.159  67.691  1.00  0.00    -0.261 OA 
HETATM   33  C   UNL     1     -10.240  19.496  66.756  1.00  0.00    -0.435 C  
HETATM   34  O   UNL     1      -9.832  20.066  65.598  1.00  0.00    -0.336 OA 
ENDBRANCH  30  31
ENDBRANCH  28  30
ENDBRANCH  19  28
ENDBRANCH  17  19
ENDBRANCH   8  15
TORSDOF 7
ENDMDL
MODEL      118
REMARK 921   NORMALIZED FREE ENERGY PREDICTED BY IDOCK:   -5.11 KCAL/MOL
REMARK 922        TOTAL FREE ENERGY PREDICTED BY IDOCK:   -8.55 KCAL/MOL
REMARK 923 INTER-LIGAND FREE ENERGY PREDICTED BY IDOCK:   -7.43 KCAL/MOL
REMARK 924 INTRA-LIGAND FREE ENERGY PREDICTED BY IDOCK:   -1.12 KCAL/MOL
REMARK 927      BINDING AFFINITY PREDICTED BY RF-SCORE:    0.00 PKD
ROOT
HETATM    1  C   UNL     1      -7.573   9.553  68.584  1.00  0.00    -0.080 C  
HETATM    2  S   UNL     1      -6.777  10.372  69.965  1.00  0.00    -0.153 SA 
HETATM    3  CG2 UNL     1      -6.637   8.916  71.001  1.00  0.00    -0.069 C  
HETATM    4  CB  UNL     1      -7.816   7.947  71.012  1.00  0.00    -0.089 C  
HETATM    5  O   UNL     1     -10.780   9.191  67.945  1.00  0.00    -0.230 OA 
HETATM    6  CA  UNL     1      -8.788   7.926  70.049  1.00  0.00    -0.141 C  
HETATM    7  N   UNL     1      -8.760   8.849  69.035  1.00  0.00    -0.134 N  
HETATM    8  CA  UNL     1      -8.539  10.456  67.738  1.00  0.00    -0.122 C  
HETATM    9  C   UNL     1      -9.899   6.888  70.081  1.00  0.00    -0.177 C  
HETATM   10  C   UNL     1      -9.602   9.387  68.134  1.00  0.00    -0.142 C  
HETATM   11  OXT UNL     1      -9.775   5.785  70.592  1.00  0.00    -0.169 OA 
HETATM   12  O   UNL     1     -11.061   7.204  69.477  1.00  0.00    -0.218 OA 
ENDROOT
BRANCH   4  13
HETATM   13  CG1 UNL     1      -7.826   7.093  72.215  1.00  0.00    -0.092 C  
HETATM   14  CD1 UNL     1      -6.883   6.223  72.609  1.00  0.00    -0.074 C  
ENDBRANCH   4  13
BRANCH   8  15
HETATM   15  N   UNL     1      -8.865  11.833  68.239  1.00  0.00    -0.169 N  
HETATM   16  H   UNL     1      -8.398  12.188  69.074  1.00  0.00     0.000 HD 
HETATM   17  C   UNL     1      -9.787  12.623  67.587  1.00  0.00    -0.210 C  
HETATM   18  O   UNL     1     -10.453  12.222  66.643  1.00  0.00    -0.219 OA 
BRANCH  17  19
HETATM   19  C   UNL     1     -10.007  14.035  68.135  1.00  0.00    -0.242 C  
BRANCH  19  20
HETATM   20  C   UNL     1     -10.935  14.243  69.245  1.00  0.00    -0.241 A  
HETATM   21  N   UNL     1     -11.944  16.356  71.862  1.00  0.00    -0.658 NA 
HETATM   22  C   UNL     1     -11.951  13.377  69.607  1.00  0.00    -0.324 A  
HETATM   23  N   UNL     1     -10.852  15.387  70.041  1.00  0.00    -0.284 NA 
HETATM   24  C   UNL     1     -11.780  15.374  70.965  1.00  0.00    -0.364 A  
HETATM   25  S   UNL     1     -12.806  14.000  70.957  1.00  0.00    -0.323 SA 
HETATM   26  H2  UNL     1     -12.692  16.286  72.552  1.00  0.00     0.000 HD 
HETATM   27  H1  UNL     1     -11.334  17.174  71.867  1.00  0.00     0.000 HD 
ENDBRANCH  19  20
BRANCH  19  28
HETATM   28  N   UNL     1      -9.446  15.132  67.698  1.00  0.00    -0.201 NA 
HETATM   29  H   UNL     1      -9.082  15.843  68.331  1.00  0.00     0.000 HD 
BRANCH  28  30
HETATM   30  O   UNL     1      -9.375  15.268  66.310  1.00  0.00    -0.268 OA 
BRANCH  30  31
HETATM   31  C   UNL     1     -10.487  16.060  65.878  1.00  0.00    -0.359 C  
HETATM   32  O   UNL     1     -11.624  16.433  63.763  1.00  0.00    -1.055 OA 
HETATM   33  C   UNL     1     -11.130  15.641  64.558  1.00  0.00    -0.286 C  
HETATM   34  O   UNL     1     -11.178  14.302  64.363  1.00  0.00    -0.341 OA 
ENDBRANCH  30  31
ENDBRANCH  28  30
ENDBRANCH  19  28
ENDBRANCH  17  19
ENDBRANCH   8  15
TORSDOF 7
ENDMDL
MODEL      119
REMARK 921   NORMALIZED FREE ENERGY PREDICTED BY IDOCK:   -5.08 KCAL/MOL
REMARK 922        TOTAL FREE ENERGY PREDICTED BY IDOCK:   -8.51 KCAL/MOL
REMARK 923 INTER-LIGAND FREE ENERGY PREDICTED BY IDOCK:   -7.34 KCAL/MOL
REMARK 924 INTRA-LIGAND FREE ENERGY PREDICTED BY IDOCK:   -1.17 KCAL/MOL
REMARK 927      BINDING AFFINITY PREDICTED BY RF-SCORE:    0.00 PKD
ROOT
HETATM    1  C   UNL     1     -10.408   8.015  69.064  1.00  0.00    -0.218 C  
HETATM    2  S   UNL     1     -10.209   8.052  67.284  1.00  0.00    -0.302 SA 
HETATM    3  CG2 UNL     1      -9.238   6.551  67.164  1.00  0.00    -0.128 C  
HETATM    4  CB  UNL     1      -8.183   6.310  68.240  1.00  0.00    -0.115 C  
HETATM    5  O   UNL     1      -8.556   9.415  71.395  1.00  0.00    -0.292 OA 
HETATM    6  CA  UNL     1      -8.170   6.956  69.446  1.00  0.00    -0.131 C  
HETATM    7  N   UNL     1      -9.110   7.918  69.711  1.00  0.00    -0.146 N  
HETATM    8  CA  UNL     1     -10.546   9.420  69.751  1.00  0.00    -0.231 C  
HETATM    9  C   UNL     1      -7.131   6.619  70.505  1.00  0.00    -0.068 C  
HETATM   10  C   UNL     1      -9.282   8.963  70.541  1.00  0.00    -0.203 C  
HETATM   11  OXT UNL     1      -6.595   5.525  70.596  1.00  0.00    -0.037 OA 
HETATM   12  O   UNL     1      -6.825   7.576  71.401  1.00  0.00    -0.049 OA 
ENDROOT
BRANCH   4  13
HETATM   13  CG1 UNL     1      -7.143   5.360  67.800  1.00  0.00    -0.067 C  
HETATM   14  CD1 UNL     1      -7.311   4.095  67.388  1.00  0.00    -0.069 C  
ENDBRANCH   4  13
BRANCH   8  15
HETATM   15  N   UNL     1     -10.317  10.653  68.926  1.00  0.00    -0.196 N  
HETATM   16  H   UNL     1      -9.364  10.930  68.690  1.00  0.00     0.000 HD 
HETATM   17  C   UNL     1     -11.377  11.414  68.484  1.00  0.00    -0.271 C  
HETATM   18  O   UNL     1     -12.534  11.195  68.815  1.00  0.00    -0.468 OA 
BRANCH  17  19
HETATM   19  C   UNL     1     -11.049  12.618  67.597  1.00  0.00    -0.263 C  
BRANCH  19  20
HETATM   20  C   UNL     1     -11.223  12.518  66.149  1.00  0.00    -0.321 A  
HETATM   21  N   UNL     1     -12.457  14.042  63.235  1.00  0.00    -1.112 NA 
HETATM   22  C   UNL     1     -10.781  11.469  65.364  1.00  0.00    -0.278 A  
HETATM   23  N   UNL     1     -11.871  13.529  65.436  1.00  0.00    -0.341 NA 
HETATM   24  C   UNL     1     -11.907  13.240  64.159  1.00  0.00    -0.443 A  
HETATM   25  S   UNL     1     -11.184  11.748  63.721  1.00  0.00    -0.436 SA 
HETATM   26  H2  UNL     1     -12.446  13.759  62.255  1.00  0.00     0.000 HD 
HETATM   27  H1  UNL     1     -12.888  14.929  63.496  1.00  0.00     0.000 HD 
ENDBRANCH  19  20
BRANCH  19  28
HETATM   28  N   UNL     1     -10.598  13.777  68.000  1.00  0.00    -0.247 NA 
HETATM   29  H   UNL     1     -11.109  14.354  68.667  1.00  0.00     0.000 HD 
BRANCH  28  30
HETATM   30  O   UNL     1      -9.372  14.174  67.461  1.00  0.00    -0.193 OA 
BRANCH  30  31
HETATM   31  C   UNL     1      -8.326  13.549  68.213  1.00  0.00    -0.165 C  
HETATM   32  O   UNL     1      -6.039  12.869  67.753  1.00  0.00    -0.112 OA 
HETATM   33  C   UNL     1      -6.914  13.722  67.659  1.00  0.00    -0.174 C  
HETATM   34  O   UNL     1      -6.676  14.937  67.111  1.00  0.00    -0.265 OA 
ENDBRANCH  30  31
ENDBRANCH  28  30
ENDBRANCH  19  28
ENDBRANCH  17  19
ENDBRANCH   8  15
TORSDOF 7
ENDMDL
MODEL      120
REMARK 921   NORMALIZED FREE ENERGY PREDICTED BY IDOCK:   -5.07 KCAL/MOL
REMARK 922        TOTAL FREE ENERGY PREDICTED BY IDOCK:   -8.50 KCAL/MOL
REMARK 923 INTER-LIGAND FREE ENERGY PREDICTED BY IDOCK:   -7.21 KCAL/MOL
REMARK 924 INTRA-LIGAND FREE ENERGY PREDICTED BY IDOCK:   -1.29 KCAL/MOL
REMARK 927      BINDING AFFINITY PREDICTED BY RF-SCORE:    0.00 PKD
ROOT
HETATM    1  C   UNL     1      -8.645   8.958  68.538  1.00  0.00    -0.133 C  
HETATM    2  S   UNL     1      -9.414  10.167  69.614  1.00  0.00    -0.158 SA 
HETATM    3  CG2 UNL     1      -9.615   9.077  71.022  1.00  0.00    -0.279 C  
HETATM    4  CB  UNL     1     -10.039   7.639  70.740  1.00  0.00    -0.189 C  
HETATM    5  O   UNL     1     -10.039   6.930  66.355  1.00  0.00    -0.108 OA 
HETATM    6  CA  UNL     1      -9.935   7.045  69.512  1.00  0.00    -0.162 C  
HETATM    7  N   UNL     1      -9.478   7.771  68.443  1.00  0.00    -0.146 N  
HETATM    8  CA  UNL     1      -8.914   9.160  67.005  1.00  0.00    -0.123 C  
HETATM    9  C   UNL     1     -10.311   5.584  69.314  1.00  0.00    -0.265 C  
HETATM   10  C   UNL     1      -9.514   7.725  67.099  1.00  0.00    -0.155 C  
HETATM   11  OXT UNL     1     -10.255   4.748  70.204  1.00  0.00    -0.249 OA 
HETATM   12  O   UNL     1     -10.689   5.203  68.079  1.00  0.00    -0.024 OA 
ENDROOT
BRANCH   4  13
HETATM   13  CG1 UNL     1     -10.644   6.994  71.922  1.00  0.00    -0.239 C  
HETATM   14  CD1 UNL     1     -10.371   7.231  73.214  1.00  0.00    -0.389 C  
ENDBRANCH   4  13
BRANCH   8  15
HETATM   15  N   UNL     1      -9.913  10.196  66.577  1.00  0.00    -0.214 N  
HETATM   16  H   UNL     1     -10.876   9.917  66.388  1.00  0.00     0.000 HD 
HETATM   17  C   UNL     1      -9.546  11.517  66.437  1.00  0.00    -0.209 C  
HETATM   18  O   UNL     1      -8.390  11.899  66.550  1.00  0.00    -0.155 OA 
BRANCH  17  19
HETATM   19  C   UNL     1     -10.648  12.510  66.057  1.00  0.00    -0.263 C  
BRANCH  19  20
HETATM   20  C   UNL     1     -10.824  13.729  66.843  1.00  0.00    -0.285 A  
HETATM   21  N   UNL     1     -12.626  15.336  69.393  1.00  0.00    -0.599 NA 
HETATM   22  C   UNL     1     -10.059  14.875  66.718  1.00  0.00    -0.251 A  
HETATM   23  N   UNL     1     -11.818  13.812  67.820  1.00  0.00    -0.357 NA 
HETATM   24  C   UNL     1     -11.791  14.984  68.405  1.00  0.00    -0.270 A  
HETATM   25  S   UNL     1     -10.592  16.067  67.830  1.00  0.00    -0.315 SA 
HETATM   26  H2  UNL     1     -12.547  16.263  69.811  1.00  0.00     0.000 HD 
HETATM   27  H1  UNL     1     -13.340  14.692  69.735  1.00  0.00     0.000 HD 
ENDBRANCH  19  20
BRANCH  19  28
HETATM   28  N   UNL     1     -11.498  12.383  65.073  1.00  0.00    -0.322 NA 
HETATM   29  H   UNL     1     -12.229  13.071  64.897  1.00  0.00     0.000 HD 
BRANCH  28  30
HETATM   30  O   UNL     1     -11.345  11.245  64.278  1.00  0.00    -0.250 OA 
BRANCH  30  31
HETATM   31  C   UNL     1     -10.626  11.615  63.097  1.00  0.00    -0.277 C  
HETATM   32  O   UNL     1      -8.311  11.484  62.371  1.00  0.00    -0.245 OA 
HETATM   33  C   UNL     1      -9.271  10.938  62.902  1.00  0.00    -0.332 C  
HETATM   34  O   UNL     1      -9.233   9.645  63.301  1.00  0.00    -0.244 OA 
ENDBRANCH  30  31
ENDBRANCH  28  30
ENDBRANCH  19  28
ENDBRANCH  17  19
ENDBRANCH   8  15
TORSDOF 7
ENDMDL
MODEL      121
REMARK 921   NORMALIZED FREE ENERGY PREDICTED BY IDOCK:   -5.07 KCAL/MOL
REMARK 922        TOTAL FREE ENERGY PREDICTED BY IDOCK:   -8.49 KCAL/MOL
REMARK 923 INTER-LIGAND FREE ENERGY PREDICTED BY IDOCK:   -7.61 KCAL/MOL
REMARK 924 INTRA-LIGAND FREE ENERGY PREDICTED BY IDOCK:   -0.88 KCAL/MOL
REMARK 927      BINDING AFFINITY PREDICTED BY RF-SCORE:    0.00 PKD
ROOT
HETATM    1  C   UNL     1      -7.408   7.132  68.487  1.00  0.00    -0.100 C  
HETATM    2  S   UNL     1      -8.414   6.391  69.772  1.00  0.00    -0.128 SA 
HETATM    3  CG2 UNL     1      -8.151   4.691  69.272  1.00  0.00    -0.069 C  
HETATM    4  CB  UNL     1      -8.138   4.394  67.775  1.00  0.00    -0.095 C  
HETATM    5  O   UNL     1      -8.296   8.212  65.509  1.00  0.00    -0.138 OA 
HETATM    6  CA  UNL     1      -7.962   5.352  66.814  1.00  0.00    -0.101 C  
HETATM    7  N   UNL     1      -7.843   6.668  67.181  1.00  0.00    -0.104 N  
HETATM    8  CA  UNL     1      -7.856   8.565  68.028  1.00  0.00    -0.103 C  
HETATM    9  C   UNL     1      -7.889   4.980  65.341  1.00  0.00    -0.088 C  
HETATM   10  C   UNL     1      -7.978   7.887  66.630  1.00  0.00    -0.103 C  
HETATM   11  OXT UNL     1      -7.504   3.891  64.940  1.00  0.00    -0.074 OA 
HETATM   12  O   UNL     1      -8.236   5.923  64.445  1.00  0.00    -0.132 OA 
ENDROOT
BRANCH   4  13
HETATM   13  CG1 UNL     1      -8.413   2.973  67.485  1.00  0.00    -0.101 C  
HETATM   14  CD1 UNL     1      -9.066   2.092  68.257  1.00  0.00    -0.211 C  
ENDBRANCH   4  13
BRANCH   8  15
HETATM   15  N   UNL     1      -9.157   9.113  68.539  1.00  0.00    -0.133 N  
HETATM   16  H   UNL     1     -10.000   9.017  67.973  1.00  0.00     0.000 HD 
HETATM   17  C   UNL     1      -9.227   9.743  69.763  1.00  0.00    -0.226 C  
HETATM   18  O   UNL     1      -8.239   9.979  70.444  1.00  0.00    -0.159 OA 
BRANCH  17  19
HETATM   19  C   UNL     1     -10.608  10.213  70.227  1.00  0.00    -0.264 C  
BRANCH  19  20
HETATM   20  C   UNL     1     -11.494   9.281  70.919  1.00  0.00    -0.303 A  
HETATM   21  N   UNL     1     -14.144   8.898  73.193  1.00  0.00    -1.225 NA 
HETATM   22  C   UNL     1     -11.484   7.907  70.763  1.00  0.00    -0.263 A  
HETATM   23  N   UNL     1     -12.457   9.744  71.818  1.00  0.00    -0.391 NA 
HETATM   24  C   UNL     1     -13.143   8.744  72.313  1.00  0.00    -0.409 A  
HETATM   25  S   UNL     1     -12.686   7.189  71.753  1.00  0.00    -0.308 SA 
HETATM   26  H2  UNL     1     -14.642   8.076  73.534  1.00  0.00     0.000 HD 
HETATM   27  H1  UNL     1     -14.415   9.823  73.526  1.00  0.00     0.000 HD 
ENDBRANCH  19  20
BRANCH  19  28
HETATM   28  N   UNL     1     -11.116  11.405  70.057  1.00  0.00    -0.480 NA 
HETATM   29  H   UNL     1     -11.877  11.757  70.638  1.00  0.00     0.000 HD 
BRANCH  28  30
HETATM   30  O   UNL     1     -10.553  12.167  69.031  1.00  0.00    -0.181 OA 
BRANCH  30  31
HETATM   31  C   UNL     1     -11.493  13.180  68.655  1.00  0.00    -0.305 C  
HETATM   32  O   UNL     1     -12.134  14.252  66.570  1.00  0.00    -0.431 OA 
HETATM   33  C   UNL     1     -11.873  13.219  67.176  1.00  0.00    -0.374 C  
HETATM   34  O   UNL     1     -11.970  12.000  66.594  1.00  0.00    -0.614 OA 
ENDBRANCH  30  31
ENDBRANCH  28  30
ENDBRANCH  19  28
ENDBRANCH  17  19
ENDBRANCH   8  15
TORSDOF 7
ENDMDL
MODEL      122
REMARK 921   NORMALIZED FREE ENERGY PREDICTED BY IDOCK:   -5.06 KCAL/MOL
REMARK 922        TOTAL FREE ENERGY PREDICTED BY IDOCK:   -8.48 KCAL/MOL
REMARK 923 INTER-LIGAND FREE ENERGY PREDICTED BY IDOCK:   -7.17 KCAL/MOL
REMARK 924 INTRA-LIGAND FREE ENERGY PREDICTED BY IDOCK:   -1.31 KCAL/MOL
REMARK 927      BINDING AFFINITY PREDICTED BY RF-SCORE:    0.00 PKD
ROOT
HETATM    1  C   UNL     1     -10.232   8.515  68.972  1.00  0.00    -0.207 C  
HETATM    2  S   UNL     1     -10.522   8.601  67.206  1.00  0.00    -0.250 SA 
HETATM    3  CG2 UNL     1      -9.638   7.099  66.789  1.00  0.00    -0.178 C  
HETATM    4  CB  UNL     1      -8.335   6.823  67.532  1.00  0.00    -0.122 C  
HETATM    5  O   UNL     1      -7.801   9.840  70.749  1.00  0.00    -0.304 OA 
HETATM    6  CA  UNL     1      -7.988   7.434  68.706  1.00  0.00    -0.123 C  
HETATM    7  N   UNL     1      -8.809   8.394  69.240  1.00  0.00    -0.141 N  
HETATM    8  CA  UNL     1     -10.162   9.900  69.707  1.00  0.00    -0.246 C  
HETATM    9  C   UNL     1      -6.705   7.063  69.434  1.00  0.00    -0.049 C  
HETATM   10  C   UNL     1      -8.737   9.415  70.113  1.00  0.00    -0.221 C  
HETATM   11  OXT UNL     1      -6.177   5.963  69.348  1.00  0.00    -0.030 OA 
HETATM   12  O   UNL     1      -6.156   7.993  70.238  1.00  0.00    -0.032 OA 
ENDROOT
BRANCH   4  13
HETATM   13  CG1 UNL     1      -7.464   5.881  66.802  1.00  0.00    -0.087 C  
HETATM   14  CD1 UNL     1      -6.766   6.114  65.680  1.00  0.00    -0.048 C  
ENDBRANCH   4  13
BRANCH   8  15
HETATM   15  N   UNL     1     -10.150  11.155  68.883  1.00  0.00    -0.253 N  
HETATM   16  H   UNL     1      -9.422  11.288  68.181  1.00  0.00     0.000 HD 
HETATM   17  C   UNL     1     -11.109  12.128  69.064  1.00  0.00    -0.237 C  
HETATM   18  O   UNL     1     -11.946  12.077  69.954  1.00  0.00    -0.319 OA 
BRANCH  17  19
HETATM   19  C   UNL     1     -11.052  13.344  68.135  1.00  0.00    -0.258 C  
BRANCH  19  20
HETATM   20  C   UNL     1      -9.940  14.286  68.244  1.00  0.00    -0.239 A  
HETATM   21  N   UNL     1      -6.567  14.933  67.510  1.00  0.00    -0.270 NA 
HETATM   22  C   UNL     1     -10.007  15.533  68.838  1.00  0.00    -0.218 A  
HETATM   23  N   UNL     1      -8.684  13.972  67.722  1.00  0.00    -0.173 NA 
HETATM   24  C   UNL     1      -7.843  14.957  67.920  1.00  0.00    -0.137 A  
HETATM   25  S   UNL     1      -8.484  16.315  68.747  1.00  0.00    -0.249 SA 
HETATM   26  H2  UNL     1      -5.967  15.738  67.692  1.00  0.00     0.000 HD 
HETATM   27  H1  UNL     1      -6.186  14.125  67.019  1.00  0.00     0.000 HD 
ENDBRANCH  19  20
BRANCH  19  28
HETATM   28  N   UNL     1     -11.930  13.660  67.220  1.00  0.00    -0.387 NA 
HETATM   29  H   UNL     1     -12.374  14.577  67.190  1.00  0.00     0.000 HD 
BRANCH  28  30
HETATM   30  O   UNL     1     -12.223  12.664  66.286  1.00  0.00    -0.562 OA 
BRANCH  30  31
HETATM   31  C   UNL     1     -11.252  12.732  65.236  1.00  0.00    -0.293 C  
HETATM   32  O   UNL     1     -10.833  11.491  63.189  1.00  0.00    -0.306 OA 
HETATM   33  C   UNL     1     -11.638  12.046  63.927  1.00  0.00    -0.449 C  
HETATM   34  O   UNL     1     -12.948  12.162  63.604  1.00  0.00    -0.780 OA 
ENDBRANCH  30  31
ENDBRANCH  28  30
ENDBRANCH  19  28
ENDBRANCH  17  19
ENDBRANCH   8  15
TORSDOF 7
ENDMDL
MODEL      123
REMARK 921   NORMALIZED FREE ENERGY PREDICTED BY IDOCK:   -4.97 KCAL/MOL
REMARK 922        TOTAL FREE ENERGY PREDICTED BY IDOCK:   -8.35 KCAL/MOL
REMARK 923 INTER-LIGAND FREE ENERGY PREDICTED BY IDOCK:   -7.08 KCAL/MOL
REMARK 924 INTRA-LIGAND FREE ENERGY PREDICTED BY IDOCK:   -1.27 KCAL/MOL
REMARK 927      BINDING AFFINITY PREDICTED BY RF-SCORE:    0.00 PKD
ROOT
HETATM    1  C   UNL     1      -8.073  12.182  66.886  1.00  0.00    -0.112 C  
HETATM    2  S   UNL     1      -9.602  11.290  66.605  1.00  0.00    -0.201 SA 
HETATM    3  CG2 UNL     1     -10.355  12.522  65.544  1.00  0.00    -0.280 C  
HETATM    4  CB  UNL     1     -10.156  13.988  65.920  1.00  0.00    -0.336 C  
HETATM    5  O   UNL     1      -7.294  14.269  69.306  1.00  0.00    -0.118 OA 
HETATM    6  CA  UNL     1      -9.181  14.425  66.774  1.00  0.00    -0.268 C  
HETATM    7  N   UNL     1      -8.356  13.516  67.385  1.00  0.00    -0.186 N  
HETATM    8  CA  UNL     1      -7.383  11.907  68.269  1.00  0.00    -0.093 C  
HETATM    9  C   UNL     1      -8.991  15.908  67.053  1.00  0.00    -0.217 C  
HETATM   10  C   UNL     1      -7.547  13.446  68.458  1.00  0.00    -0.127 C  
HETATM   11  OXT UNL     1      -9.294  16.786  66.259  1.00  0.00    -0.265 OA 
HETATM   12  O   UNL     1      -8.426  16.252  68.227  1.00  0.00    -0.176 OA 
ENDROOT
BRANCH   4  13
HETATM   13  CG1 UNL     1     -11.181  14.863  65.318  1.00  0.00    -0.369 C  
HETATM   14  CD1 UNL     1     -12.134  14.521  64.438  1.00  0.00    -0.492 C  
ENDBRANCH   4  13
BRANCH   8  15
HETATM   15  N   UNL     1      -8.120  11.099  69.297  1.00  0.00    -0.371 N  
HETATM   16  H   UNL     1      -8.875  11.532  69.830  1.00  0.00     0.000 HD 
HETATM   17  C   UNL     1      -7.791   9.782  69.529  1.00  0.00    -0.128 C  
HETATM   18  O   UNL     1      -6.836   9.233  68.998  1.00  0.00    -0.054 OA 
BRANCH  17  19
HETATM   19  C   UNL     1      -8.640   9.021  70.551  1.00  0.00    -0.201 C  
BRANCH  19  20
HETATM   20  C   UNL     1     -10.048   9.372  70.726  1.00  0.00    -0.298 A  
HETATM   21  N   UNL     1     -12.865  10.952  69.348  1.00  0.00    -0.442 NA 
HETATM   22  C   UNL     1     -10.825   9.032  71.819  1.00  0.00    -0.367 A  
HETATM   23  N   UNL     1     -10.729  10.100  69.749  1.00  0.00    -0.260 NA 
HETATM   24  C   UNL     1     -11.975  10.294  70.104  1.00  0.00    -0.234 A  
HETATM   25  S   UNL     1     -12.419   9.633  71.623  1.00  0.00    -0.424 SA 
HETATM   26  H2  UNL     1     -13.823  11.062  69.682  1.00  0.00     0.000 HD 
HETATM   27  H1  UNL     1     -12.602  11.346  68.445  1.00  0.00     0.000 HD 
ENDBRANCH  19  20
BRANCH  19  28
HETATM   28  N   UNL     1      -8.231   8.057  71.333  1.00  0.00    -0.105 NA 
HETATM   29  H   UNL     1      -8.039   8.207  72.323  1.00  0.00     0.000 HD 
BRANCH  28  30
HETATM   30  O   UNL     1      -8.072   6.808  70.728  1.00  0.00    -0.115 OA 
BRANCH  30  31
HETATM   31  C   UNL     1      -8.709   5.825  71.551  1.00  0.00    -0.133 C  
HETATM   32  O   UNL     1     -10.981   5.420  72.313  1.00  0.00    -0.233 OA 
HETATM   33  C   UNL     1     -10.223   5.704  71.392  1.00  0.00    -0.214 C  
HETATM   34  O   UNL     1     -10.664   5.866  70.123  1.00  0.00    -0.265 OA 
ENDBRANCH  30  31
ENDBRANCH  28  30
ENDBRANCH  19  28
ENDBRANCH  17  19
ENDBRANCH   8  15
TORSDOF 7
ENDMDL
MODEL      124
REMARK 921   NORMALIZED FREE ENERGY PREDICTED BY IDOCK:   -4.97 KCAL/MOL
REMARK 922        TOTAL FREE ENERGY PREDICTED BY IDOCK:   -8.35 KCAL/MOL
REMARK 923 INTER-LIGAND FREE ENERGY PREDICTED BY IDOCK:   -7.05 KCAL/MOL
REMARK 924 INTRA-LIGAND FREE ENERGY PREDICTED BY IDOCK:   -1.30 KCAL/MOL
REMARK 927      BINDING AFFINITY PREDICTED BY RF-SCORE:    0.00 PKD
ROOT
HETATM    1  C   UNL     1     -12.266  11.158  68.990  1.00  0.00    -0.125 C  
HETATM    2  S   UNL     1     -12.198  10.807  70.745  1.00  0.00    -0.406 SA 
HETATM    3  CG2 UNL     1     -12.852  12.386  71.286  1.00  0.00    -0.240 C  
HETATM    4  CB  UNL     1     -12.383  13.631  70.540  1.00  0.00    -0.425 C  
HETATM    5  O   UNL     1      -9.946  12.421  67.028  1.00  0.00    -0.209 OA 
HETATM    6  CA  UNL     1     -11.799  13.599  69.303  1.00  0.00    -0.346 C  
HETATM    7  N   UNL     1     -11.557  12.392  68.698  1.00  0.00    -0.296 N  
HETATM    8  CA  UNL     1     -11.178  10.433  68.120  1.00  0.00    -0.268 C  
HETATM    9  C   UNL     1     -11.418  14.883  68.582  1.00  0.00    -0.306 C  
HETATM   10  C   UNL     1     -10.775  11.886  67.727  1.00  0.00    -0.207 C  
HETATM   11  OXT UNL     1     -11.986  15.950  68.762  1.00  0.00    -0.368 OA 
HETATM   12  O   UNL     1     -10.423  14.814  67.676  1.00  0.00    -0.250 OA 
ENDROOT
BRANCH   4  13
HETATM   13  CG1 UNL     1     -12.563  14.861  71.337  1.00  0.00    -0.402 C  
HETATM   14  CD1 UNL     1     -11.789  15.307  72.338  1.00  0.00    -0.532 C  
ENDBRANCH   4  13
BRANCH   8  15
HETATM   15  N   UNL     1     -10.083   9.679  68.815  1.00  0.00    -0.172 N  
HETATM   16  H   UNL     1      -9.334  10.194  69.279  1.00  0.00     0.000 HD 
HETATM   17  C   UNL     1     -10.075   8.301  68.835  1.00  0.00    -0.199 C  
HETATM   18  O   UNL     1     -10.884   7.625  68.216  1.00  0.00    -0.102 OA 
BRANCH  17  19
HETATM   19  C   UNL     1      -8.951   7.622  69.622  1.00  0.00    -0.140 C  
BRANCH  19  20
HETATM   20  C   UNL     1      -8.961   7.666  71.082  1.00  0.00    -0.138 A  
HETATM   21  N   UNL     1     -10.783   7.037  74.018  1.00  0.00    -0.508 NA 
HETATM   22  C   UNL     1      -7.909   8.087  71.875  1.00  0.00    -0.106 A  
HETATM   23  N   UNL     1     -10.087   7.258  71.801  1.00  0.00    -0.179 NA 
HETATM   24  C   UNL     1      -9.876   7.372  73.089  1.00  0.00    -0.254 A  
HETATM   25  S   UNL     1      -8.334   7.977  73.532  1.00  0.00    -0.247 SA 
HETATM   26  H2  UNL     1     -10.552   7.144  75.006  1.00  0.00     0.000 HD 
HETATM   27  H1  UNL     1     -11.700   6.677  73.755  1.00  0.00     0.000 HD 
ENDBRANCH  19  20
BRANCH  19  28
HETATM   28  N   UNL     1      -7.927   6.986  69.116  1.00  0.00    -0.118 NA 
HETATM   29  H   UNL     1      -7.143   6.678  69.691  1.00  0.00     0.000 HD 
BRANCH  28  30
HETATM   30  O   UNL     1      -7.972   6.757  67.739  1.00  0.00    -0.110 OA 
BRANCH  30  31
HETATM   31  C   UNL     1      -7.481   5.436  67.486  1.00  0.00    -0.084 C  
HETATM   32  O   UNL     1      -7.867   3.237  68.446  1.00  0.00    -0.059 OA 
HETATM   33  C   UNL     1      -8.333   4.293  68.034  1.00  0.00    -0.094 C  
HETATM   34  O   UNL     1      -9.667   4.510  67.960  1.00  0.00    -0.159 OA 
ENDBRANCH  30  31
ENDBRANCH  28  30
ENDBRANCH  19  28
ENDBRANCH  17  19
ENDBRANCH   8  15
TORSDOF 7
ENDMDL
MODEL      125
REMARK 921   NORMALIZED FREE ENERGY PREDICTED BY IDOCK:   -4.95 KCAL/MOL
REMARK 922        TOTAL FREE ENERGY PREDICTED BY IDOCK:   -8.33 KCAL/MOL
REMARK 923 INTER-LIGAND FREE ENERGY PREDICTED BY IDOCK:   -6.58 KCAL/MOL
REMARK 924 INTRA-LIGAND FREE ENERGY PREDICTED BY IDOCK:   -1.76 KCAL/MOL
REMARK 927      BINDING AFFINITY PREDICTED BY RF-SCORE:    0.00 PKD
ROOT
HETATM    1  C   UNL     1     -10.670   7.320  66.916  1.00  0.00    -0.276 C  
HETATM    2  S   UNL     1     -10.727   9.085  67.219  1.00  0.00    -0.041 SA 
HETATM    3  CG2 UNL     1      -9.684   9.554  65.839  1.00  0.00    -0.282 C  
HETATM    4  CB  UNL     1      -8.475   8.672  65.542  1.00  0.00    -0.181 C  
HETATM    5  O   UNL     1      -8.605   5.064  68.131  1.00  0.00    -0.102 OA 
HETATM    6  CA  UNL     1      -8.335   7.394  66.011  1.00  0.00    -0.143 C  
HETATM    7  N   UNL     1      -9.291   6.868  66.842  1.00  0.00    -0.143 N  
HETATM    8  CA  UNL     1     -10.803   6.417  68.194  1.00  0.00    -0.308 C  
HETATM    9  C   UNL     1      -7.137   6.543  65.621  1.00  0.00    -0.061 C  
HETATM   10  C   UNL     1      -9.413   5.875  67.741  1.00  0.00    -0.113 C  
HETATM   11  OXT UNL     1      -6.522   6.687  64.575  1.00  0.00    -0.040 OA 
HETATM   12  O   UNL     1      -6.772   5.560  66.466  1.00  0.00    -0.054 OA 
ENDROOT
BRANCH   4  13
HETATM   13  CG1 UNL     1      -7.446   9.381  64.757  1.00  0.00    -0.107 C  
HETATM   14  CD1 UNL     1      -7.561   9.880  63.517  1.00  0.00    -0.143 C  
ENDBRANCH   4  13
BRANCH   8  15
HETATM   15  N   UNL     1     -10.776   7.070  69.545  1.00  0.00    -0.234 N  
HETATM   16  H   UNL     1     -10.678   8.083  69.612  1.00  0.00     0.000 HD 
HETATM   17  C   UNL     1     -10.880   6.318  70.695  1.00  0.00    -0.280 C  
HETATM   18  O   UNL     1     -10.898   5.095  70.689  1.00  0.00    -0.138 OA 
BRANCH  17  19
HETATM   19  C   UNL     1     -10.905   7.077  72.025  1.00  0.00    -0.223 C  
BRANCH  19  20
HETATM   20  C   UNL     1      -9.707   7.111  72.861  1.00  0.00    -0.165 A  
HETATM   21  N   UNL     1      -7.060   9.053  74.107  1.00  0.00    -0.383 NA 
HETATM   22  C   UNL     1      -9.211   6.043  73.586  1.00  0.00    -0.127 A  
HETATM   23  N   UNL     1      -8.960   8.284  72.991  1.00  0.00    -0.251 NA 
HETATM   24  C   UNL     1      -7.940   8.093  73.790  1.00  0.00    -0.209 A  
HETATM   25  S   UNL     1      -7.795   6.510  74.432  1.00  0.00    -0.111 SA 
HETATM   26  H2  UNL     1      -6.290   8.839  74.742  1.00  0.00     0.000 HD 
HETATM   27  H1  UNL     1      -7.146   9.995  73.725  1.00  0.00     0.000 HD 
ENDBRANCH  19  20
BRANCH  19  28
HETATM   28  N   UNL     1     -11.926   7.719  72.530  1.00  0.00    -0.532 NA 
HETATM   29  H   UNL     1     -11.867   8.214  73.419  1.00  0.00     0.000 HD 
BRANCH  28  30
HETATM   30  O   UNL     1     -13.101   7.684  71.776  1.00  0.00    -0.333 OA 
BRANCH  30  31
HETATM   31  C   UNL     1     -13.729   8.967  71.861  1.00  0.00    -0.441 C  
HETATM   32  O   UNL     1     -12.950  11.260  72.070  1.00  0.00    -0.445 OA 
HETATM   33  C   UNL     1     -12.842  10.166  71.530  1.00  0.00    -0.443 C  
HETATM   34  O   UNL     1     -11.960   9.944  70.526  1.00  0.00    -0.267 OA 
ENDBRANCH  30  31
ENDBRANCH  28  30
ENDBRANCH  19  28
ENDBRANCH  17  19
ENDBRANCH   8  15
TORSDOF 7
ENDMDL
MODEL      126
REMARK 921   NORMALIZED FREE ENERGY PREDICTED BY IDOCK:   -4.94 KCAL/MOL
REMARK 922        TOTAL FREE ENERGY PREDICTED BY IDOCK:   -8.32 KCAL/MOL
REMARK 923 INTER-LIGAND FREE ENERGY PREDICTED BY IDOCK:   -7.89 KCAL/MOL
REMARK 924 INTRA-LIGAND FREE ENERGY PREDICTED BY IDOCK:   -0.43 KCAL/MOL
REMARK 927      BINDING AFFINITY PREDICTED BY RF-SCORE:    0.00 PKD
ROOT
HETATM    1  C   UNL     1      -9.532  10.962  66.447  1.00  0.00    -0.187 C  
HETATM    2  S   UNL     1      -7.808  11.261  66.834  1.00  0.00    -0.160 SA 
HETATM    3  CG2 UNL     1      -7.667   9.993  68.092  1.00  0.00    -0.085 C  
HETATM    4  CB  UNL     1      -8.845   9.816  69.045  1.00  0.00    -0.153 C  
HETATM    5  O   UNL     1     -12.224  12.372  67.709  1.00  0.00    -0.395 OA 
HETATM    6  CA  UNL     1     -10.101  10.294  68.794  1.00  0.00    -0.187 C  
HETATM    7  N   UNL     1     -10.335  11.025  67.657  1.00  0.00    -0.184 N  
HETATM    8  CA  UNL     1     -10.335  12.218  65.956  1.00  0.00    -0.245 C  
HETATM    9  C   UNL     1     -11.250  10.023  69.753  1.00  0.00    -0.258 C  
HETATM   10  C   UNL     1     -11.237  11.906  67.188  1.00  0.00    -0.319 C  
HETATM   11  OXT UNL     1     -11.299   9.044  70.483  1.00  0.00    -0.259 OA 
HETATM   12  O   UNL     1     -12.273  10.899  69.760  1.00  0.00    -0.326 OA 
ENDROOT
BRANCH   4  13
HETATM   13  CG1 UNL     1      -8.453   9.139  70.297  1.00  0.00    -0.208 C  
HETATM   14  CD1 UNL     1      -7.449   8.267  70.477  1.00  0.00    -0.067 C  
ENDBRANCH   4  13
BRANCH   8  15
HETATM   15  N   UNL     1      -9.681  13.567  66.026  1.00  0.00    -0.419 N  
HETATM   16  H   UNL     1      -8.691  13.634  66.265  1.00  0.00     0.000 HD 
HETATM   17  C   UNL     1     -10.398  14.715  65.771  1.00  0.00    -0.332 C  
HETATM   18  O   UNL     1     -11.606  14.713  65.578  1.00  0.00    -0.345 OA 
BRANCH  17  19
HETATM   19  C   UNL     1      -9.631  16.040  65.805  1.00  0.00    -0.276 C  
BRANCH  19  20
HETATM   20  C   UNL     1      -8.299  16.088  66.404  1.00  0.00    -0.309 A  
HETATM   21  N   UNL     1      -5.264  17.837  66.661  1.00  0.00    -0.140 NA 
HETATM   22  C   UNL     1      -7.795  15.164  67.301  1.00  0.00    -0.211 A  
HETATM   23  N   UNL     1      -7.416  17.126  66.100  1.00  0.00    -0.314 NA 
HETATM   24  C   UNL     1      -6.289  16.978  66.752  1.00  0.00    -0.211 A  
HETATM   25  S   UNL     1      -6.200  15.595  67.762  1.00  0.00    -0.162 SA 
HETATM   26  H2  UNL     1      -4.416  17.665  67.202  1.00  0.00     0.000 HD 
HETATM   27  H1  UNL     1      -5.317  18.659  66.060  1.00  0.00     0.000 HD 
ENDBRANCH  19  20
BRANCH  19  28
HETATM   28  N   UNL     1     -10.052  17.190  65.349  1.00  0.00    -0.530 NA 
HETATM   29  H   UNL     1      -9.715  17.580  64.470  1.00  0.00     0.000 HD 
BRANCH  28  30
HETATM   30  O   UNL     1     -10.992  17.852  66.143  1.00  0.00    -0.044 OA 
BRANCH  30  31
HETATM   31  C   UNL     1     -10.379  19.030  66.677  1.00  0.00    -0.428 C  
HETATM   32  O   UNL     1     -10.297  20.095  68.860  1.00  0.00    -0.382 OA 
HETATM   33  C   UNL     1     -10.221  19.068  68.196  1.00  0.00    -0.396 C  
HETATM   34  O   UNL     1      -9.915  17.872  68.753  1.00  0.00    -0.359 OA 
ENDBRANCH  30  31
ENDBRANCH  28  30
ENDBRANCH  19  28
ENDBRANCH  17  19
ENDBRANCH   8  15
TORSDOF 7
ENDMDL
MODEL      127
REMARK 921   NORMALIZED FREE ENERGY PREDICTED BY IDOCK:   -4.94 KCAL/MOL
REMARK 922        TOTAL FREE ENERGY PREDICTED BY IDOCK:   -8.31 KCAL/MOL
REMARK 923 INTER-LIGAND FREE ENERGY PREDICTED BY IDOCK:   -6.76 KCAL/MOL
REMARK 924 INTRA-LIGAND FREE ENERGY PREDICTED BY IDOCK:   -1.55 KCAL/MOL
REMARK 927      BINDING AFFINITY PREDICTED BY RF-SCORE:    0.00 PKD
ROOT
HETATM    1  C   UNL     1     -11.238   7.112  70.531  1.00  0.00    -0.290 C  
HETATM    2  S   UNL     1     -11.010   6.274  68.963  1.00  0.00    -0.374 SA 
HETATM    3  CG2 UNL     1     -10.090   4.882  69.617  1.00  0.00    -0.230 C  
HETATM    4  CB  UNL     1      -9.062   5.170  70.706  1.00  0.00    -0.171 C  
HETATM    5  O   UNL     1      -9.374   9.425  71.945  1.00  0.00    -0.185 OA 
HETATM    6  CA  UNL     1      -9.045   6.320  71.447  1.00  0.00    -0.142 C  
HETATM    7  N   UNL     1      -9.955   7.312  71.183  1.00  0.00    -0.186 N  
HETATM    8  CA  UNL     1     -11.337   8.676  70.445  1.00  0.00    -0.187 C  
HETATM    9  C   UNL     1      -8.035   6.516  72.567  1.00  0.00    -0.104 C  
HETATM   10  C   UNL     1     -10.103   8.631  71.396  1.00  0.00    -0.254 C  
HETATM   11  OXT UNL     1      -7.539   5.592  73.195  1.00  0.00    -0.095 OA 
HETATM   12  O   UNL     1      -7.709   7.781  72.895  1.00  0.00    -0.093 OA 
ENDROOT
BRANCH   4  13
HETATM   13  CG1 UNL     1      -8.048   4.103  70.814  1.00  0.00    -0.063 C  
HETATM   14  CD1 UNL     1      -8.255   2.799  71.054  1.00  0.00    -0.074 C  
ENDBRANCH   4  13
BRANCH   8  15
HETATM   15  N   UNL     1     -11.053   9.347  69.133  1.00  0.00    -0.433 N  
HETATM   16  H   UNL     1     -10.477   8.870  68.439  1.00  0.00     0.000 HD 
HETATM   17  C   UNL     1     -11.558  10.599  68.855  1.00  0.00    -0.249 C  
HETATM   18  O   UNL     1     -12.169  11.265  69.679  1.00  0.00    -0.309 OA 
BRANCH  17  19
HETATM   19  C   UNL     1     -11.267  11.176  67.467  1.00  0.00    -0.301 C  
BRANCH  19  20
HETATM   20  C   UNL     1     -10.095  10.717  66.725  1.00  0.00    -0.224 A  
HETATM   21  N   UNL     1      -6.643  10.074  66.805  1.00  0.00    -0.070 NA 
HETATM   22  C   UNL     1     -10.104  10.281  65.412  1.00  0.00    -0.284 A  
HETATM   23  N   UNL     1      -8.837  10.680  67.328  1.00  0.00    -0.136 NA 
HETATM   24  C   UNL     1      -7.937  10.229  66.489  1.00  0.00    -0.118 A  
HETATM   25  S   UNL     1      -8.523   9.828  64.928  1.00  0.00    -0.171 SA 
HETATM   26  H2  UNL     1      -5.996   9.712  66.105  1.00  0.00     0.000 HD 
HETATM   27  H1  UNL     1      -6.295  10.313  67.734  1.00  0.00     0.000 HD 
ENDBRANCH  19  20
BRANCH  19  28
HETATM   28  N   UNL     1     -11.970  12.084  66.844  1.00  0.00    -0.609 NA 
HETATM   29  H   UNL     1     -12.893  11.885  66.460  1.00  0.00     0.000 HD 
BRANCH  28  30
HETATM   30  O   UNL     1     -11.378  13.345  66.736  1.00  0.00    -0.305 OA 
BRANCH  30  31
HETATM   31  C   UNL     1     -11.907  14.181  67.771  1.00  0.00    -0.379 C  
HETATM   32  O   UNL     1     -11.318  14.649  70.082  1.00  0.00    -0.257 OA 
HETATM   33  C   UNL     1     -10.954  14.499  68.921  1.00  0.00    -0.256 C  
HETATM   34  O   UNL     1      -9.666  14.677  68.543  1.00  0.00    -0.213 OA 
ENDBRANCH  30  31
ENDBRANCH  28  30
ENDBRANCH  19  28
ENDBRANCH  17  19
ENDBRANCH   8  15
TORSDOF 7
ENDMDL
MODEL      128
REMARK 921   NORMALIZED FREE ENERGY PREDICTED BY IDOCK:   -4.89 KCAL/MOL
REMARK 922        TOTAL FREE ENERGY PREDICTED BY IDOCK:   -8.25 KCAL/MOL
REMARK 923 INTER-LIGAND FREE ENERGY PREDICTED BY IDOCK:   -6.90 KCAL/MOL
REMARK 924 INTRA-LIGAND FREE ENERGY PREDICTED BY IDOCK:   -1.35 KCAL/MOL
REMARK 927      BINDING AFFINITY PREDICTED BY RF-SCORE:    0.00 PKD
ROOT
HETATM    1  C   UNL     1      -8.970  11.228  66.660  1.00  0.00    -0.176 C  
HETATM    2  S   UNL     1      -9.376   9.891  65.539  1.00  0.00    -0.243 SA 
HETATM    3  CG2 UNL     1     -10.380  10.869  64.422  1.00  0.00    -0.361 C  
HETATM    4  CB  UNL     1     -11.304  11.913  65.042  1.00  0.00    -0.333 C  
HETATM    5  O   UNL     1     -10.510  12.186  69.404  1.00  0.00     0.063 OA 
HETATM    6  CA  UNL     1     -11.164  12.387  66.318  1.00  0.00    -0.317 C  
HETATM    7  N   UNL     1     -10.183  11.876  67.128  1.00  0.00    -0.207 N  
HETATM    8  CA  UNL     1      -8.728  10.802  68.151  1.00  0.00    -0.130 C  
HETATM    9  C   UNL     1     -12.076  13.480  66.852  1.00  0.00    -0.368 C  
HETATM   10  C   UNL     1      -9.897  11.791  68.440  1.00  0.00    -0.199 C  
HETATM   11  OXT UNL     1     -12.617  14.313  66.139  1.00  0.00    -0.436 OA 
HETATM   12  O   UNL     1     -12.259  13.540  68.185  1.00  0.00    -0.302 OA 
ENDROOT
BRANCH   4  13
HETATM   13  CG1 UNL     1     -12.405  12.292  64.135  1.00  0.00    -0.546 C  
HETATM   14  CD1 UNL     1     -12.364  13.168  63.120  1.00  0.00    -0.209 C  
ENDBRANCH   4  13
BRANCH   8  15
HETATM   15  N   UNL     1      -9.031   9.389  68.557  1.00  0.00    -0.128 N  
HETATM   16  H   UNL     1      -9.705   8.845  68.017  1.00  0.00     0.000 HD 
HETATM   17  C   UNL     1      -8.412   8.818  69.647  1.00  0.00    -0.129 C  
HETATM   18  O   UNL     1      -7.674   9.445  70.394  1.00  0.00    -0.120 OA 
BRANCH  17  19
HETATM   19  C   UNL     1      -8.738   7.352  69.946  1.00  0.00    -0.141 C  
BRANCH  19  20
HETATM   20  C   UNL     1      -9.955   7.018  70.683  1.00  0.00    -0.186 A  
HETATM   21  N   UNL     1     -13.455   7.273  70.827  1.00  0.00    -0.484 NA 
HETATM   22  C   UNL     1     -10.003   6.277  71.849  1.00  0.00    -0.172 A  
HETATM   23  N   UNL     1     -11.205   7.441  70.227  1.00  0.00    -0.267 NA 
HETATM   24  C   UNL     1     -12.153   7.025  71.030  1.00  0.00    -0.368 A  
HETATM   25  S   UNL     1     -11.624   6.112  72.382  1.00  0.00    -0.256 SA 
HETATM   26  H2  UNL     1     -14.143   6.914  71.489  1.00  0.00     0.000 HD 
HETATM   27  H1  UNL     1     -13.770   7.817  70.023  1.00  0.00     0.000 HD 
ENDBRANCH  19  20
BRANCH  19  28
HETATM   28  N   UNL     1      -8.015   6.316  69.615  1.00  0.00    -0.110 NA 
HETATM   29  H   UNL     1      -7.025   6.250  69.849  1.00  0.00     0.000 HD 
BRANCH  28  30
HETATM   30  O   UNL     1      -8.682   5.304  68.920  1.00  0.00    -0.091 OA 
BRANCH  30  31
HETATM   31  C   UNL     1      -8.524   5.541  67.518  1.00  0.00    -0.106 C  
HETATM   32  O   UNL     1      -9.767   4.949  65.515  1.00  0.00    -0.162 OA 
HETATM   33  C   UNL     1      -9.780   5.367  66.667  1.00  0.00    -0.161 C  
HETATM   34  O   UNL     1     -10.920   5.783  67.267  1.00  0.00    -0.255 OA 
ENDBRANCH  30  31
ENDBRANCH  28  30
ENDBRANCH  19  28
ENDBRANCH  17  19
ENDBRANCH   8  15
TORSDOF 7
ENDMDL
MODEL      129
REMARK 921   NORMALIZED FREE ENERGY PREDICTED BY IDOCK:   -4.89 KCAL/MOL
REMARK 922        TOTAL FREE ENERGY PREDICTED BY IDOCK:   -8.24 KCAL/MOL
REMARK 923 INTER-LIGAND FREE ENERGY PREDICTED BY IDOCK:   -6.73 KCAL/MOL
REMARK 924 INTRA-LIGAND FREE ENERGY PREDICTED BY IDOCK:   -1.51 KCAL/MOL
REMARK 927      BINDING AFFINITY PREDICTED BY RF-SCORE:    0.00 PKD
ROOT
HETATM    1  C   UNL     1      -8.455   6.476  68.047  1.00  0.00    -0.119 C  
HETATM    2  S   UNL     1     -10.063   5.798  68.453  1.00  0.00    -0.187 SA 
HETATM    3  CG2 UNL     1     -10.084   4.557  67.160  1.00  0.00    -0.112 C  
HETATM    4  CB  UNL     1      -9.530   4.956  65.796  1.00  0.00    -0.172 C  
HETATM    5  O   UNL     1      -7.695   8.993  66.069  1.00  0.00    -0.093 OA 
HETATM    6  CA  UNL     1      -8.719   6.039  65.595  1.00  0.00    -0.137 C  
HETATM    7  N   UNL     1      -8.413   6.863  66.647  1.00  0.00    -0.117 N  
HETATM    8  CA  UNL     1      -8.267   7.998  68.381  1.00  0.00    -0.123 C  
HETATM    9  C   UNL     1      -8.143   6.342  64.220  1.00  0.00    -0.063 C  
HETATM   10  C   UNL     1      -7.973   8.117  66.855  1.00  0.00    -0.104 C  
HETATM   11  OXT UNL     1      -7.935   5.485  63.374  1.00  0.00    -0.090 OA 
HETATM   12  O   UNL     1      -7.817   7.621  63.952  1.00  0.00    -0.124 OA 
ENDROOT
BRANCH   4  13
HETATM   13  CG1 UNL     1     -10.031   4.087  64.714  1.00  0.00    -0.210 C  
HETATM   14  CD1 UNL     1      -9.753   2.790  64.510  1.00  0.00    -0.098 C  
ENDBRANCH   4  13
BRANCH   8  15
HETATM   15  N   UNL     1      -9.461   8.794  68.821  1.00  0.00    -0.141 N  
HETATM   16  H   UNL     1     -10.383   8.358  68.822  1.00  0.00     0.000 HD 
HETATM   17  C   UNL     1      -9.327  10.106  69.222  1.00  0.00    -0.215 C  
HETATM   18  O   UNL     1      -8.270  10.717  69.150  1.00  0.00    -0.154 OA 
BRANCH  17  19
HETATM   19  C   UNL     1     -10.591  10.817  69.713  1.00  0.00    -0.140 C  
BRANCH  19  20
HETATM   20  C   UNL     1     -11.476  10.146  70.662  1.00  0.00    -0.349 A  
HETATM   21  N   UNL     1     -11.873   7.483  72.917  1.00  0.00    -0.594 NA 
HETATM   22  C   UNL     1     -12.754  10.561  70.992  1.00  0.00    -0.408 A  
HETATM   23  N   UNL     1     -11.062   8.993  71.332  1.00  0.00    -0.300 NA 
HETATM   24  C   UNL     1     -12.003   8.566  72.137  1.00  0.00    -0.383 A  
HETATM   25  S   UNL     1     -13.443   9.497  72.146  1.00  0.00    -0.421 SA 
HETATM   26  H2  UNL     1     -12.644   7.208  73.527  1.00  0.00     0.000 HD 
HETATM   27  H1  UNL     1     -11.017   6.928  72.912  1.00  0.00     0.000 HD 
ENDBRANCH  19  20
BRANCH  19  28
HETATM   28  N   UNL     1     -10.998  12.007  69.355  1.00  0.00    -0.438 NA 
HETATM   29  H   UNL     1     -11.036  12.786  70.011  1.00  0.00     0.000 HD 
BRANCH  28  30
HETATM   30  O   UNL     1     -11.377  12.144  68.018  1.00  0.00    -0.251 OA 
BRANCH  30  31
HETATM   31  C   UNL     1     -12.035  13.406  67.864  1.00  0.00    -0.323 C  
HETATM   32  O   UNL     1     -11.948  15.549  69.005  1.00  0.00    -0.354 OA 
HETATM   33  C   UNL     1     -11.345  14.601  68.518  1.00  0.00    -0.284 C  
HETATM   34  O   UNL     1      -9.993  14.566  68.451  1.00  0.00    -0.227 OA 
ENDBRANCH  30  31
ENDBRANCH  28  30
ENDBRANCH  19  28
ENDBRANCH  17  19
ENDBRANCH   8  15
TORSDOF 7
ENDMDL
MODEL      130
REMARK 921   NORMALIZED FREE ENERGY PREDICTED BY IDOCK:   -4.89 KCAL/MOL
REMARK 922        TOTAL FREE ENERGY PREDICTED BY IDOCK:   -8.24 KCAL/MOL
REMARK 923 INTER-LIGAND FREE ENERGY PREDICTED BY IDOCK:   -6.79 KCAL/MOL
REMARK 924 INTRA-LIGAND FREE ENERGY PREDICTED BY IDOCK:   -1.44 KCAL/MOL
REMARK 927      BINDING AFFINITY PREDICTED BY RF-SCORE:    0.00 PKD
ROOT
HETATM    1  C   UNL     1      -7.920  10.599  68.340  1.00  0.00    -0.120 C  
HETATM    2  S   UNL     1      -9.638  10.908  68.749  1.00  0.00    -0.174 SA 
HETATM    3  CG2 UNL     1     -10.109   9.188  68.925  1.00  0.00    -0.197 C  
HETATM    4  CB  UNL     1      -9.527   8.195  67.924  1.00  0.00    -0.162 C  
HETATM    5  O   UNL     1      -6.513  10.249  65.387  1.00  0.00    -0.110 OA 
HETATM    6  CA  UNL     1      -8.429   8.455  67.150  1.00  0.00    -0.123 C  
HETATM    7  N   UNL     1      -7.830   9.686  67.213  1.00  0.00    -0.095 N  
HETATM    8  CA  UNL     1      -7.251  11.672  67.410  1.00  0.00    -0.128 C  
HETATM    9  C   UNL     1      -7.856   7.395  66.222  1.00  0.00    -0.106 C  
HETATM   10  C   UNL     1      -7.011  10.452  66.470  1.00  0.00    -0.112 C  
HETATM   11  OXT UNL     1      -7.968   6.194  66.421  1.00  0.00    -0.102 OA 
HETATM   12  O   UNL     1      -7.162   7.820  65.148  1.00  0.00    -0.061 OA 
ENDROOT
BRANCH   4  13
HETATM   13  CG1 UNL     1     -10.327   6.958  67.835  1.00  0.00    -0.239 C  
HETATM   14  CD1 UNL     1     -11.454   6.761  67.134  1.00  0.00     0.258 C  
ENDBRANCH   4  13
BRANCH   8  15
HETATM   15  N   UNL     1      -8.114  12.735  66.796  1.00  0.00    -0.404 N  
HETATM   16  H   UNL     1      -8.585  12.551  65.910  1.00  0.00     0.000 HD 
HETATM   17  C   UNL     1      -8.278  13.957  67.413  1.00  0.00    -0.187 C  
HETATM   18  O   UNL     1      -7.664  14.278  68.421  1.00  0.00    -0.118 OA 
BRANCH  17  19
HETATM   19  C   UNL     1      -9.226  14.955  66.743  1.00  0.00    -0.259 C  
BRANCH  19  20
HETATM   20  C   UNL     1     -10.479  14.481  66.159  1.00  0.00    -0.298 A  
HETATM   21  N   UNL     1     -12.294  13.879  63.213  1.00  0.00    -1.148 NA 
HETATM   22  C   UNL     1     -11.559  13.997  66.874  1.00  0.00    -0.386 A  
HETATM   23  N   UNL     1     -10.666  14.480  64.775  1.00  0.00    -0.417 NA 
HETATM   24  C   UNL     1     -11.850  14.008  64.471  1.00  0.00    -0.434 A  
HETATM   25  S   UNL     1     -12.821  13.543  65.806  1.00  0.00    -0.087 SA 
HETATM   26  H2  UNL     1     -13.225  13.498  63.046  1.00  0.00     0.000 HD 
HETATM   27  H1  UNL     1     -11.716  14.156  62.419  1.00  0.00     0.000 HD 
ENDBRANCH  19  20
BRANCH  19  28
HETATM   28  N   UNL     1      -9.032  16.241  66.615  1.00  0.00    -0.227 NA 
HETATM   29  H   UNL     1      -9.756  16.922  66.837  1.00  0.00     0.000 HD 
BRANCH  28  30
HETATM   30  O   UNL     1      -7.770  16.623  66.155  1.00  0.00    -0.289 OA 
BRANCH  30  31
HETATM   31  C   UNL     1      -7.581  18.009  66.458  1.00  0.00    -0.245 C  
HETATM   32  O   UNL     1      -8.359  19.517  68.198  1.00  0.00    -0.308 OA 
HETATM   33  C   UNL     1      -7.895  18.425  67.894  1.00  0.00    -0.256 C  
HETATM   34  O   UNL     1      -7.548  17.507  68.827  1.00  0.00    -0.261 OA 
ENDBRANCH  30  31
ENDBRANCH  28  30
ENDBRANCH  19  28
ENDBRANCH  17  19
ENDBRANCH   8  15
TORSDOF 7
ENDMDL
MODEL      131
REMARK 921   NORMALIZED FREE ENERGY PREDICTED BY IDOCK:   -4.88 KCAL/MOL
REMARK 922        TOTAL FREE ENERGY PREDICTED BY IDOCK:   -8.23 KCAL/MOL
REMARK 923 INTER-LIGAND FREE ENERGY PREDICTED BY IDOCK:   -7.01 KCAL/MOL
REMARK 924 INTRA-LIGAND FREE ENERGY PREDICTED BY IDOCK:   -1.22 KCAL/MOL
REMARK 927      BINDING AFFINITY PREDICTED BY RF-SCORE:    0.00 PKD
ROOT
HETATM    1  C   UNL     1      -8.861  11.722  66.916  1.00  0.00    -0.191 C  
HETATM    2  S   UNL     1      -9.213  10.205  66.030  1.00  0.00    -0.168 SA 
HETATM    3  CG2 UNL     1      -9.788  10.987  64.523  1.00  0.00    -0.290 C  
HETATM    4  CB  UNL     1     -10.654  12.234  64.667  1.00  0.00    -0.338 C  
HETATM    5  O   UNL     1     -10.798  13.450  68.937  1.00  0.00    -0.246 OA 
HETATM    6  CA  UNL     1     -10.724  12.980  65.812  1.00  0.00    -0.274 C  
HETATM    7  N   UNL     1     -10.034  12.580  66.927  1.00  0.00    -0.220 N  
HETATM    8  CA  UNL     1      -9.018  11.638  68.476  1.00  0.00    -0.138 C  
HETATM    9  C   UNL     1     -11.553  14.254  65.867  1.00  0.00    -0.358 C  
HETATM   10  C   UNL     1     -10.057  12.780  68.257  1.00  0.00    -0.237 C  
HETATM   11  OXT UNL     1     -11.792  14.945  64.888  1.00  0.00    -0.374 OA 
HETATM   12  O   UNL     1     -12.011  14.645  67.072  1.00  0.00    -0.382 OA 
ENDROOT
BRANCH   4  13
HETATM   13  CG1 UNL     1     -11.460  12.497  63.459  1.00  0.00    -0.570 C  
HETATM   14  CD1 UNL     1     -12.664  11.991  63.153  1.00  0.00    -0.286 C  
ENDBRANCH   4  13
BRANCH   8  15
HETATM   15  N   UNL     1      -9.615  10.399  69.076  1.00  0.00    -0.195 N  
HETATM   16  H   UNL     1     -10.620  10.357  69.248  1.00  0.00     0.000 HD 
HETATM   17  C   UNL     1      -8.824   9.317  69.397  1.00  0.00    -0.149 C  
HETATM   18  O   UNL     1      -7.604   9.339  69.310  1.00  0.00    -0.075 OA 
BRANCH  17  19
HETATM   19  C   UNL     1      -9.530   8.075  69.946  1.00  0.00    -0.160 C  
BRANCH  19  20
HETATM   20  C   UNL     1      -8.851   6.782  69.910  1.00  0.00    -0.141 A  
HETATM   21  N   UNL     1      -6.702   4.554  71.570  1.00  0.00    -0.030 NA 
HETATM   22  C   UNL     1      -8.958   5.854  68.890  1.00  0.00    -0.118 A  
HETATM   23  N   UNL     1      -8.019   6.382  70.957  1.00  0.00    -0.114 NA 
HETATM   24  C   UNL     1      -7.524   5.192  70.723  1.00  0.00    -0.074 A  
HETATM   25  S   UNL     1      -8.005   4.473  69.243  1.00  0.00    -0.069 SA 
HETATM   26  H2  UNL     1      -6.357   3.624  71.329  1.00  0.00     0.000 HD 
HETATM   27  H1  UNL     1      -6.416   4.982  72.450  1.00  0.00     0.000 HD 
ENDBRANCH  19  20
BRANCH  19  28
HETATM   28  N   UNL     1     -10.732   8.031  70.457  1.00  0.00    -0.225 NA 
HETATM   29  H   UNL     1     -11.457   7.418  70.083  1.00  0.00     0.000 HD 
BRANCH  28  30
HETATM   30  O   UNL     1     -10.963   8.875  71.545  1.00  0.00    -0.275 OA 
BRANCH  30  31
HETATM   31  C   UNL     1     -11.452   8.083  72.633  1.00  0.00    -0.402 C  
HETATM   32  O   UNL     1     -10.569   6.259  73.973  1.00  0.00    -0.280 OA 
HETATM   33  C   UNL     1     -10.390   7.355  73.455  1.00  0.00    -0.360 C  
HETATM   34  O   UNL     1      -9.245   8.055  73.630  1.00  0.00    -0.275 OA 
ENDBRANCH  30  31
ENDBRANCH  28  30
ENDBRANCH  19  28
ENDBRANCH  17  19
ENDBRANCH   8  15
TORSDOF 7
ENDMDL
MODEL      132
REMARK 921   NORMALIZED FREE ENERGY PREDICTED BY IDOCK:   -4.88 KCAL/MOL
REMARK 922        TOTAL FREE ENERGY PREDICTED BY IDOCK:   -8.23 KCAL/MOL
REMARK 923 INTER-LIGAND FREE ENERGY PREDICTED BY IDOCK:   -6.77 KCAL/MOL
REMARK 924 INTRA-LIGAND FREE ENERGY PREDICTED BY IDOCK:   -1.46 KCAL/MOL
REMARK 927      BINDING AFFINITY PREDICTED BY RF-SCORE:    0.00 PKD
ROOT
HETATM    1  C   UNL     1     -11.777  12.107  68.115  1.00  0.00    -0.341 C  
HETATM    2  S   UNL     1     -11.906  11.305  69.712  1.00  0.00    -0.392 SA 
HETATM    3  CG2 UNL     1     -12.492  12.744  70.606  1.00  0.00    -0.246 C  
HETATM    4  CB  UNL     1     -11.862  14.090  70.259  1.00  0.00    -0.373 C  
HETATM    5  O   UNL     1      -9.190  13.607  66.743  1.00  0.00    -0.246 OA 
HETATM    6  CA  UNL     1     -11.164  14.324  69.106  1.00  0.00    -0.270 C  
HETATM    7  N   UNL     1     -10.954  13.300  68.219  1.00  0.00    -0.246 N  
HETATM    8  CA  UNL     1     -10.665  11.532  67.167  1.00  0.00    -0.254 C  
HETATM    9  C   UNL     1     -10.622  15.709  68.787  1.00  0.00    -0.238 C  
HETATM   10  C   UNL     1     -10.120  12.991  67.209  1.00  0.00    -0.235 C  
HETATM   11  OXT UNL     1     -11.125  16.742  69.203  1.00  0.00    -0.266 OA 
HETATM   12  O   UNL     1      -9.551  15.783  67.972  1.00  0.00    -0.209 OA 
ENDROOT
BRANCH   4  13
HETATM   13  CG1 UNL     1     -12.028  15.080  71.341  1.00  0.00    -0.397 C  
HETATM   14  CD1 UNL     1     -13.157  15.400  71.991  1.00  0.00    -0.501 C  
ENDBRANCH   4  13
BRANCH   8  15
HETATM   15  N   UNL     1      -9.701  10.521  67.714  1.00  0.00    -0.159 N  
HETATM   16  H   UNL     1      -8.939  10.828  68.318  1.00  0.00     0.000 HD 
HETATM   17  C   UNL     1      -9.831   9.183  67.411  1.00  0.00    -0.184 C  
HETATM   18  O   UNL     1     -10.659   8.761  66.615  1.00  0.00    -0.226 OA 
BRANCH  17  19
HETATM   19  C   UNL     1      -8.838   8.219  68.065  1.00  0.00    -0.135 C  
BRANCH  19  20
HETATM   20  C   UNL     1      -7.581   7.907  67.389  1.00  0.00    -0.097 A  
HETATM   21  N   UNL     1      -6.009   7.106  64.352  1.00  0.00    -0.036 NA 
HETATM   22  C   UNL     1      -6.339   7.862  67.996  1.00  0.00    -0.051 A  
HETATM   23  N   UNL     1      -7.556   7.630  66.021  1.00  0.00    -0.085 NA 
HETATM   24  C   UNL     1      -6.331   7.388  65.622  1.00  0.00    -0.041 A  
HETATM   25  S   UNL     1      -5.131   7.465  66.845  1.00  0.00    -0.019 SA 
HETATM   26  H2  UNL     1      -5.034   6.934  64.108  1.00  0.00     0.000 HD 
HETATM   27  H1  UNL     1      -6.723   7.060  63.625  1.00  0.00     0.000 HD 
ENDBRANCH  19  20
BRANCH  19  28
HETATM   28  N   UNL     1      -8.996   7.603  69.207  1.00  0.00    -0.136 NA 
HETATM   29  H   UNL     1      -8.641   6.661  69.367  1.00  0.00     0.000 HD 
BRANCH  28  30
HETATM   30  O   UNL     1      -9.679   8.316  70.194  1.00  0.00    -0.174 OA 
BRANCH  30  31
HETATM   31  C   UNL     1     -10.209   7.381  71.140  1.00  0.00    -0.193 C  
HETATM   32  O   UNL     1     -12.393   6.400  71.560  1.00  0.00    -0.281 OA 
HETATM   33  C   UNL     1     -11.529   6.717  70.751  1.00  0.00    -0.353 C  
HETATM   34  O   UNL     1     -11.641   6.434  69.431  1.00  0.00    -0.382 OA 
ENDBRANCH  30  31
ENDBRANCH  28  30
ENDBRANCH  19  28
ENDBRANCH  17  19
ENDBRANCH   8  15
TORSDOF 7
ENDMDL
MODEL      133
REMARK 921   NORMALIZED FREE ENERGY PREDICTED BY IDOCK:   -4.88 KCAL/MOL
REMARK 922        TOTAL FREE ENERGY PREDICTED BY IDOCK:   -8.23 KCAL/MOL
REMARK 923 INTER-LIGAND FREE ENERGY PREDICTED BY IDOCK:   -6.51 KCAL/MOL
REMARK 924 INTRA-LIGAND FREE ENERGY PREDICTED BY IDOCK:   -1.72 KCAL/MOL
REMARK 927      BINDING AFFINITY PREDICTED BY RF-SCORE:    0.00 PKD
ROOT
HETATM    1  C   UNL     1      -8.618   7.992  66.544  1.00  0.00    -0.140 C  
HETATM    2  S   UNL     1      -7.719   8.934  67.775  1.00  0.00    -0.101 SA 
HETATM    3  CG2 UNL     1      -6.441   7.710  68.063  1.00  0.00    -0.054 C  
HETATM    4  CB  UNL     1      -6.869   6.246  68.101  1.00  0.00    -0.070 C  
HETATM    5  O   UNL     1     -11.145   5.923  66.942  1.00  0.00    -0.263 OA 
HETATM    6  CA  UNL     1      -8.055   5.789  67.595  1.00  0.00    -0.102 C  
HETATM    7  N   UNL     1      -8.954   6.678  67.066  1.00  0.00    -0.116 N  
HETATM    8  CA  UNL     1     -10.163   8.267  66.489  1.00  0.00    -0.193 C  
HETATM    9  C   UNL     1      -8.390   4.306  67.602  1.00  0.00    -0.098 C  
HETATM   10  C   UNL     1     -10.268   6.740  66.782  1.00  0.00    -0.202 C  
HETATM   11  OXT UNL     1      -7.543   3.424  67.579  1.00  0.00    -0.068 OA 
HETATM   12  O   UNL     1      -9.693   3.964  67.597  1.00  0.00    -0.179 OA 
ENDROOT
BRANCH   4  13
HETATM   13  CG1 UNL     1      -5.893   5.398  68.814  1.00  0.00    -0.016 C  
HETATM   14  CD1 UNL     1      -5.749   5.253  70.140  1.00  0.00    -0.016 C  
ENDBRANCH   4  13
BRANCH   8  15
HETATM   15  N   UNL     1     -10.783   9.121  67.556  1.00  0.00    -0.423 N  
HETATM   16  H   UNL     1     -11.071   8.695  68.437  1.00  0.00     0.000 HD 
HETATM   17  C   UNL     1     -10.969  10.472  67.361  1.00  0.00    -0.288 C  
HETATM   18  O   UNL     1     -10.740  11.026  66.295  1.00  0.00    -0.260 OA 
BRANCH  17  19
HETATM   19  C   UNL     1     -11.552  11.272  68.529  1.00  0.00    -0.315 C  
BRANCH  19  20
HETATM   20  C   UNL     1     -11.825  10.602  69.799  1.00  0.00    -0.304 A  
HETATM   21  N   UNL     1     -10.595   8.485  72.318  1.00  0.00    -0.339 NA 
HETATM   22  C   UNL     1     -13.001  10.706  70.518  1.00  0.00    -0.205 A  
HETATM   23  N   UNL     1     -10.864   9.783  70.395  1.00  0.00    -0.287 NA 
HETATM   24  C   UNL     1     -11.313   9.294  71.525  1.00  0.00    -0.385 A  
HETATM   25  S   UNL     1     -12.906   9.767  71.950  1.00  0.00    -0.427 SA 
HETATM   26  H2  UNL     1     -11.003   8.145  73.188  1.00  0.00     0.000 HD 
HETATM   27  H1  UNL     1      -9.648   8.204  72.065  1.00  0.00     0.000 HD 
ENDBRANCH  19  20
BRANCH  19  28
HETATM   28  N   UNL     1     -11.860  12.542  68.520  1.00  0.00    -0.315 NA 
HETATM   29  H   UNL     1     -12.652  12.903  67.989  1.00  0.00     0.000 HD 
BRANCH  28  30
HETATM   30  O   UNL     1     -11.038  13.374  69.284  1.00  0.00    -0.235 OA 
BRANCH  30  31
HETATM   31  C   UNL     1      -9.959  13.823  68.456  1.00  0.00    -0.217 C  
HETATM   32  O   UNL     1      -9.692  14.341  66.097  1.00  0.00    -0.297 OA 
HETATM   33  C   UNL     1     -10.359  14.445  67.120  1.00  0.00    -0.262 C  
HETATM   34  O   UNL     1     -11.487  15.192  67.170  1.00  0.00    -0.330 OA 
ENDBRANCH  30  31
ENDBRANCH  28  30
ENDBRANCH  19  28
ENDBRANCH  17  19
ENDBRANCH   8  15
TORSDOF 7
ENDMDL
MODEL      134
REMARK 921   NORMALIZED FREE ENERGY PREDICTED BY IDOCK:   -4.86 KCAL/MOL
REMARK 922        TOTAL FREE ENERGY PREDICTED BY IDOCK:   -8.20 KCAL/MOL
REMARK 923 INTER-LIGAND FREE ENERGY PREDICTED BY IDOCK:   -6.37 KCAL/MOL
REMARK 924 INTRA-LIGAND FREE ENERGY PREDICTED BY IDOCK:   -1.82 KCAL/MOL
REMARK 927      BINDING AFFINITY PREDICTED BY RF-SCORE:    0.00 PKD
ROOT
HETATM    1  C   UNL     1     -11.964  12.050  67.926  1.00  0.00    -0.134 C  
HETATM    2  S   UNL     1     -11.884  11.680  69.678  1.00  0.00    -0.357 SA 
HETATM    3  CG2 UNL     1     -12.333  13.319  70.245  1.00  0.00    -0.264 C  
HETATM    4  CB  UNL     1     -11.746  14.508  69.490  1.00  0.00    -0.361 C  
HETATM    5  O   UNL     1      -9.574  13.051  65.899  1.00  0.00    -0.220 OA 
HETATM    6  CA  UNL     1     -11.207  14.418  68.236  1.00  0.00    -0.275 C  
HETATM    7  N   UNL     1     -11.126  13.196  67.618  1.00  0.00    -0.261 N  
HETATM    8  CA  UNL     1     -10.995  11.211  67.020  1.00  0.00    -0.289 C  
HETATM    9  C   UNL     1     -10.702  15.654  67.509  1.00  0.00    -0.303 C  
HETATM   10  C   UNL     1     -10.438  12.611  66.622  1.00  0.00    -0.245 C  
HETATM   11  OXT UNL     1     -11.137  16.779  67.712  1.00  0.00    -0.269 OA 
HETATM   12  O   UNL     1      -9.750  15.479  66.572  1.00  0.00    -0.243 OA 
ENDROOT
BRANCH   4  13
HETATM   13  CG1 UNL     1     -11.757  15.743  70.298  1.00  0.00    -0.373 C  
HETATM   14  CD1 UNL     1     -11.766  15.847  71.635  1.00  0.00    -0.563 C  
ENDBRANCH   4  13
BRANCH   8  15
HETATM   15  N   UNL     1      -9.973  10.329  67.678  1.00  0.00    -0.173 N  
HETATM   16  H   UNL     1      -9.201  10.753  68.193  1.00  0.00     0.000 HD 
HETATM   17  C   UNL     1     -10.065   8.957  67.594  1.00  0.00    -0.218 C  
HETATM   18  O   UNL     1     -10.905   8.389  66.911  1.00  0.00    -0.211 OA 
BRANCH  17  19
HETATM   19  C   UNL     1      -9.012   8.141  68.349  1.00  0.00    -0.136 C  
BRANCH  19  20
HETATM   20  C   UNL     1      -9.420   6.959  69.106  1.00  0.00    -0.142 A  
HETATM   21  N   UNL     1      -9.640   3.454  69.169  1.00  0.00    -0.129 NA 
HETATM   22  C   UNL     1      -9.968   6.975  70.375  1.00  0.00    -0.179 A  
HETATM   23  N   UNL     1      -9.264   5.679  68.569  1.00  0.00    -0.120 NA 
HETATM   24  C   UNL     1      -9.683   4.771  69.416  1.00  0.00    -0.196 A  
HETATM   25  S   UNL     1     -10.297   5.375  70.899  1.00  0.00    -0.232 SA 
HETATM   26  H2  UNL     1      -9.977   2.800  69.875  1.00  0.00     0.000 HD 
HETATM   27  H1  UNL     1      -9.275   3.095  68.287  1.00  0.00     0.000 HD 
ENDBRANCH  19  20
BRANCH  19  28
HETATM   28  N   UNL     1      -7.732   8.397  68.410  1.00  0.00    -0.103 NA 
HETATM   29  H   UNL     1      -7.170   8.157  69.226  1.00  0.00     0.000 HD 
BRANCH  28  30
HETATM   30  O   UNL     1      -7.181   9.020  67.288  1.00  0.00    -0.082 OA 
BRANCH  30  31
HETATM   31  C   UNL     1      -6.104   9.857  67.721  1.00  0.00    -0.054 C  
HETATM   32  O   UNL     1      -5.774  12.252  67.977  1.00  0.00    -0.052 OA 
HETATM   33  C   UNL     1      -6.491  11.272  68.147  1.00  0.00    -0.056 C  
HETATM   34  O   UNL     1      -7.674  11.352  68.801  1.00  0.00    -0.132 OA 
ENDBRANCH  30  31
ENDBRANCH  28  30
ENDBRANCH  19  28
ENDBRANCH  17  19
ENDBRANCH   8  15
TORSDOF 7
ENDMDL
MODEL      135
REMARK 921   NORMALIZED FREE ENERGY PREDICTED BY IDOCK:   -4.83 KCAL/MOL
REMARK 922        TOTAL FREE ENERGY PREDICTED BY IDOCK:   -8.15 KCAL/MOL
REMARK 923 INTER-LIGAND FREE ENERGY PREDICTED BY IDOCK:   -6.66 KCAL/MOL
REMARK 924 INTRA-LIGAND FREE ENERGY PREDICTED BY IDOCK:   -1.50 KCAL/MOL
REMARK 927      BINDING AFFINITY PREDICTED BY RF-SCORE:    0.00 PKD
ROOT
HETATM    1  C   UNL     1     -11.481  11.598  67.584  1.00  0.00    -0.303 C  
HETATM    2  S   UNL     1     -12.202  11.723  69.220  1.00  0.00    -0.026 SA 
HETATM    3  CG2 UNL     1     -11.816  13.454  69.472  1.00  0.00    -0.332 C  
HETATM    4  CB  UNL     1     -10.457  13.948  68.985  1.00  0.00    -0.147 C  
HETATM    5  O   UNL     1      -8.435  10.708  66.715  1.00  0.00    -0.129 OA 
HETATM    6  CA  UNL     1      -9.684  13.271  68.081  1.00  0.00    -0.227 C  
HETATM    7  N   UNL     1     -10.101  12.053  67.610  1.00  0.00    -0.194 N  
HETATM    8  CA  UNL     1     -10.913  10.183  67.210  1.00  0.00    -0.183 C  
HETATM    9  C   UNL     1      -8.370  13.853  67.584  1.00  0.00    -0.181 C  
HETATM   10  C   UNL     1      -9.576  10.962  67.024  1.00  0.00    -0.173 C  
HETATM   11  OXT UNL     1      -8.141  15.052  67.534  1.00  0.00    -0.152 OA 
HETATM   12  O   UNL     1      -7.435  12.988  67.145  1.00  0.00    -0.115 OA 
ENDROOT
BRANCH   4  13
HETATM   13  CG1 UNL     1     -10.042  15.194  69.658  1.00  0.00    -0.202 C  
HETATM   14  CD1 UNL     1     -10.723  16.347  69.738  1.00  0.00    -0.324 C  
ENDBRANCH   4  13
BRANCH   8  15
HETATM   15  N   UNL     1     -10.843   9.128  68.275  1.00  0.00    -0.454 N  
HETATM   16  H   UNL     1     -10.777   9.406  69.255  1.00  0.00     0.000 HD 
HETATM   17  C   UNL     1     -10.866   7.789  67.947  1.00  0.00    -0.010 C  
HETATM   18  O   UNL     1     -10.842   7.389  66.792  1.00  0.00    -0.303 OA 
BRANCH  17  19
HETATM   19  C   UNL     1     -10.853   6.787  69.105  1.00  0.00    -0.258 C  
BRANCH  19  20
HETATM   20  C   UNL     1     -10.940   7.272  70.481  1.00  0.00    -0.260 A  
HETATM   21  N   UNL     1     -12.993   8.651  72.975  1.00  0.00    -0.684 NA 
HETATM   22  C   UNL     1      -9.900   7.275  71.393  1.00  0.00    -0.186 A  
HETATM   23  N   UNL     1     -12.141   7.776  70.985  1.00  0.00    -0.281 NA 
HETATM   24  C   UNL     1     -11.997   8.143  72.235  1.00  0.00    -0.377 A  
HETATM   25  S   UNL     1     -10.428   7.921  72.891  1.00  0.00    -0.331 SA 
HETATM   26  H2  UNL     1     -12.814   8.910  73.945  1.00  0.00     0.000 HD 
HETATM   27  H1  UNL     1     -13.926   8.784  72.585  1.00  0.00     0.000 HD 
ENDBRANCH  19  20
BRANCH  19  28
HETATM   28  N   UNL     1     -10.755   5.488  69.003  1.00  0.00    -0.213 NA 
HETATM   29  H   UNL     1     -11.571   4.879  69.042  1.00  0.00     0.000 HD 
BRANCH  28  30
HETATM   30  O   UNL     1      -9.462   4.986  68.835  1.00  0.00    -0.122 OA 
BRANCH  30  31
HETATM   31  C   UNL     1      -9.501   3.569  69.033  1.00  0.00    -0.143 C  
HETATM   32  O   UNL     1      -8.667   2.038  70.726  1.00  0.00    -0.050 OA 
HETATM   33  C   UNL     1      -9.239   3.088  70.459  1.00  0.00    -0.140 C  
HETATM   34  O   UNL     1      -9.760   3.887  71.419  1.00  0.00    -0.159 OA 
ENDBRANCH  30  31
ENDBRANCH  28  30
ENDBRANCH  19  28
ENDBRANCH  17  19
ENDBRANCH   8  15
TORSDOF 7
ENDMDL
MODEL      136
REMARK 921   NORMALIZED FREE ENERGY PREDICTED BY IDOCK:   -4.79 KCAL/MOL
REMARK 922        TOTAL FREE ENERGY PREDICTED BY IDOCK:   -8.10 KCAL/MOL
REMARK 923 INTER-LIGAND FREE ENERGY PREDICTED BY IDOCK:   -7.19 KCAL/MOL
REMARK 924 INTRA-LIGAND FREE ENERGY PREDICTED BY IDOCK:   -0.90 KCAL/MOL
REMARK 927      BINDING AFFINITY PREDICTED BY RF-SCORE:    0.00 PKD
ROOT
HETATM    1  C   UNL     1      -9.566  19.217  67.636  1.00  0.00    -0.315 C  
HETATM    2  S   UNL     1      -9.800  18.436  69.232  1.00  0.00     0.095 SA 
HETATM    3  CG2 UNL     1      -8.682  19.503  70.138  1.00  0.00     1.260 C  
HETATM    4  CB  UNL     1      -7.381  19.903  69.450  1.00  0.00    -0.143 C  
HETATM    5  O   UNL     1      -7.434  18.471  65.245  1.00  0.00    -0.366 OA 
HETATM    6  CA  UNL     1      -7.175  19.801  68.101  1.00  0.00    -0.294 C  
HETATM    7  N   UNL     1      -8.152  19.264  67.304  1.00  0.00    -0.262 N  
HETATM    8  CA  UNL     1      -9.735  18.270  66.396  1.00  0.00    -0.334 C  
HETATM    9  C   UNL     1      -5.879  20.283  67.468  1.00  0.00    -0.186 C  
HETATM   10  C   UNL     1      -8.270  18.701  66.087  1.00  0.00    -0.163 C  
HETATM   11  OXT UNL     1      -5.187  21.171  67.943  1.00  0.00    -0.249 OA 
HETATM   12  O   UNL     1      -5.508  19.715  66.304  1.00  0.00    -0.161 OA 
ENDROOT
BRANCH   4  13
HETATM   13  CG1 UNL     1      -6.349  20.337  70.412  1.00  0.00    -0.253 C  
HETATM   14  CD1 UNL     1      -5.576  19.562  71.188  1.00  0.00    -0.264 C  
ENDBRANCH   4  13
BRANCH   8  15
HETATM   15  N   UNL     1      -9.884  16.795  66.629  1.00  0.00    -0.264 N  
HETATM   16  H   UNL     1      -9.617  16.398  67.530  1.00  0.00     0.000 HD 
HETATM   17  C   UNL     1     -10.377  15.969  65.641  1.00  0.00    -0.392 C  
HETATM   18  O   UNL     1     -10.620  16.362  64.509  1.00  0.00    -0.544 OA 
BRANCH  17  19
HETATM   19  C   UNL     1     -10.551  14.489  65.992  1.00  0.00    -0.307 C  
BRANCH  19  20
HETATM   20  C   UNL     1     -11.101  13.570  64.998  1.00  0.00    -0.328 A  
HETATM   21  N   UNL     1     -10.422  11.046  62.653  1.00  0.00    -0.701 NA 
HETATM   22  C   UNL     1     -12.441  13.451  64.677  1.00  0.00    -0.331 A  
HETATM   23  N   UNL     1     -10.266  12.710  64.282  1.00  0.00    -0.353 NA 
HETATM   24  C   UNL     1     -10.965  11.972  63.456  1.00  0.00    -0.444 A  
HETATM   25  S   UNL     1     -12.656  12.256  63.467  1.00  0.00    -0.365 SA 
HETATM   26  H2  UNL     1     -11.026  10.500  62.037  1.00  0.00     0.000 HD 
HETATM   27  H1  UNL     1      -9.417  10.877  62.646  1.00  0.00     0.000 HD 
ENDBRANCH  19  20
BRANCH  19  28
HETATM   28  N   UNL     1     -10.265  13.927  67.137  1.00  0.00    -0.256 NA 
HETATM   29  H   UNL     1      -9.419  13.374  67.271  1.00  0.00     0.000 HD 
BRANCH  28  30
HETATM   30  O   UNL     1     -11.190  14.129  68.164  1.00  0.00    -0.256 OA 
BRANCH  30  31
HETATM   31  C   UNL     1     -12.091  13.017  68.184  1.00  0.00    -0.157 C  
HETATM   32  O   UNL     1     -12.218  10.921  69.407  1.00  0.00    -0.336 OA 
HETATM   33  C   UNL     1     -12.026  12.131  69.426  1.00  0.00    -0.270 C  
HETATM   34  O   UNL     1     -11.808  12.805  70.580  1.00  0.00    -0.253 OA 
ENDBRANCH  30  31
ENDBRANCH  28  30
ENDBRANCH  19  28
ENDBRANCH  17  19
ENDBRANCH   8  15
TORSDOF 7
ENDMDL
MODEL      137
REMARK 921   NORMALIZED FREE ENERGY PREDICTED BY IDOCK:   -4.74 KCAL/MOL
REMARK 922        TOTAL FREE ENERGY PREDICTED BY IDOCK:   -8.03 KCAL/MOL
REMARK 923 INTER-LIGAND FREE ENERGY PREDICTED BY IDOCK:   -6.98 KCAL/MOL
REMARK 924 INTRA-LIGAND FREE ENERGY PREDICTED BY IDOCK:   -1.05 KCAL/MOL
REMARK 927      BINDING AFFINITY PREDICTED BY RF-SCORE:    0.00 PKD
ROOT
HETATM    1  C   UNL     1     -11.518   6.708  70.145  1.00  0.00    -0.385 C  
HETATM    2  S   UNL     1     -10.663   6.055  68.712  1.00  0.00    -0.313 SA 
HETATM    3  CG2 UNL     1      -9.991   4.608  69.527  1.00  0.00    -0.196 C  
HETATM    4  CB  UNL     1      -9.475   4.782  70.952  1.00  0.00    -0.230 C  
HETATM    5  O   UNL     1     -10.464   8.866  72.394  1.00  0.00    -0.264 OA 
HETATM    6  CA  UNL     1      -9.804   5.841  71.753  1.00  0.00    -0.166 C  
HETATM    7  N   UNL     1     -10.595   6.846  71.258  1.00  0.00    -0.219 N  
HETATM    8  CA  UNL     1     -11.660   8.271  70.185  1.00  0.00     0.102 C  
HETATM    9  C   UNL     1      -9.312   5.920  73.190  1.00  0.00    -0.139 C  
HETATM   10  C   UNL     1     -10.883   8.132  71.529  1.00  0.00    -0.238 C  
HETATM   11  OXT UNL     1      -9.045   4.936  73.864  1.00  0.00    -0.113 OA 
HETATM   12  O   UNL     1      -9.204   7.143  73.743  1.00  0.00    -0.176 OA 
ENDROOT
BRANCH   4  13
HETATM   13  CG1 UNL     1      -8.524   3.720  71.335  1.00  0.00    -0.094 C  
HETATM   14  CD1 UNL     1      -7.720   3.011  70.528  1.00  0.00    -0.043 C  
ENDBRANCH   4  13
BRANCH   8  15
HETATM   15  N   UNL     1     -10.931   9.089  69.159  1.00  0.00    -0.426 N  
HETATM   16  H   UNL     1     -10.039   8.757  68.792  1.00  0.00     0.000 HD 
HETATM   17  C   UNL     1     -11.452  10.282  68.706  1.00  0.00    -0.113 C  
HETATM   18  O   UNL     1     -12.463  10.785  69.176  1.00  0.00    -0.377 OA 
BRANCH  17  19
HETATM   19  C   UNL     1     -10.668  11.015  67.614  1.00  0.00    -0.238 C  
BRANCH  19  20
HETATM   20  C   UNL     1      -9.209  11.058  67.677  1.00  0.00    -0.149 A  
HETATM   21  N   UNL     1      -6.383  11.950  69.562  1.00  0.00    -0.113 NA 
HETATM   22  C   UNL     1      -8.355  10.590  66.695  1.00  0.00    -0.131 A  
HETATM   23  N   UNL     1      -8.557  11.593  68.790  1.00  0.00    -0.079 NA 
HETATM   24  C   UNL     1      -7.258  11.523  68.640  1.00  0.00    -0.102 A  
HETATM   25  S   UNL     1      -6.724  10.827  67.167  1.00  0.00    -0.091 SA 
HETATM   26  H2  UNL     1      -5.383  11.860  69.384  1.00  0.00     0.000 HD 
HETATM   27  H1  UNL     1      -6.701  12.365  70.438  1.00  0.00     0.000 HD 
ENDBRANCH  19  20
BRANCH  19  28
HETATM   28  N   UNL     1     -11.177  11.648  66.590  1.00  0.00    -0.310 NA 
HETATM   29  H   UNL     1     -10.797  11.548  65.649  1.00  0.00     0.000 HD 
BRANCH  28  30
HETATM   30  O   UNL     1     -12.272  12.470  66.864  1.00  0.00    -0.511 OA 
BRANCH  30  31
HETATM   31  C   UNL     1     -12.360  13.461  65.835  1.00  0.00    -0.437 C  
HETATM   32  O   UNL     1     -12.194  13.453  63.411  1.00  0.00    -0.661 OA 
HETATM   33  C   UNL     1     -12.642  12.937  64.429  1.00  0.00    -0.317 C  
HETATM   34  O   UNL     1     -13.496  11.887  64.387  1.00  0.00    -0.447 OA 
ENDBRANCH  30  31
ENDBRANCH  28  30
ENDBRANCH  19  28
ENDBRANCH  17  19
ENDBRANCH   8  15
TORSDOF 7
ENDMDL
MODEL      138
REMARK 921   NORMALIZED FREE ENERGY PREDICTED BY IDOCK:   -4.73 KCAL/MOL
REMARK 922        TOTAL FREE ENERGY PREDICTED BY IDOCK:   -8.02 KCAL/MOL
REMARK 923 INTER-LIGAND FREE ENERGY PREDICTED BY IDOCK:   -6.84 KCAL/MOL
REMARK 924 INTRA-LIGAND FREE ENERGY PREDICTED BY IDOCK:   -1.18 KCAL/MOL
REMARK 927      BINDING AFFINITY PREDICTED BY RF-SCORE:    0.00 PKD
ROOT
HETATM    1  C   UNL     1     -12.052  12.720  67.790  1.00  0.00    -0.133 C  
HETATM    2  S   UNL     1     -11.763  11.952  69.383  1.00  0.00    -0.347 SA 
HETATM    3  CG2 UNL     1     -12.040  13.426  70.363  1.00  0.00    -0.333 C  
HETATM    4  CB  UNL     1     -11.492  14.743  69.821  1.00  0.00    -0.330 C  
HETATM    5  O   UNL     1      -9.897  14.104  65.724  1.00  0.00    -0.307 OA 
HETATM    6  CA  UNL     1     -11.129  14.932  68.516  1.00  0.00    -0.266 C  
HETATM    7  N   UNL     1     -11.199  13.885  67.633  1.00  0.00    -0.284 N  
HETATM    8  CA  UNL     1     -11.259  12.089  66.590  1.00  0.00    -0.327 C  
HETATM    9  C   UNL     1     -10.655  16.291  68.023  1.00  0.00    -0.308 C  
HETATM   10  C   UNL     1     -10.682  13.529  66.443  1.00  0.00    -0.287 C  
HETATM   11  OXT UNL     1     -10.996  17.348  68.534  1.00  0.00    -0.251 OA 
HETATM   12  O   UNL     1      -9.847  16.313  66.946  1.00  0.00    -0.235 OA 
ENDROOT
BRANCH   4  13
HETATM   13  CG1 UNL     1     -11.327  15.758  70.880  1.00  0.00    -0.426 C  
HETATM   14  CD1 UNL     1     -12.115  15.963  71.947  1.00  0.00    -0.578 C  
ENDBRANCH   4  13
BRANCH   8  15
HETATM   15  N   UNL     1     -10.211  11.055  66.881  1.00  0.00    -0.213 N  
HETATM   16  H   UNL     1      -9.849  10.959  67.829  1.00  0.00     0.000 HD 
HETATM   17  C   UNL     1      -9.733  10.234  65.883  1.00  0.00    -0.225 C  
HETATM   18  O   UNL     1     -10.050  10.363  64.709  1.00  0.00    -0.339 OA 
BRANCH  17  19
HETATM   19  C   UNL     1      -8.711   9.168  66.287  1.00  0.00    -0.140 C  
BRANCH  19  20
HETATM   20  C   UNL     1      -9.174   7.868  66.769  1.00  0.00    -0.166 A  
HETATM   21  N   UNL     1     -11.033   4.974  66.060  1.00  0.00    -0.744 NA 
HETATM   22  C   UNL     1      -8.864   7.318  68.000  1.00  0.00    -0.129 A  
HETATM   23  N   UNL     1      -9.990   7.061  65.974  1.00  0.00     0.266 NA 
HETATM   24  C   UNL     1     -10.276   5.943  66.595  1.00  0.00    -0.205 A  
HETATM   25  S   UNL     1      -9.605   5.780  68.164  1.00  0.00    -0.121 SA 
HETATM   26  H2  UNL     1     -11.212   4.125  66.595  1.00  0.00     0.000 HD 
HETATM   27  H1  UNL     1     -11.433   5.072  65.126  1.00  0.00     0.000 HD 
ENDBRANCH  19  20
BRANCH  19  28
HETATM   28  N   UNL     1      -7.410   9.295  66.263  1.00  0.00    -0.091 NA 
HETATM   29  H   UNL     1      -6.821   8.975  67.031  1.00  0.00     0.000 HD 
BRANCH  28  30
HETATM   30  O   UNL     1      -6.878   9.894  65.120  1.00  0.00    -0.109 OA 
BRANCH  30  31
HETATM   31  C   UNL     1      -6.995   8.971  64.031  1.00  0.00    -0.087 C  
HETATM   32  O   UNL     1      -5.503   7.397  62.934  1.00  0.00    -0.040 OA 
HETATM   33  C   UNL     1      -5.940   7.868  63.978  1.00  0.00    -0.057 C  
HETATM   34  O   UNL     1      -5.572   7.392  65.191  1.00  0.00    -0.032 OA 
ENDBRANCH  30  31
ENDBRANCH  28  30
ENDBRANCH  19  28
ENDBRANCH  17  19
ENDBRANCH   8  15
TORSDOF 7
ENDMDL
MODEL      139
REMARK 921   NORMALIZED FREE ENERGY PREDICTED BY IDOCK:   -4.72 KCAL/MOL
REMARK 922        TOTAL FREE ENERGY PREDICTED BY IDOCK:   -8.01 KCAL/MOL
REMARK 923 INTER-LIGAND FREE ENERGY PREDICTED BY IDOCK:   -7.09 KCAL/MOL
REMARK 924 INTRA-LIGAND FREE ENERGY PREDICTED BY IDOCK:   -0.92 KCAL/MOL
REMARK 927      BINDING AFFINITY PREDICTED BY RF-SCORE:    0.00 PKD
ROOT
HETATM    1  C   UNL     1      -7.998   7.424  68.118  1.00  0.00    -0.123 C  
HETATM    2  S   UNL     1      -9.201   6.867  69.323  1.00  0.00    -0.137 SA 
HETATM    3  CG2 UNL     1      -8.922   5.113  69.082  1.00  0.00    -0.100 C  
HETATM    4  CB  UNL     1      -8.703   4.627  67.652  1.00  0.00    -0.108 C  
HETATM    5  O   UNL     1      -8.415   8.127  64.931  1.00  0.00    -0.151 OA 
HETATM    6  CA  UNL     1      -8.361   5.452  66.616  1.00  0.00    -0.108 C  
HETATM    7  N   UNL     1      -8.254   6.803  66.830  1.00  0.00    -0.112 N  
HETATM    8  CA  UNL     1      -8.331   8.792  67.424  1.00  0.00    -0.109 C  
HETATM    9  C   UNL     1      -8.089   4.895  65.228  1.00  0.00    -0.115 C  
HETATM   10  C   UNL     1      -8.271   7.944  66.118  1.00  0.00    -0.117 C  
HETATM   11  OXT UNL     1      -7.684   3.759  65.026  1.00  0.00    -0.083 OA 
HETATM   12  O   UNL     1      -8.274   5.720  64.180  1.00  0.00    -0.131 OA 
ENDROOT
BRANCH   4  13
HETATM   13  CG1 UNL     1      -8.978   3.185  67.504  1.00  0.00    -0.186 C  
HETATM   14  CD1 UNL     1      -9.656   2.390  68.346  1.00  0.00    -0.112 C  
ENDBRANCH   4  13
BRANCH   8  15
HETATM   15  N   UNL     1      -9.673   9.418  67.666  1.00  0.00    -0.150 N  
HETATM   16  H   UNL     1     -10.520   8.884  67.467  1.00  0.00     0.000 HD 
HETATM   17  C   UNL     1      -9.777  10.702  68.155  1.00  0.00    -0.156 C  
HETATM   18  O   UNL     1      -8.807  11.429  68.320  1.00  0.00    -0.155 OA 
BRANCH  17  19
HETATM   19  C   UNL     1     -11.187  11.232  68.429  1.00  0.00    -0.262 C  
BRANCH  19  20
HETATM   20  C   UNL     1     -11.841  10.924  69.699  1.00  0.00    -0.344 A  
HETATM   21  N   UNL     1     -13.549  12.186  72.496  1.00  0.00    -0.513 NA 
HETATM   22  C   UNL     1     -11.986   9.657  70.234  1.00  0.00    -0.041 A  
HETATM   23  N   UNL     1     -12.393  11.939  70.483  1.00  0.00    -0.317 NA 
HETATM   24  C   UNL     1     -12.933  11.440  71.568  1.00  0.00    -0.399 A  
HETATM   25  S   UNL     1     -12.815   9.738  71.733  1.00  0.00    -0.453 SA 
HETATM   26  H2  UNL     1     -13.955  11.733  73.315  1.00  0.00     0.000 HD 
HETATM   27  H1  UNL     1     -13.619  13.199  72.398  1.00  0.00     0.000 HD 
ENDBRANCH  19  20
BRANCH  19  28
HETATM   28  N   UNL     1     -11.915  11.952  67.616  1.00  0.00    -0.583 NA 
HETATM   29  H   UNL     1     -12.866  12.235  67.849  1.00  0.00     0.000 HD 
BRANCH  28  30
HETATM   30  O   UNL     1     -11.308  12.308  66.410  1.00  0.00    -0.315 OA 
BRANCH  30  31
HETATM   31  C   UNL     1     -12.328  12.435  65.413  1.00  0.00    -0.237 C  
HETATM   32  O   UNL     1     -12.396  13.155  63.093  1.00  0.00    -0.677 OA 
HETATM   33  C   UNL     1     -11.841  12.499  63.967  1.00  0.00    -0.431 C  
HETATM   34  O   UNL     1     -10.777  11.705  63.703  1.00  0.00    -0.363 OA 
ENDBRANCH  30  31
ENDBRANCH  28  30
ENDBRANCH  19  28
ENDBRANCH  17  19
ENDBRANCH   8  15
TORSDOF 7
ENDMDL
MODEL      140
REMARK 921   NORMALIZED FREE ENERGY PREDICTED BY IDOCK:   -4.71 KCAL/MOL
REMARK 922        TOTAL FREE ENERGY PREDICTED BY IDOCK:   -8.00 KCAL/MOL
REMARK 923 INTER-LIGAND FREE ENERGY PREDICTED BY IDOCK:   -6.96 KCAL/MOL
REMARK 924 INTRA-LIGAND FREE ENERGY PREDICTED BY IDOCK:   -1.03 KCAL/MOL
REMARK 927      BINDING AFFINITY PREDICTED BY RF-SCORE:    0.00 PKD
ROOT
HETATM    1  C   UNL     1     -10.369  14.439  68.843  1.00  0.00    -0.231 C  
HETATM    2  S   UNL     1      -8.600  14.485  69.122  1.00  0.00     0.113 SA 
HETATM    3  CG2 UNL     1      -8.287  15.959  68.152  1.00  0.00    -0.162 C  
HETATM    4  CB  UNL     1      -9.055  16.112  66.842  1.00  0.00    -0.241 C  
HETATM    5  O   UNL     1     -12.069  12.865  66.506  1.00  0.00    -0.403 OA 
HETATM    6  CA  UNL     1     -10.187  15.406  66.540  1.00  0.00    -0.280 C  
HETATM    7  N   UNL     1     -10.653  14.462  67.418  1.00  0.00    -0.268 N  
HETATM    8  CA  UNL     1     -11.011  13.006  68.857  1.00  0.00    -0.230 C  
HETATM    9  C   UNL     1     -10.945  15.656  65.245  1.00  0.00    -0.364 C  
HETATM   10  C   UNL     1     -11.456  13.383  67.411  1.00  0.00    -0.333 C  
HETATM   11  OXT UNL     1     -10.935  16.727  64.656  1.00  0.00    -0.839 OA 
HETATM   12  O   UNL     1     -11.689  14.646  64.756  1.00  0.00    -0.391 OA 
ENDROOT
BRANCH   4  13
HETATM   13  CG1 UNL     1      -8.393  17.048  65.913  1.00  0.00    -0.016 C  
HETATM   14  CD1 UNL     1      -8.104  18.342  66.122  1.00  0.00    -0.201 C  
ENDBRANCH   4  13
BRANCH   8  15
HETATM   15  N   UNL     1     -10.107  11.810  68.908  1.00  0.00    -0.394 N  
HETATM   16  H   UNL     1      -9.238  11.813  68.373  1.00  0.00     0.000 HD 
HETATM   17  C   UNL     1     -10.435  10.708  69.668  1.00  0.00    -0.179 C  
HETATM   18  O   UNL     1     -11.504  10.599  70.251  1.00  0.00    -0.295 OA 
BRANCH  17  19
HETATM   19  C   UNL     1      -9.420   9.561  69.707  1.00  0.00    -0.210 C  
BRANCH  19  20
HETATM   20  C   UNL     1      -9.446   8.611  70.818  1.00  0.00    -0.190 A  
HETATM   21  N   UNL     1     -10.914   5.720  72.165  1.00  0.00    -0.247 NA 
HETATM   22  C   UNL     1      -8.617   8.656  71.924  1.00  0.00    -0.162 A  
HETATM   23  N   UNL     1     -10.347   7.545  70.825  1.00  0.00    -0.202 NA 
HETATM   24  C   UNL     1     -10.190   6.818  71.903  1.00  0.00    -0.189 A  
HETATM   25  S   UNL     1      -8.972   7.356  72.983  1.00  0.00    -0.162 SA 
HETATM   26  H2  UNL     1     -10.737   5.195  73.022  1.00  0.00     0.000 HD 
HETATM   27  H1  UNL     1     -11.639   5.400  71.523  1.00  0.00     0.000 HD 
ENDBRANCH  19  20
BRANCH  19  28
HETATM   28  N   UNL     1      -8.481   9.329  68.829  1.00  0.00    -0.127 NA 
HETATM   29  H   UNL     1      -8.044  10.078  68.293  1.00  0.00     0.000 HD 
BRANCH  28  30
HETATM   30  O   UNL     1      -8.114   7.991  68.669  1.00  0.00    -0.121 OA 
BRANCH  30  31
HETATM   31  C   UNL     1      -8.109   7.689  67.270  1.00  0.00    -0.119 C  
HETATM   32  O   UNL     1      -9.187   6.031  65.857  1.00  0.00    -0.146 OA 
HETATM   33  C   UNL     1      -9.280   6.848  66.766  1.00  0.00    -0.152 C  
HETATM   34  O   UNL     1     -10.463   7.130  67.361  1.00  0.00    -0.222 OA 
ENDBRANCH  30  31
ENDBRANCH  28  30
ENDBRANCH  19  28
ENDBRANCH  17  19
ENDBRANCH   8  15
TORSDOF 7
ENDMDL
MODEL      141
REMARK 921   NORMALIZED FREE ENERGY PREDICTED BY IDOCK:   -4.69 KCAL/MOL
REMARK 922        TOTAL FREE ENERGY PREDICTED BY IDOCK:   -7.96 KCAL/MOL
REMARK 923 INTER-LIGAND FREE ENERGY PREDICTED BY IDOCK:   -6.52 KCAL/MOL
REMARK 924 INTRA-LIGAND FREE ENERGY PREDICTED BY IDOCK:   -1.44 KCAL/MOL
REMARK 927      BINDING AFFINITY PREDICTED BY RF-SCORE:    0.00 PKD
ROOT
HETATM    1  C   UNL     1     -12.379  11.221  68.885  1.00  0.00     0.104 C  
HETATM    2  S   UNL     1     -12.255  10.555  70.544  1.00  0.00    -0.363 SA 
HETATM    3  CG2 UNL     1     -12.864  12.015  71.386  1.00  0.00    -0.288 C  
HETATM    4  CB  UNL     1     -12.401  13.371  70.862  1.00  0.00    -0.436 C  
HETATM    5  O   UNL     1     -10.108  12.797  67.100  1.00  0.00    -0.230 OA 
HETATM    6  CA  UNL     1     -11.861  13.559  69.619  1.00  0.00    -0.336 C  
HETATM    7  N   UNL     1     -11.660  12.480  68.796  1.00  0.00    -0.299 N  
HETATM    8  CA  UNL     1     -11.334  10.655  67.858  1.00  0.00    -0.268 C  
HETATM    9  C   UNL     1     -11.484  14.949  69.130  1.00  0.00    -0.302 C  
HETATM   10  C   UNL     1     -10.921  12.152  67.721  1.00  0.00    -0.233 C  
HETATM   11  OXT UNL     1     -12.029  15.970  69.522  1.00  0.00    -0.308 OA 
HETATM   12  O   UNL     1     -10.524  15.037  68.190  1.00  0.00    -0.239 OA 
ENDROOT
BRANCH   4  13
HETATM   13  CG1 UNL     1     -12.533  14.436  71.875  1.00  0.00    -0.387 C  
HETATM   14  CD1 UNL     1     -13.643  14.813  72.528  1.00  0.00    -0.571 C  
ENDBRANCH   4  13
BRANCH   8  15
HETATM   15  N   UNL     1     -10.227   9.777  68.363  1.00  0.00    -0.177 N  
HETATM   16  H   UNL     1      -9.602  10.124  69.091  1.00  0.00     0.000 HD 
HETATM   17  C   UNL     1     -10.043   8.509  67.856  1.00  0.00    -0.207 C  
HETATM   18  O   UNL     1     -10.691   8.071  66.916  1.00  0.00    -0.322 OA 
BRANCH  17  19
HETATM   19  C   UNL     1      -8.928   7.664  68.478  1.00  0.00    -0.129 C  
BRANCH  19  20
HETATM   20  C   UNL     1      -8.932   6.214  68.296  1.00  0.00    -0.114 A  
HETATM   21  N   UNL     1      -7.705   3.489  66.451  1.00  0.00    -0.083 NA 
HETATM   22  C   UNL     1      -9.637   5.316  69.076  1.00  0.00    -0.144 A  
HETATM   23  N   UNL     1      -8.182   5.619  67.280  1.00  0.00    -0.102 NA 
HETATM   24  C   UNL     1      -8.324   4.317  67.306  1.00  0.00    -0.100 A  
HETATM   25  S   UNL     1      -9.362   3.714  68.529  1.00  0.00    -0.148 SA 
HETATM   26  H2  UNL     1      -7.855   2.483  66.530  1.00  0.00     0.000 HD 
HETATM   27  H1  UNL     1      -7.088   3.848  65.723  1.00  0.00     0.000 HD 
ENDBRANCH  19  20
BRANCH  19  28
HETATM   28  N   UNL     1      -7.930   8.108  69.196  1.00  0.00    -0.111 NA 
HETATM   29  H   UNL     1      -7.488   7.539  69.917  1.00  0.00     0.000 HD 
BRANCH  28  30
HETATM   30  O   UNL     1      -7.509   9.410  68.916  1.00  0.00    -0.073 OA 
BRANCH  30  31
HETATM   31  C   UNL     1      -6.264   9.634  69.586  1.00  0.00    -0.044 C  
HETATM   32  O   UNL     1      -5.574  10.803  71.601  1.00  0.00    -0.327 OA 
HETATM   33  C   UNL     1      -6.362  10.041  71.054  1.00  0.00     0.030 C  
HETATM   34  O   UNL     1      -7.360   9.430  71.735  1.00  0.00    -0.313 OA 
ENDBRANCH  30  31
ENDBRANCH  28  30
ENDBRANCH  19  28
ENDBRANCH  17  19
ENDBRANCH   8  15
TORSDOF 7
ENDMDL
MODEL      142
REMARK 921   NORMALIZED FREE ENERGY PREDICTED BY IDOCK:   -4.68 KCAL/MOL
REMARK 922        TOTAL FREE ENERGY PREDICTED BY IDOCK:   -7.95 KCAL/MOL
REMARK 923 INTER-LIGAND FREE ENERGY PREDICTED BY IDOCK:   -6.46 KCAL/MOL
REMARK 924 INTRA-LIGAND FREE ENERGY PREDICTED BY IDOCK:   -1.49 KCAL/MOL
REMARK 927      BINDING AFFINITY PREDICTED BY RF-SCORE:    0.00 PKD
ROOT
HETATM    1  C   UNL     1     -12.077  11.459  68.603  1.00  0.00    -0.145 C  
HETATM    2  S   UNL     1     -12.046  11.134  70.365  1.00  0.00    -0.403 SA 
HETATM    3  CG2 UNL     1     -12.661  12.738  70.871  1.00  0.00    -0.192 C  
HETATM    4  CB  UNL     1     -12.146  13.958  70.114  1.00  0.00    -0.418 C  
HETATM    5  O   UNL     1      -9.693  12.624  66.658  1.00  0.00    -0.235 OA 
HETATM    6  CA  UNL     1     -11.544  13.890  68.887  1.00  0.00    -0.316 C  
HETATM    7  N   UNL     1     -11.329  12.668  68.303  1.00  0.00    -0.272 N  
HETATM    8  CA  UNL     1     -10.998  10.689  67.761  1.00  0.00    -0.306 C  
HETATM    9  C   UNL     1     -11.116  15.151  68.153  1.00  0.00    -0.304 C  
HETATM   10  C   UNL     1     -10.548  12.125  67.353  1.00  0.00    -0.226 C  
HETATM   11  OXT UNL     1     -11.656  16.236  68.308  1.00  0.00    -0.301 OA 
HETATM   12  O   UNL     1     -10.111  15.040  67.263  1.00  0.00    -0.234 OA 
ENDROOT
BRANCH   4  13
HETATM   13  CG1 UNL     1     -12.302  15.204  70.889  1.00  0.00    -0.412 C  
HETATM   14  CD1 UNL     1     -11.853  15.459  72.128  1.00  0.00    -0.536 C  
ENDBRANCH   4  13
BRANCH   8  15
HETATM   15  N   UNL     1      -9.935   9.915  68.484  1.00  0.00    -0.155 N  
HETATM   16  H   UNL     1      -9.190  10.417  68.969  1.00  0.00     0.000 HD 
HETATM   17  C   UNL     1      -9.952   8.538  68.501  1.00  0.00    -0.184 C  
HETATM   18  O   UNL     1     -10.756   7.876  67.859  1.00  0.00    -0.177 OA 
BRANCH  17  19
HETATM   19  C   UNL     1      -8.862   7.837  69.317  1.00  0.00    -0.139 C  
BRANCH  19  20
HETATM   20  C   UNL     1      -7.574   8.497  69.520  1.00  0.00    -0.089 A  
HETATM   21  N   UNL     1      -5.741  10.825  71.405  1.00  0.00    -0.339 NA 
HETATM   22  C   UNL     1      -6.429   8.254  68.783  1.00  0.00    -0.053 A  
HETATM   23  N   UNL     1      -7.412   9.454  70.524  1.00  0.00    -0.132 NA 
HETATM   24  C   UNL     1      -6.183   9.907  70.534  1.00  0.00    -0.101 A  
HETATM   25  S   UNL     1      -5.141   9.235  69.349  1.00  0.00    -0.036 SA 
HETATM   26  H2  UNL     1      -4.768  11.130  71.362  1.00  0.00     0.000 HD 
HETATM   27  H1  UNL     1      -6.360  11.225  72.110  1.00  0.00     0.000 HD 
ENDBRANCH  19  20
BRANCH  19  28
HETATM   28  N   UNL     1      -8.948   6.656  69.869  1.00  0.00    -0.144 NA 
HETATM   29  H   UNL     1      -8.517   5.831  69.452  1.00  0.00     0.000 HD 
BRANCH  28  30
HETATM   30  O   UNL     1      -9.665   6.593  71.066  1.00  0.00    -0.174 OA 
BRANCH  30  31
HETATM   31  C   UNL     1      -9.935   5.218  71.357  1.00  0.00    -0.185 C  
HETATM   32  O   UNL     1      -8.919   3.093  70.756  1.00  0.00    -0.080 OA 
HETATM   33  C   UNL     1      -8.775   4.250  71.135  1.00  0.00    -0.101 C  
HETATM   34  O   UNL     1      -7.561   4.752  71.464  1.00  0.00    -0.074 OA 
ENDBRANCH  30  31
ENDBRANCH  28  30
ENDBRANCH  19  28
ENDBRANCH  17  19
ENDBRANCH   8  15
TORSDOF 7
ENDMDL
MODEL      143
REMARK 921   NORMALIZED FREE ENERGY PREDICTED BY IDOCK:   -4.68 KCAL/MOL
REMARK 922        TOTAL FREE ENERGY PREDICTED BY IDOCK:   -7.94 KCAL/MOL
REMARK 923 INTER-LIGAND FREE ENERGY PREDICTED BY IDOCK:   -6.86 KCAL/MOL
REMARK 924 INTRA-LIGAND FREE ENERGY PREDICTED BY IDOCK:   -1.08 KCAL/MOL
REMARK 927      BINDING AFFINITY PREDICTED BY RF-SCORE:    0.00 PKD
ROOT
HETATM    1  C   UNL     1      -8.331   7.892  70.744  1.00  0.00    -0.115 C  
HETATM    2  S   UNL     1      -9.687   8.784  71.503  1.00  0.00    -0.307 SA 
HETATM    3  CG2 UNL     1     -10.288   7.419  72.496  1.00  0.00    -0.227 C  
HETATM    4  CB  UNL     1     -10.292   6.034  71.856  1.00  0.00    -0.251 C  
HETATM    5  O   UNL     1      -8.262   6.224  67.909  1.00  0.00    -0.113 OA 
HETATM    6  CA  UNL     1      -9.563   5.711  70.745  1.00  0.00    -0.169 C  
HETATM    7  N   UNL     1      -8.820   6.677  70.116  1.00  0.00    -0.141 N  
HETATM    8  CA  UNL     1      -7.937   8.372  69.303  1.00  0.00    -0.113 C  
HETATM    9  C   UNL     1      -9.557   4.292  70.197  1.00  0.00    -0.198 C  
HETATM   10  C   UNL     1      -8.260   6.898  68.913  1.00  0.00    -0.121 C  
HETATM   11  OXT UNL     1      -9.749   3.303  70.889  1.00  0.00    -0.171 OA 
HETATM   12  O   UNL     1      -9.288   4.134  68.887  1.00  0.00    -0.138 OA 
ENDROOT
BRANCH   4  13
HETATM   13  CG1 UNL     1     -11.229   5.112  72.527  1.00  0.00    -0.229 C  
HETATM   14  CD1 UNL     1     -11.134   4.607  73.767  1.00  0.00    -0.333 C  
ENDBRANCH   4  13
BRANCH   8  15
HETATM   15  N   UNL     1      -8.813   9.376  68.611  1.00  0.00    -0.131 N  
HETATM   16  H   UNL     1      -9.807   9.416  68.837  1.00  0.00     0.000 HD 
HETATM   17  C   UNL     1      -8.291  10.244  67.677  1.00  0.00    -0.114 C  
HETATM   18  O   UNL     1      -7.133  10.183  67.288  1.00  0.00    -0.086 OA 
BRANCH  17  19
HETATM   19  C   UNL     1      -9.249  11.274  67.071  1.00  0.00    -0.165 C  
BRANCH  19  20
HETATM   20  C   UNL     1      -9.644  11.156  65.669  1.00  0.00    -0.224 A  
HETATM   21  N   UNL     1     -12.099  11.837  63.251  1.00  0.00    -0.893 NA 
HETATM   22  C   UNL     1      -8.880  10.579  64.671  1.00  0.00    -0.196 A  
HETATM   23  N   UNL     1     -10.874  11.652  65.230  1.00  0.00    -0.292 NA 
HETATM   24  C   UNL     1     -11.018  11.449  63.943  1.00  0.00    -0.366 A  
HETATM   25  S   UNL     1      -9.710  10.652  63.173  1.00  0.00    -0.303 SA 
HETATM   26  H2  UNL     1     -12.145  11.654  62.249  1.00  0.00     0.000 HD 
HETATM   27  H1  UNL     1     -12.877  12.311  63.710  1.00  0.00     0.000 HD 
ENDBRANCH  19  20
BRANCH  19  28
HETATM   28  N   UNL     1      -9.769  12.303  67.686  1.00  0.00    -0.190 NA 
HETATM   29  H   UNL     1     -10.777  12.416  67.794  1.00  0.00     0.000 HD 
BRANCH  28  30
HETATM   30  O   UNL     1      -8.860  13.236  68.188  1.00  0.00    -0.178 OA 
BRANCH  30  31
HETATM   31  C   UNL     1      -8.549  14.167  67.146  1.00  0.00    -0.214 C  
HETATM   32  O   UNL     1      -9.815  15.294  65.404  1.00  0.00    -0.332 OA 
HETATM   33  C   UNL     1      -9.732  14.948  66.577  1.00  0.00    -0.276 C  
HETATM   34  O   UNL     1     -10.663  15.296  67.496  1.00  0.00    -0.272 OA 
ENDBRANCH  30  31
ENDBRANCH  28  30
ENDBRANCH  19  28
ENDBRANCH  17  19
ENDBRANCH   8  15
TORSDOF 7
ENDMDL
MODEL      144
REMARK 921   NORMALIZED FREE ENERGY PREDICTED BY IDOCK:   -4.65 KCAL/MOL
REMARK 922        TOTAL FREE ENERGY PREDICTED BY IDOCK:   -7.90 KCAL/MOL
REMARK 923 INTER-LIGAND FREE ENERGY PREDICTED BY IDOCK:   -7.07 KCAL/MOL
REMARK 924 INTRA-LIGAND FREE ENERGY PREDICTED BY IDOCK:   -0.83 KCAL/MOL
REMARK 927      BINDING AFFINITY PREDICTED BY RF-SCORE:    0.00 PKD
ROOT
HETATM    1  C   UNL     1     -10.799  13.305  67.804  1.00  0.00    -0.252 C  
HETATM    2  S   UNL     1      -9.044  13.173  68.139  1.00  0.00    -0.189 SA 
HETATM    3  CG2 UNL     1      -8.639  14.871  67.736  1.00  0.00    -0.167 C  
HETATM    4  CB  UNL     1      -9.339  15.492  66.531  1.00  0.00    -0.311 C  
HETATM    5  O   UNL     1     -12.439  12.693  65.017  1.00  0.00    -0.494 OA 
HETATM    6  CA  UNL     1     -10.479  14.983  65.971  1.00  0.00    -0.315 C  
HETATM    7  N   UNL     1     -11.015  13.820  66.462  1.00  0.00    -0.297 N  
HETATM    8  CA  UNL     1     -11.488  11.983  67.310  1.00  0.00    -0.335 C  
HETATM    9  C   UNL     1     -11.167  15.690  64.814  1.00  0.00    -0.382 C  
HETATM   10  C   UNL     1     -11.853  12.846  66.064  1.00  0.00    -0.430 C  
HETATM   11  OXT UNL     1     -11.095  16.895  64.623  1.00  0.00    -0.934 OA 
HETATM   12  O   UNL     1     -11.920  14.939  63.987  1.00  0.00    -0.425 OA 
ENDROOT
BRANCH   4  13
HETATM   13  CG1 UNL     1      -8.605  16.655  65.997  1.00  0.00    -0.229 C  
HETATM   14  CD1 UNL     1      -8.255  17.774  66.651  1.00  0.00    -0.287 C  
ENDBRANCH   4  13
BRANCH   8  15
HETATM   15  N   UNL     1     -10.626  10.799  66.982  1.00  0.00    -0.248 N  
HETATM   16  H   UNL     1     -10.254  10.694  66.038  1.00  0.00     0.000 HD 
HETATM   17  C   UNL     1     -10.332   9.852  67.939  1.00  0.00    -0.212 C  
HETATM   18  O   UNL     1     -10.826   9.865  69.058  1.00  0.00    -0.218 OA 
BRANCH  17  19
HETATM   19  C   UNL     1      -9.395   8.713  67.529  1.00  0.00    -0.137 C  
BRANCH  19  20
HETATM   20  C   UNL     1      -8.352   8.958  66.535  1.00  0.00    -0.115 A  
HETATM   21  N   UNL     1      -6.736   7.803  63.638  1.00  0.00    -0.061 NA 
HETATM   22  C   UNL     1      -7.521  10.064  66.508  1.00  0.00    -0.105 A  
HETATM   23  N   UNL     1      -8.125   8.051  65.498  1.00  0.00    -0.120 NA 
HETATM   24  C   UNL     1      -7.157   8.471  64.723  1.00  0.00    -0.080 A  
HETATM   25  S   UNL     1      -6.445   9.963  65.176  1.00  0.00    -0.110 SA 
HETATM   26  H2  UNL     1      -5.980   8.190  63.073  1.00  0.00     0.000 HD 
HETATM   27  H1  UNL     1      -7.159   6.915  63.369  1.00  0.00     0.000 HD 
ENDBRANCH  19  20
BRANCH  19  28
HETATM   28  N   UNL     1      -9.428   7.485  67.974  1.00  0.00    -0.142 NA 
HETATM   29  H   UNL     1      -9.374   6.681  67.350  1.00  0.00     0.000 HD 
BRANCH  28  30
HETATM   30  O   UNL     1      -9.542   7.343  69.359  1.00  0.00    -0.155 OA 
BRANCH  30  31
HETATM   31  C   UNL     1      -8.276   7.652  69.949  1.00  0.00    -0.130 C  
HETATM   32  O   UNL     1      -6.403   6.356  70.797  1.00  0.00    -0.038 OA 
HETATM   33  C   UNL     1      -7.235   6.535  69.915  1.00  0.00    -0.077 C  
HETATM   34  O   UNL     1      -7.255   5.791  68.784  1.00  0.00    -0.077 OA 
ENDBRANCH  30  31
ENDBRANCH  28  30
ENDBRANCH  19  28
ENDBRANCH  17  19
ENDBRANCH   8  15
TORSDOF 7
ENDMDL
MODEL      145
REMARK 921   NORMALIZED FREE ENERGY PREDICTED BY IDOCK:   -4.64 KCAL/MOL
REMARK 922        TOTAL FREE ENERGY PREDICTED BY IDOCK:   -7.89 KCAL/MOL
REMARK 923 INTER-LIGAND FREE ENERGY PREDICTED BY IDOCK:   -6.40 KCAL/MOL
REMARK 924 INTRA-LIGAND FREE ENERGY PREDICTED BY IDOCK:   -1.49 KCAL/MOL
REMARK 927      BINDING AFFINITY PREDICTED BY RF-SCORE:    0.00 PKD
ROOT
HETATM    1  C   UNL     1     -11.370  12.931  67.467  1.00  0.00    -0.308 C  
HETATM    2  S   UNL     1     -11.993  12.002  68.867  1.00  0.00    -0.167 SA 
HETATM    3  CG2 UNL     1     -12.463  13.424  69.852  1.00  0.00    -0.093 C  
HETATM    4  CB  UNL     1     -11.523  14.625  69.842  1.00  0.00    -0.320 C  
HETATM    5  O   UNL     1      -8.307  13.962  66.849  1.00  0.00    -0.138 OA 
HETATM    6  CA  UNL     1     -10.562  14.828  68.889  1.00  0.00    -0.250 C  
HETATM    7  N   UNL     1     -10.371  13.891  67.907  1.00  0.00    -0.236 N  
HETATM    8  CA  UNL     1     -10.216  12.234  66.662  1.00  0.00    -0.216 C  
HETATM    9  C   UNL     1      -9.703  16.083  68.897  1.00  0.00    -0.232 C  
HETATM   10  C   UNL     1      -9.418  13.521  67.033  1.00  0.00    -0.251 C  
HETATM   11  OXT UNL     1     -10.072  17.148  69.371  1.00  0.00    -0.226 OA 
HETATM   12  O   UNL     1      -8.490  16.009  68.317  1.00  0.00    -0.169 OA 
ENDROOT
BRANCH   4  13
HETATM   13  CG1 UNL     1     -11.719  15.497  71.016  1.00  0.00    -0.423 C  
HETATM   14  CD1 UNL     1     -11.890  15.124  72.294  1.00  0.00    -0.493 C  
ENDBRANCH   4  13
BRANCH   8  15
HETATM   15  N   UNL     1      -9.608  10.978  67.212  1.00  0.00    -0.164 N  
HETATM   16  H   UNL     1      -9.149  10.998  68.124  1.00  0.00     0.000 HD 
HETATM   17  C   UNL     1      -9.661   9.797  66.503  1.00  0.00    -0.209 C  
HETATM   18  O   UNL     1     -10.105   9.726  65.366  1.00  0.00    -0.305 OA 
BRANCH  17  19
HETATM   19  C   UNL     1      -9.069   8.554  67.173  1.00  0.00    -0.140 C  
BRANCH  19  20
HETATM   20  C   UNL     1      -9.031   7.289  66.444  1.00  0.00    -0.158 A  
HETATM   21  N   UNL     1     -10.645   4.239  65.784  1.00  0.00    -0.482 NA 
HETATM   22  C   UNL     1      -8.038   6.907  65.560  1.00  0.00    -0.132 A  
HETATM   23  N   UNL     1     -10.050   6.346  66.597  1.00  0.00    -0.167 NA 
HETATM   24  C   UNL     1      -9.822   5.296  65.847  1.00  0.00    -0.088 A  
HETATM   25  S   UNL     1      -8.381   5.354  64.919  1.00  0.00    -0.141 SA 
HETATM   26  H2  UNL     1     -10.410   3.456  65.174  1.00  0.00     0.000 HD 
HETATM   27  H1  UNL     1     -11.502   4.205  66.336  1.00  0.00     0.000 HD 
ENDBRANCH  19  20
BRANCH  19  28
HETATM   28  N   UNL     1      -8.581   8.486  68.384  1.00  0.00    -0.138 NA 
HETATM   29  H   UNL     1      -9.105   8.075  69.156  1.00  0.00     0.000 HD 
BRANCH  28  30
HETATM   30  O   UNL     1      -7.298   9.012  68.554  1.00  0.00    -0.075 OA 
BRANCH  30  31
HETATM   31  C   UNL     1      -7.238   9.644  69.837  1.00  0.00    -0.106 C  
HETATM   32  O   UNL     1      -6.049  11.547  70.770  1.00  0.00    -0.348 OA 
HETATM   33  C   UNL     1      -6.706  11.075  69.849  1.00  0.00    -0.125 C  
HETATM   34  O   UNL     1      -7.083  11.818  68.782  1.00  0.00    -0.098 OA 
ENDBRANCH  30  31
ENDBRANCH  28  30
ENDBRANCH  19  28
ENDBRANCH  17  19
ENDBRANCH   8  15
TORSDOF 7
ENDMDL
MODEL      146
REMARK 921   NORMALIZED FREE ENERGY PREDICTED BY IDOCK:   -4.60 KCAL/MOL
REMARK 922        TOTAL FREE ENERGY PREDICTED BY IDOCK:   -7.83 KCAL/MOL
REMARK 923 INTER-LIGAND FREE ENERGY PREDICTED BY IDOCK:   -6.63 KCAL/MOL
REMARK 924 INTRA-LIGAND FREE ENERGY PREDICTED BY IDOCK:   -1.20 KCAL/MOL
REMARK 927      BINDING AFFINITY PREDICTED BY RF-SCORE:    0.00 PKD
ROOT
HETATM    1  C   UNL     1     -10.097  12.217  66.321  1.00  0.00    -0.234 C  
HETATM    2  S   UNL     1     -11.503  12.218  67.432  1.00  0.00    -0.360 SA 
HETATM    3  CG2 UNL     1     -11.690  13.998  67.510  1.00  0.00    -0.387 C  
HETATM    4  CB  UNL     1     -10.416  14.836  67.577  1.00  0.00    -0.245 C  
HETATM    5  O   UNL     1      -6.884  12.198  67.029  1.00  0.00    -0.137 OA 
HETATM    6  CA  UNL     1      -9.180  14.362  67.233  1.00  0.00    -0.209 C  
HETATM    7  N   UNL     1      -9.035  13.052  66.857  1.00  0.00    -0.223 N  
HETATM    8  CA  UNL     1      -9.111  11.007  66.491  1.00  0.00    -0.173 C  
HETATM    9  C   UNL     1      -7.959  15.269  67.256  1.00  0.00    -0.202 C  
HETATM   10  C   UNL     1      -8.061  12.128  66.763  1.00  0.00    -0.055 C  
HETATM   11  OXT UNL     1      -8.018  16.480  67.094  1.00  0.00    -0.155 OA 
HETATM   12  O   UNL     1      -6.757  14.688  67.428  1.00  0.00    -0.254 OA 
ENDROOT
BRANCH   4  13
HETATM   13  CG1 UNL     1     -10.662  16.183  68.125  1.00  0.00    -0.315 C  
HETATM   14  CD1 UNL     1     -10.770  16.535  69.416  1.00  0.00    -0.330 C  
ENDBRANCH   4  13
BRANCH   8  15
HETATM   15  N   UNL     1      -9.301  10.078  67.654  1.00  0.00    -0.143 N  
HETATM   16  H   UNL     1      -9.033  10.381  68.590  1.00  0.00     0.000 HD 
HETATM   17  C   UNL     1      -9.834   8.820  67.472  1.00  0.00    -0.179 C  
HETATM   18  O   UNL     1     -10.082   8.357  66.367  1.00  0.00    -0.265 OA 
BRANCH  17  19
HETATM   19  C   UNL     1     -10.049   7.966  68.725  1.00  0.00    -0.193 C  
BRANCH  19  20
HETATM   20  C   UNL     1     -10.805   8.512  69.851  1.00  0.00    -0.205 A  
HETATM   21  N   UNL     1     -12.872  11.105  71.008  1.00  0.00    -0.352 NA 
HETATM   22  C   UNL     1     -10.914   7.924  71.097  1.00  0.00    -0.239 A  
HETATM   23  N   UNL     1     -11.503   9.715  69.726  1.00  0.00    -0.121 NA 
HETATM   24  C   UNL     1     -12.114  10.010  70.846  1.00  0.00    -0.355 A  
HETATM   25  S   UNL     1     -11.894   8.887  72.123  1.00  0.00    -0.306 SA 
HETATM   26  H2  UNL     1     -13.325  11.272  71.906  1.00  0.00     0.000 HD 
HETATM   27  H1  UNL     1     -13.002  11.773  70.249  1.00  0.00     0.000 HD 
ENDBRANCH  19  20
BRANCH  19  28
HETATM   28  N   UNL     1      -9.604   6.753  68.921  1.00  0.00    -0.138 NA 
HETATM   29  H   UNL     1      -8.614   6.557  69.071  1.00  0.00     0.000 HD 
BRANCH  28  30
HETATM   30  O   UNL     1     -10.567   5.742  68.912  1.00  0.00    -0.239 OA 
BRANCH  30  31
HETATM   31  C   UNL     1     -10.020   4.593  69.569  1.00  0.00    -0.196 C  
HETATM   32  O   UNL     1      -9.299   2.382  68.865  1.00  0.00    -0.152 OA 
HETATM   33  C   UNL     1      -9.300   3.591  68.668  1.00  0.00    -0.166 C  
HETATM   34  O   UNL     1      -8.593   4.157  67.662  1.00  0.00    -0.098 OA 
ENDBRANCH  30  31
ENDBRANCH  28  30
ENDBRANCH  19  28
ENDBRANCH  17  19
ENDBRANCH   8  15
TORSDOF 7
ENDMDL
MODEL      147
REMARK 921   NORMALIZED FREE ENERGY PREDICTED BY IDOCK:   -4.58 KCAL/MOL
REMARK 922        TOTAL FREE ENERGY PREDICTED BY IDOCK:   -7.80 KCAL/MOL
REMARK 923 INTER-LIGAND FREE ENERGY PREDICTED BY IDOCK:   -6.33 KCAL/MOL
REMARK 924 INTRA-LIGAND FREE ENERGY PREDICTED BY IDOCK:   -1.47 KCAL/MOL
REMARK 927      BINDING AFFINITY PREDICTED BY RF-SCORE:    0.00 PKD
ROOT
HETATM    1  C   UNL     1      -7.730  10.172  68.992  1.00  0.00    -0.100 C  
HETATM    2  S   UNL     1      -7.861   9.160  70.465  1.00  0.00    -0.156 SA 
HETATM    3  CG2 UNL     1      -7.016   7.729  69.794  1.00  0.00    -0.047 C  
HETATM    4  CB  UNL     1      -7.314   7.354  68.345  1.00  0.00    -0.103 C  
HETATM    5  O   UNL     1      -9.849  10.499  66.496  1.00  0.00    -0.191 OA 
HETATM    6  CA  UNL     1      -7.885   8.209  67.443  1.00  0.00    -0.106 C  
HETATM    7  N   UNL     1      -8.272   9.461  67.846  1.00  0.00    -0.114 N  
HETATM    8  CA  UNL     1      -8.893  11.207  68.787  1.00  0.00    -0.125 C  
HETATM    9  C   UNL     1      -8.091   7.797  65.994  1.00  0.00    -0.117 C  
HETATM   10  C   UNL     1      -9.103  10.441  67.446  1.00  0.00    -0.135 C  
HETATM   11  OXT UNL     1      -7.392   6.972  65.423  1.00  0.00    -0.073 OA 
HETATM   12  O   UNL     1      -9.076   8.408  65.308  1.00  0.00    -0.080 OA 
ENDROOT
BRANCH   4  13
HETATM   13  CG1 UNL     1      -6.986   5.944  68.054  1.00  0.00    -0.069 C  
HETATM   14  CD1 UNL     1      -6.172   5.133  68.746  1.00  0.00    -0.031 C  
ENDBRANCH   4  13
BRANCH   8  15
HETATM   15  N   UNL     1     -10.083  11.146  69.699  1.00  0.00    -0.401 N  
HETATM   16  H   UNL     1     -10.134  10.418  70.412  1.00  0.00     0.000 HD 
HETATM   17  C   UNL     1     -11.108  12.061  69.585  1.00  0.00    -0.006 C  
HETATM   18  O   UNL     1     -11.158  12.893  68.691  1.00  0.00    -0.244 OA 
BRANCH  17  19
HETATM   19  C   UNL     1     -12.250  11.957  70.600  1.00  0.00    -0.331 C  
BRANCH  19  20
HETATM   20  C   UNL     1     -12.625  10.651  71.136  1.00  0.00    -0.423 A  
HETATM   21  N   UNL     1     -11.557   7.759  72.818  1.00  0.00    -0.558 NA 
HETATM   22  C   UNL     1     -13.896  10.107  71.094  1.00  0.00     0.244 A  
HETATM   23  N   UNL     1     -11.678   9.836  71.759  1.00  0.00    -0.314 NA 
HETATM   24  C   UNL     1     -12.230   8.721  72.171  1.00  0.00    -0.378 A  
HETATM   25  S   UNL     1     -13.904   8.562  71.838  1.00  0.00    -0.435 SA 
HETATM   26  H2  UNL     1     -12.049   6.917  73.117  1.00  0.00     0.000 HD 
HETATM   27  H1  UNL     1     -10.560   7.853  73.015  1.00  0.00     0.000 HD 
ENDBRANCH  19  20
BRANCH  19  28
HETATM   28  N   UNL     1     -12.973  12.947  71.054  1.00  0.00    -0.167 NA 
HETATM   29  H   UNL     1     -13.440  13.606  70.433  1.00  0.00     0.000 HD 
BRANCH  28  30
HETATM   30  O   UNL     1     -13.064  13.046  72.445  1.00  0.00    -0.399 OA 
BRANCH  30  31
HETATM   31  C   UNL     1     -12.470  14.284  72.848  1.00  0.00    -0.116 C  
HETATM   32  O   UNL     1     -12.002  16.409  71.766  1.00  0.00    -0.446 OA 
HETATM   33  C   UNL     1     -12.790  15.493  71.971  1.00  0.00    -0.420 C  
HETATM   34  O   UNL     1     -14.055  15.511  71.490  1.00  0.00    -0.488 OA 
ENDBRANCH  30  31
ENDBRANCH  28  30
ENDBRANCH  19  28
ENDBRANCH  17  19
ENDBRANCH   8  15
TORSDOF 7
ENDMDL
MODEL      148
REMARK 921   NORMALIZED FREE ENERGY PREDICTED BY IDOCK:   -4.56 KCAL/MOL
REMARK 922        TOTAL FREE ENERGY PREDICTED BY IDOCK:   -7.77 KCAL/MOL
REMARK 923 INTER-LIGAND FREE ENERGY PREDICTED BY IDOCK:   -6.44 KCAL/MOL
REMARK 924 INTRA-LIGAND FREE ENERGY PREDICTED BY IDOCK:   -1.33 KCAL/MOL
REMARK 927      BINDING AFFINITY PREDICTED BY RF-SCORE:    0.00 PKD
ROOT
HETATM    1  C   UNL     1      -8.162   8.114  70.402  1.00  0.00    -0.114 C  
HETATM    2  S   UNL     1      -9.497   9.029  71.171  1.00  0.00    -0.268 SA 
HETATM    3  CG2 UNL     1     -10.165   7.653  72.105  1.00  0.00    -0.207 C  
HETATM    4  CB  UNL     1     -10.209   6.293  71.415  1.00  0.00    -0.237 C  
HETATM    5  O   UNL     1      -8.107   6.547  67.510  1.00  0.00    -0.118 OA 
HETATM    6  CA  UNL     1      -9.474   5.983  70.304  1.00  0.00    -0.162 C  
HETATM    7  N   UNL     1      -8.685   6.941  69.722  1.00  0.00    -0.141 N  
HETATM    8  CA  UNL     1      -7.726   8.631  68.985  1.00  0.00    -0.095 C  
HETATM    9  C   UNL     1      -9.510   4.585  69.706  1.00  0.00    -0.177 C  
HETATM   10  C   UNL     1      -8.097   7.185  68.537  1.00  0.00    -0.125 C  
HETATM   11  OXT UNL     1      -9.751   3.580  70.358  1.00  0.00    -0.185 OA 
HETATM   12  O   UNL     1      -9.225   4.463  68.395  1.00  0.00    -0.120 OA 
ENDROOT
BRANCH   4  13
HETATM   13  CG1 UNL     1     -11.191   5.383  72.037  1.00  0.00    -0.159 C  
HETATM   14  CD1 UNL     1     -11.235   4.977  73.315  1.00  0.00    -0.411 C  
ENDBRANCH   4  13
BRANCH   8  15
HETATM   15  N   UNL     1      -8.552   9.690  68.317  1.00  0.00    -0.119 N  
HETATM   16  H   UNL     1      -9.561   9.708  68.464  1.00  0.00     0.000 HD 
HETATM   17  C   UNL     1      -7.965  10.639  67.508  1.00  0.00    -0.110 C  
HETATM   18  O   UNL     1      -6.779  10.615  67.210  1.00  0.00    -0.073 OA 
BRANCH  17  19
HETATM   19  C   UNL     1      -8.880  11.717  66.920  1.00  0.00    -0.191 C  
BRANCH  19  20
HETATM   20  C   UNL     1      -8.555  13.128  67.118  1.00  0.00    -0.192 A  
HETATM   21  N   UNL     1      -8.963  16.418  65.960  1.00  0.00    -0.442 NA 
HETATM   22  C   UNL     1      -7.779  13.630  68.147  1.00  0.00    -0.138 A  
HETATM   23  N   UNL     1      -9.038  14.102  66.243  1.00  0.00    -0.119 NA 
HETATM   24  C   UNL     1      -8.635  15.293  66.612  1.00  0.00    -0.270 A  
HETATM   25  S   UNL     1      -7.650  15.335  68.014  1.00  0.00    -0.135 SA 
HETATM   26  H2  UNL     1      -8.620  17.315  66.305  1.00  0.00     0.000 HD 
HETATM   27  H1  UNL     1      -9.548  16.394  65.126  1.00  0.00     0.000 HD 
ENDBRANCH  19  20
BRANCH  19  28
HETATM   28  N   UNL     1      -9.977  11.514  66.240  1.00  0.00    -0.213 NA 
HETATM   29  H   UNL     1     -10.038  11.704  65.240  1.00  0.00     0.000 HD 
BRANCH  28  30
HETATM   30  O   UNL     1     -11.062  11.020  66.968  1.00  0.00    -0.288 OA 
BRANCH  30  31
HETATM   31  C   UNL     1     -11.829  12.131  67.443  1.00  0.00    -0.227 C  
HETATM   32  O   UNL     1     -12.380  14.340  66.590  1.00  0.00    -0.446 OA 
HETATM   33  C   UNL     1     -12.271  13.137  66.381  1.00  0.00    -0.329 C  
HETATM   34  O   UNL     1     -12.609  12.580  65.194  1.00  0.00    -0.631 OA 
ENDBRANCH  30  31
ENDBRANCH  28  30
ENDBRANCH  19  28
ENDBRANCH  17  19
ENDBRANCH   8  15
TORSDOF 7
ENDMDL
MODEL      149
REMARK 921   NORMALIZED FREE ENERGY PREDICTED BY IDOCK:   -4.55 KCAL/MOL
REMARK 922        TOTAL FREE ENERGY PREDICTED BY IDOCK:   -7.76 KCAL/MOL
REMARK 923 INTER-LIGAND FREE ENERGY PREDICTED BY IDOCK:   -6.21 KCAL/MOL
REMARK 924 INTRA-LIGAND FREE ENERGY PREDICTED BY IDOCK:   -1.55 KCAL/MOL
REMARK 927      BINDING AFFINITY PREDICTED BY RF-SCORE:    0.00 PKD
ROOT
HETATM    1  C   UNL     1      -7.811   9.595  67.892  1.00  0.00    -0.087 C  
HETATM    2  S   UNL     1      -7.776  10.053  69.624  1.00  0.00    -0.169 SA 
HETATM    3  CG2 UNL     1      -7.883   8.385  70.270  1.00  0.00    -0.096 C  
HETATM    4  CB  UNL     1      -8.818   7.415  69.555  1.00  0.00    -0.137 C  
HETATM    5  O   UNL     1     -10.385   9.322  65.862  1.00  0.00    -0.154 OA 
HETATM    6  CA  UNL     1      -9.293   7.614  68.288  1.00  0.00    -0.145 C  
HETATM    7  N   UNL     1      -8.972   8.766  67.617  1.00  0.00    -0.135 N  
HETATM    8  CA  UNL     1      -8.453  10.658  66.932  1.00  0.00    -0.127 C  
HETATM    9  C   UNL     1     -10.166   6.573  67.605  1.00  0.00    -0.170 C  
HETATM   10  C   UNL     1      -9.429   9.495  66.582  1.00  0.00    -0.170 C  
HETATM   11  OXT UNL     1     -10.118   5.380  67.864  1.00  0.00    -0.155 OA 
HETATM   12  O   UNL     1     -11.005   7.002  66.642  1.00  0.00    -0.219 OA 
ENDROOT
BRANCH   4  13
HETATM   13  CG1 UNL     1      -9.210   6.281  70.415  1.00  0.00    -0.160 C  
HETATM   14  CD1 UNL     1      -9.326   6.269  71.752  1.00  0.00    -0.155 C  
ENDBRANCH   4  13
BRANCH   8  15
HETATM   15  N   UNL     1      -9.139  11.851  67.530  1.00  0.00    -0.173 N  
HETATM   16  H   UNL     1     -10.086  11.755  67.896  1.00  0.00     0.000 HD 
HETATM   17  C   UNL     1      -8.506  13.074  67.591  1.00  0.00    -0.187 C  
HETATM   18  O   UNL     1      -7.414  13.281  67.082  1.00  0.00    -0.098 OA 
BRANCH  17  19
HETATM   19  C   UNL     1      -9.262  14.216  68.275  1.00  0.00    -0.198 C  
BRANCH  19  20
HETATM   20  C   UNL     1      -9.123  15.580  67.768  1.00  0.00    -0.178 A  
HETATM   21  N   UNL     1      -8.136  18.878  68.465  1.00  0.00    -0.338 NA 
HETATM   22  C   UNL     1      -9.439  15.989  66.486  1.00  0.00    -0.271 A  
HETATM   23  N   UNL     1      -8.631  16.599  68.586  1.00  0.00    -0.244 NA 
HETATM   24  C   UNL     1      -8.582  17.732  67.930  1.00  0.00    -0.250 A  
HETATM   25  S   UNL     1      -9.123  17.665  66.304  1.00  0.00    -0.131 SA 
HETATM   26  H2  UNL     1      -8.118  19.724  67.896  1.00  0.00     0.000 HD 
HETATM   27  H1  UNL     1      -7.815  18.918  69.432  1.00  0.00     0.000 HD 
ENDBRANCH  19  20
BRANCH  19  28
HETATM   28  N   UNL     1     -10.043  14.112  69.317  1.00  0.00    -0.435 NA 
HETATM   29  H   UNL     1      -9.726  13.696  70.192  1.00  0.00     0.000 HD 
BRANCH  28  30
HETATM   30  O   UNL     1     -11.340  14.606  69.158  1.00  0.00    -0.252 OA 
BRANCH  30  31
HETATM   31  C   UNL     1     -12.106  13.635  68.437  1.00  0.00    -0.277 C  
HETATM   32  O   UNL     1     -12.200  11.207  68.378  1.00  0.00    -0.610 OA 
HETATM   33  C   UNL     1     -12.146  12.234  69.044  1.00  0.00    -0.145 C  
HETATM   34  O   UNL     1     -12.190  12.216  70.397  1.00  0.00    -0.341 OA 
ENDBRANCH  30  31
ENDBRANCH  28  30
ENDBRANCH  19  28
ENDBRANCH  17  19
ENDBRANCH   8  15
TORSDOF 7
ENDMDL
MODEL      150
REMARK 921   NORMALIZED FREE ENERGY PREDICTED BY IDOCK:   -4.53 KCAL/MOL
REMARK 922        TOTAL FREE ENERGY PREDICTED BY IDOCK:   -7.74 KCAL/MOL
REMARK 923 INTER-LIGAND FREE ENERGY PREDICTED BY IDOCK:   -6.56 KCAL/MOL
REMARK 924 INTRA-LIGAND FREE ENERGY PREDICTED BY IDOCK:   -1.18 KCAL/MOL
REMARK 927      BINDING AFFINITY PREDICTED BY RF-SCORE:    0.00 PKD
ROOT
HETATM    1  C   UNL     1     -10.379   8.374  67.687  1.00  0.00    -0.252 C  
HETATM    2  S   UNL     1      -9.114   8.536  66.428  1.00  0.00    -0.198 SA 
HETATM    3  CG2 UNL     1      -8.209   7.054  66.869  1.00  0.00    -0.117 C  
HETATM    4  CB  UNL     1      -8.047   6.746  68.355  1.00  0.00    -0.119 C  
HETATM    5  O   UNL     1     -10.459   9.623  70.730  1.00  0.00    -0.290 OA 
HETATM    6  CA  UNL     1      -8.821   7.308  69.333  1.00  0.00    -0.137 C  
HETATM    7  N   UNL     1      -9.767   8.243  68.998  1.00  0.00    -0.164 N  
HETATM    8  CA  UNL     1     -10.984   9.728  68.205  1.00  0.00    -0.164 C  
HETATM    9  C   UNL     1      -8.655   6.906  70.791  1.00  0.00    -0.144 C  
HETATM   10  C   UNL     1     -10.470   9.226  69.588  1.00  0.00    -0.224 C  
HETATM   11  OXT UNL     1      -8.240   5.811  71.144  1.00  0.00    -0.118 OA 
HETATM   12  O   UNL     1      -9.023   7.801  71.727  1.00  0.00    -0.117 OA 
ENDROOT
BRANCH   4  13
HETATM   13  CG1 UNL     1      -6.914   5.837  68.617  1.00  0.00    -0.071 C  
HETATM   14  CD1 UNL     1      -5.608   6.144  68.646  1.00  0.00    -0.012 C  
ENDBRANCH   4  13
BRANCH   8  15
HETATM   15  N   UNL     1     -10.351  11.016  67.767  1.00  0.00    -0.182 N  
HETATM   16  H   UNL     1      -9.600  10.998  67.077  1.00  0.00     0.000 HD 
HETATM   17  C   UNL     1     -10.772  12.222  68.285  1.00  0.00    -0.221 C  
HETATM   18  O   UNL     1     -11.595  12.306  69.186  1.00  0.00    -0.275 OA 
BRANCH  17  19
HETATM   19  C   UNL     1     -10.110  13.487  67.732  1.00  0.00    -0.236 C  
BRANCH  19  20
HETATM   20  C   UNL     1      -8.777  13.867  68.195  1.00  0.00    -0.182 A  
HETATM   21  N   UNL     1      -5.471  12.832  68.770  1.00  0.00    -0.065 NA 
HETATM   22  C   UNL     1      -8.415  15.129  68.631  1.00  0.00    -0.170 A  
HETATM   23  N   UNL     1      -7.737  12.937  68.218  1.00  0.00    -0.129 NA 
HETATM   24  C   UNL     1      -6.633  13.491  68.656  1.00  0.00    -0.098 A  
HETATM   25  S   UNL     1      -6.760  15.148  69.078  1.00  0.00    -0.130 SA 
HETATM   26  H2  UNL     1      -4.647  13.326  69.112  1.00  0.00     0.000 HD 
HETATM   27  H1  UNL     1      -5.396  11.847  68.519  1.00  0.00     0.000 HD 
ENDBRANCH  19  20
BRANCH  19  28
HETATM   28  N   UNL     1     -10.628  14.314  66.862  1.00  0.00    -0.272 NA 
HETATM   29  H   UNL     1     -11.230  15.087  67.143  1.00  0.00     0.000 HD 
BRANCH  28  30
HETATM   30  O   UNL     1     -10.306  14.072  65.525  1.00  0.00    -0.307 OA 
BRANCH  30  31
HETATM   31  C   UNL     1     -11.513  14.107  64.758  1.00  0.00    -0.383 C  
HETATM   32  O   UNL     1     -13.005  12.439  63.809  1.00  0.00    -0.751 OA 
HETATM   33  C   UNL     1     -12.345  12.826  64.766  1.00  0.00    -0.478 C  
HETATM   34  O   UNL     1     -12.355  12.178  65.955  1.00  0.00    -0.550 OA 
ENDBRANCH  30  31
ENDBRANCH  28  30
ENDBRANCH  19  28
ENDBRANCH  17  19
ENDBRANCH   8  15
TORSDOF 7
ENDMDL
MODEL      151
REMARK 921   NORMALIZED FREE ENERGY PREDICTED BY IDOCK:   -4.52 KCAL/MOL
REMARK 922        TOTAL FREE ENERGY PREDICTED BY IDOCK:   -7.72 KCAL/MOL
REMARK 923 INTER-LIGAND FREE ENERGY PREDICTED BY IDOCK:   -6.36 KCAL/MOL
REMARK 924 INTRA-LIGAND FREE ENERGY PREDICTED BY IDOCK:   -1.37 KCAL/MOL
REMARK 927      BINDING AFFINITY PREDICTED BY RF-SCORE:    0.00 PKD
ROOT
HETATM    1  C   UNL     1      -7.921  10.463  67.609  1.00  0.00    -0.106 C  
HETATM    2  S   UNL     1      -9.661  10.569  67.195  1.00  0.00    -0.176 SA 
HETATM    3  CG2 UNL     1      -9.587   9.492  65.764  1.00  0.00    -0.270 C  
HETATM    4  CB  UNL     1      -8.375   9.626  64.847  1.00  0.00    -0.152 C  
HETATM    5  O   UNL     1      -5.438  12.411  66.679  1.00  0.00    -0.291 OA 
HETATM    6  CA  UNL     1      -7.208  10.236  65.219  1.00  0.00    -0.134 C  
HETATM    7  N   UNL     1      -7.110  10.817  66.457  1.00  0.00    -0.131 N  
HETATM    8  CA  UNL     1      -7.322  11.735  68.309  1.00  0.00    -0.095 C  
HETATM    9  C   UNL     1      -6.011  10.274  64.281  1.00  0.00    -0.133 C  
HETATM   10  C   UNL     1      -6.357  11.738  67.085  1.00  0.00    -0.145 C  
HETATM   11  OXT UNL     1      -5.802   9.430  63.422  1.00  0.00    -0.086 OA 
HETATM   12  O   UNL     1      -5.127  11.277  64.443  1.00  0.00    -0.162 OA 
ENDROOT
BRANCH   4  13
HETATM   13  CG1 UNL     1      -8.635   9.092  63.496  1.00  0.00    -0.177 C  
HETATM   14  CD1 UNL     1      -9.172   9.739  62.450  1.00  0.00    -0.294 C  
ENDBRANCH   4  13
BRANCH   8  15
HETATM   15  N   UNL     1      -8.165  12.972  68.404  1.00  0.00    -0.220 N  
HETATM   16  H   UNL     1      -9.088  12.987  67.968  1.00  0.00     0.000 HD 
HETATM   17  C   UNL     1      -7.710  14.089  69.071  1.00  0.00    -0.006 C  
HETATM   18  O   UNL     1      -6.579  14.173  69.527  1.00  0.00    -0.119 OA 
BRANCH  17  19
HETATM   19  C   UNL     1      -8.666  15.281  69.168  1.00  0.00    -0.238 C  
BRANCH  19  20
HETATM   20  C   UNL     1      -8.352  16.519  68.459  1.00  0.00    -0.210 A  
HETATM   21  N   UNL     1      -7.217  17.976  65.472  1.00  0.00    -0.507 NA 
HETATM   22  C   UNL     1      -8.497  17.793  68.977  1.00  0.00    -0.012 A  
HETATM   23  N   UNL     1      -7.870  16.489  67.149  1.00  0.00    -0.166 NA 
HETATM   24  C   UNL     1      -7.666  17.705  66.706  1.00  0.00    -0.226 A  
HETATM   25  S   UNL     1      -8.023  18.962  67.816  1.00  0.00    -0.255 SA 
HETATM   26  H2  UNL     1      -7.086  18.947  65.188  1.00  0.00     0.000 HD 
HETATM   27  H1  UNL     1      -7.005  17.228  64.811  1.00  0.00     0.000 HD 
ENDBRANCH  19  20
BRANCH  19  28
HETATM   28  N   UNL     1      -9.777  15.327  69.855  1.00  0.00    -0.470 NA 
HETATM   29  H   UNL     1      -9.798  15.169  70.862  1.00  0.00     0.000 HD 
BRANCH  28  30
HETATM   30  O   UNL     1     -10.934  15.607  69.124  1.00  0.00    -0.227 OA 
BRANCH  30  31
HETATM   31  C   UNL     1     -11.380  14.395  68.507  1.00  0.00    -0.282 C  
HETATM   32  O   UNL     1     -12.602  13.837  66.481  1.00  0.00    -0.362 OA 
HETATM   33  C   UNL     1     -11.715  14.490  67.019  1.00  0.00    -0.393 C  
HETATM   34  O   UNL     1     -10.897  15.309  66.317  1.00  0.00    -0.311 OA 
ENDBRANCH  30  31
ENDBRANCH  28  30
ENDBRANCH  19  28
ENDBRANCH  17  19
ENDBRANCH   8  15
TORSDOF 7
ENDMDL
MODEL      152
REMARK 921   NORMALIZED FREE ENERGY PREDICTED BY IDOCK:   -4.51 KCAL/MOL
REMARK 922        TOTAL FREE ENERGY PREDICTED BY IDOCK:   -7.70 KCAL/MOL
REMARK 923 INTER-LIGAND FREE ENERGY PREDICTED BY IDOCK:   -6.25 KCAL/MOL
REMARK 924 INTRA-LIGAND FREE ENERGY PREDICTED BY IDOCK:   -1.45 KCAL/MOL
REMARK 927      BINDING AFFINITY PREDICTED BY RF-SCORE:    0.00 PKD
ROOT
HETATM    1  C   UNL     1      -9.237  10.492  69.326  1.00  0.00    -0.148 C  
HETATM    2  S   UNL     1      -9.187  11.453  67.815  1.00  0.00    -0.163 SA 
HETATM    3  CG2 UNL     1     -10.118  12.850  68.440  1.00  0.00    -0.227 C  
HETATM    4  CB  UNL     1     -11.310  12.550  69.345  1.00  0.00    -0.275 C  
HETATM    5  O   UNL     1     -11.407   8.206  70.270  1.00  0.00    -0.236 OA 
HETATM    6  CA  UNL     1     -11.496  11.353  69.981  1.00  0.00    -0.247 C  
HETATM    7  N   UNL     1     -10.610  10.328  69.770  1.00  0.00    -0.258 N  
HETATM    8  CA  UNL     1      -9.208   8.934  69.130  1.00  0.00    -0.144 C  
HETATM    9  C   UNL     1     -12.669  11.142  70.926  1.00  0.00    -0.344 C  
HETATM   10  C   UNL     1     -10.565   8.989  69.896  1.00  0.00    -0.228 C  
HETATM   11  OXT UNL     1     -13.203  12.048  71.548  1.00  0.00    -0.352 OA 
HETATM   12  O   UNL     1     -13.105   9.880  71.101  1.00  0.00    -0.367 OA 
ENDROOT
BRANCH   4  13
HETATM   13  CG1 UNL     1     -12.270  13.669  69.393  1.00  0.00    -0.307 C  
HETATM   14  CD1 UNL     1     -11.999  14.983  69.371  1.00  0.00    -0.336 C  
ENDBRANCH   4  13
BRANCH   8  15
HETATM   15  N   UNL     1      -9.331   8.379  67.741  1.00  0.00    -0.134 N  
HETATM   16  H   UNL     1      -9.805   8.925  67.022  1.00  0.00     0.000 HD 
HETATM   17  C   UNL     1      -8.812   7.142  67.426  1.00  0.00    -0.119 C  
HETATM   18  O   UNL     1      -8.321   6.396  68.262  1.00  0.00    -0.115 OA 
BRANCH  17  19
HETATM   19  C   UNL     1      -8.930   6.687  65.969  1.00  0.00    -0.112 C  
BRANCH  19  20
HETATM   20  C   UNL     1      -8.394   7.529  64.902  1.00  0.00    -0.038 A  
HETATM   21  N   UNL     1      -8.326  10.725  63.447  1.00  0.00    -0.350 NA 
HETATM   22  C   UNL     1      -7.495   7.115  63.936  1.00  0.00    -0.103 A  
HETATM   23  N   UNL     1      -8.768   8.870  64.794  1.00  0.00    -0.163 NA 
HETATM   24  C   UNL     1      -8.164   9.436  63.779  1.00  0.00    -0.165 A  
HETATM   25  S   UNL     1      -7.120   8.414  62.882  1.00  0.00    -0.092 SA 
HETATM   26  H2  UNL     1      -7.820  11.104  62.648  1.00  0.00     0.000 HD 
HETATM   27  H1  UNL     1      -8.948  11.332  63.981  1.00  0.00     0.000 HD 
ENDBRANCH  19  20
BRANCH  19  28
HETATM   28  N   UNL     1      -9.494   5.586  65.546  1.00  0.00    -0.359 NA 
HETATM   29  H   UNL     1     -10.470   5.556  65.253  1.00  0.00     0.000 HD 
BRANCH  28  30
HETATM   30  O   UNL     1      -8.676   4.454  65.521  1.00  0.00    -0.118 OA 
BRANCH  30  31
HETATM   31  C   UNL     1      -9.429   3.367  64.971  1.00  0.00    -0.154 C  
HETATM   32  O   UNL     1     -11.226   3.158  63.348  1.00  0.00    -0.250 OA 
HETATM   33  C   UNL     1     -10.148   3.655  63.655  1.00  0.00    -0.199 C  
HETATM   34  O   UNL     1      -9.459   4.455  62.808  1.00  0.00    -0.145 OA 
ENDBRANCH  30  31
ENDBRANCH  28  30
ENDBRANCH  19  28
ENDBRANCH  17  19
ENDBRANCH   8  15
TORSDOF 7
ENDMDL
MODEL      153
REMARK 921   NORMALIZED FREE ENERGY PREDICTED BY IDOCK:   -4.50 KCAL/MOL
REMARK 922        TOTAL FREE ENERGY PREDICTED BY IDOCK:   -7.69 KCAL/MOL
REMARK 923 INTER-LIGAND FREE ENERGY PREDICTED BY IDOCK:   -6.27 KCAL/MOL
REMARK 924 INTRA-LIGAND FREE ENERGY PREDICTED BY IDOCK:   -1.42 KCAL/MOL
REMARK 927      BINDING AFFINITY PREDICTED BY RF-SCORE:    0.00 PKD
ROOT
HETATM    1  C   UNL     1      -9.424   8.304  67.728  1.00  0.00    -0.149 C  
HETATM    2  S   UNL     1      -9.329   8.798  66.008  1.00  0.00    -0.218 SA 
HETATM    3  CG2 UNL     1      -8.255   7.465  65.480  1.00  0.00    -0.135 C  
HETATM    4  CB  UNL     1      -7.126   7.058  66.422  1.00  0.00    -0.074 C  
HETATM    5  O   UNL     1      -7.555   9.240  70.269  1.00  0.00    -0.089 OA 
HETATM    6  CA  UNL     1      -7.094   7.384  67.751  1.00  0.00    -0.085 C  
HETATM    7  N   UNL     1      -8.088   8.165  68.283  1.00  0.00    -0.126 N  
HETATM    8  CA  UNL     1      -9.629   9.477  68.750  1.00  0.00    -0.157 C  
HETATM    9  C   UNL     1      -5.974   6.888  68.652  1.00  0.00    -0.026 C  
HETATM   10  C   UNL     1      -8.292   8.951  69.355  1.00  0.00    -0.112 C  
HETATM   11  OXT UNL     1      -5.351   5.856  68.447  1.00  0.00    -0.003 OA 
HETATM   12  O   UNL     1      -5.691   7.616  69.750  1.00  0.00    -0.023 OA 
ENDROOT
BRANCH   4  13
HETATM   13  CG1 UNL     1      -6.042   6.343  65.721  1.00  0.00    -0.030 C  
HETATM   14  CD1 UNL     1      -6.137   5.212  65.006  1.00  0.00    -0.026 C  
ENDBRANCH   4  13
BRANCH   8  15
HETATM   15  N   UNL     1      -9.542  10.891  68.255  1.00  0.00    -0.161 N  
HETATM   16  H   UNL     1      -8.634  11.354  68.212  1.00  0.00     0.000 HD 
HETATM   17  C   UNL     1     -10.672  11.572  67.858  1.00  0.00    -0.200 C  
HETATM   18  O   UNL     1     -11.800  11.113  67.978  1.00  0.00    -0.582 OA 
BRANCH  17  19
HETATM   19  C   UNL     1     -10.477  12.988  67.308  1.00  0.00    -0.238 C  
BRANCH  19  20
HETATM   20  C   UNL     1     -10.989  13.326  65.982  1.00  0.00    -0.279 A  
HETATM   21  N   UNL     1     -12.340  15.821  63.913  1.00  0.00    -0.999 NA 
HETATM   22  C   UNL     1     -11.058  12.456  64.909  1.00  0.00    -0.303 A  
HETATM   23  N   UNL     1     -11.455  14.612  65.703  1.00  0.00    -0.342 NA 
HETATM   24  C   UNL     1     -11.856  14.696  64.459  1.00  0.00    -0.431 A  
HETATM   25  S   UNL     1     -11.716  13.255  63.541  1.00  0.00    -0.229 SA 
HETATM   26  H2  UNL     1     -12.629  15.820  62.934  1.00  0.00     0.000 HD 
HETATM   27  H1  UNL     1     -12.424  16.679  64.458  1.00  0.00     0.000 HD 
ENDBRANCH  19  20
BRANCH  19  28
HETATM   28  N   UNL     1      -9.865  13.973  67.910  1.00  0.00    -0.227 NA 
HETATM   29  H   UNL     1     -10.374  14.706  68.403  1.00  0.00     0.000 HD 
BRANCH  28  30
HETATM   30  O   UNL     1      -8.470  13.961  67.835  1.00  0.00    -0.153 OA 
BRANCH  30  31
HETATM   31  C   UNL     1      -8.050  15.095  67.069  1.00  0.00    -0.205 C  
HETATM   32  O   UNL     1      -8.988  17.278  66.561  1.00  0.00    -0.248 OA 
HETATM   33  C   UNL     1      -8.748  16.414  67.395  1.00  0.00    -0.182 C  
HETATM   34  O   UNL     1      -9.020  16.589  68.710  1.00  0.00    -0.232 OA 
ENDBRANCH  30  31
ENDBRANCH  28  30
ENDBRANCH  19  28
ENDBRANCH  17  19
ENDBRANCH   8  15
TORSDOF 7
ENDMDL
MODEL      154
REMARK 921   NORMALIZED FREE ENERGY PREDICTED BY IDOCK:   -4.49 KCAL/MOL
REMARK 922        TOTAL FREE ENERGY PREDICTED BY IDOCK:   -7.68 KCAL/MOL
REMARK 923 INTER-LIGAND FREE ENERGY PREDICTED BY IDOCK:   -6.47 KCAL/MOL
REMARK 924 INTRA-LIGAND FREE ENERGY PREDICTED BY IDOCK:   -1.21 KCAL/MOL
REMARK 927      BINDING AFFINITY PREDICTED BY RF-SCORE:    0.00 PKD
ROOT
HETATM    1  C   UNL     1      -8.235  10.984  65.893  1.00  0.00    -0.100 C  
HETATM    2  S   UNL     1      -9.026   9.617  65.047  1.00  0.00    -0.226 SA 
HETATM    3  CG2 UNL     1      -9.838  10.607  63.794  1.00  0.00    -0.335 C  
HETATM    4  CB  UNL     1     -10.441  11.938  64.233  1.00  0.00    -0.370 C  
HETATM    5  O   UNL     1      -9.310  12.752  68.451  1.00  0.00    -0.201 OA 
HETATM    6  CA  UNL     1     -10.105  12.574  65.396  1.00  0.00    -0.267 C  
HETATM    7  N   UNL     1      -9.223  11.983  66.263  1.00  0.00    -0.224 N  
HETATM    8  CA  UNL     1      -8.002  10.774  67.432  1.00  0.00    -0.112 C  
HETATM    9  C   UNL     1     -10.690  13.935  65.742  1.00  0.00    -0.289 C  
HETATM   10  C   UNL     1      -8.877  12.057  67.561  1.00  0.00    -0.172 C  
HETATM   11  OXT UNL     1     -11.062  14.741  64.902  1.00  0.00    -0.374 OA 
HETATM   12  O   UNL     1     -10.762  14.267  67.045  1.00  0.00    -0.284 OA 
ENDROOT
BRANCH   4  13
HETATM   13  CG1 UNL     1     -11.478  12.417  63.298  1.00  0.00    -0.426 C  
HETATM   14  CD1 UNL     1     -12.771  12.062  63.258  1.00  0.00    -0.437 C  
ENDBRANCH   4  13
BRANCH   8  15
HETATM   15  N   UNL     1      -8.607   9.572  68.096  1.00  0.00    -0.120 N  
HETATM   16  H   UNL     1      -9.546   9.272  67.833  1.00  0.00     0.000 HD 
HETATM   17  C   UNL     1      -7.912   8.870  69.056  1.00  0.00    -0.106 C  
HETATM   18  O   UNL     1      -6.827   9.234  69.488  1.00  0.00    -0.046 OA 
BRANCH  17  19
HETATM   19  C   UNL     1      -8.586   7.622  69.633  1.00  0.00    -0.136 C  
BRANCH  19  20
HETATM   20  C   UNL     1      -9.332   7.716  70.885  1.00  0.00    -0.157 A  
HETATM   21  N   UNL     1      -9.211   7.514  74.389  1.00  0.00    -0.425 NA 
HETATM   22  C   UNL     1     -10.677   8.020  70.990  1.00  0.00    -0.220 A  
HETATM   23  N   UNL     1      -8.699   7.504  72.112  1.00  0.00    -0.112 NA 
HETATM   24  C   UNL     1      -9.549   7.647  73.099  1.00  0.00    -0.256 A  
HETATM   25  S   UNL     1     -11.154   8.034  72.637  1.00  0.00    -0.373 SA 
HETATM   26  H2  UNL     1      -9.921   7.646  75.110  1.00  0.00     0.000 HD 
HETATM   27  H1  UNL     1      -8.256   7.284  74.664  1.00  0.00     0.000 HD 
ENDBRANCH  19  20
BRANCH  19  28
HETATM   28  N   UNL     1      -8.560   6.421  69.118  1.00  0.00    -0.124 NA 
HETATM   29  H   UNL     1      -9.102   6.175  68.290  1.00  0.00     0.000 HD 
BRANCH  28  30
HETATM   30  O   UNL     1      -7.743   5.495  69.771  1.00  0.00    -0.076 OA 
BRANCH  30  31
HETATM   31  C   UNL     1      -8.158   4.180  69.388  1.00  0.00    -0.059 C  
HETATM   32  O   UNL     1      -9.301   2.340  70.489  1.00  0.00    -0.116 OA 
HETATM   33  C   UNL     1      -9.238   3.542  70.259  1.00  0.00    -0.155 C  
HETATM   34  O   UNL     1     -10.176   4.409  70.705  1.00  0.00    -0.172 OA 
ENDBRANCH  30  31
ENDBRANCH  28  30
ENDBRANCH  19  28
ENDBRANCH  17  19
ENDBRANCH   8  15
TORSDOF 7
ENDMDL
MODEL      155
REMARK 921   NORMALIZED FREE ENERGY PREDICTED BY IDOCK:   -4.48 KCAL/MOL
REMARK 922        TOTAL FREE ENERGY PREDICTED BY IDOCK:   -7.67 KCAL/MOL
REMARK 923 INTER-LIGAND FREE ENERGY PREDICTED BY IDOCK:   -5.99 KCAL/MOL
REMARK 924 INTRA-LIGAND FREE ENERGY PREDICTED BY IDOCK:   -1.67 KCAL/MOL
REMARK 927      BINDING AFFINITY PREDICTED BY RF-SCORE:    0.00 PKD
ROOT
HETATM    1  C   UNL     1     -12.263  11.184  68.744  1.00  0.00    -0.010 C  
HETATM    2  S   UNL     1     -11.882  10.744  70.438  1.00  0.00    -0.382 SA 
HETATM    3  CG2 UNL     1     -12.437  12.283  71.169  1.00  0.00    -0.226 C  
HETATM    4  CB  UNL     1     -12.115  13.572  70.419  1.00  0.00    -0.415 C  
HETATM    5  O   UNL     1     -10.337  12.579  66.471  1.00  0.00    -0.232 OA 
HETATM    6  CA  UNL     1     -11.761  13.612  69.098  1.00  0.00    -0.329 C  
HETATM    7  N   UNL     1     -11.624  12.442  68.397  1.00  0.00    -0.303 N  
HETATM    8  CA  UNL     1     -11.344  10.520  67.658  1.00  0.00    -0.154 C  
HETATM    9  C   UNL     1     -11.521  14.936  68.390  1.00  0.00    -0.318 C  
HETATM   10  C   UNL     1     -11.025  11.998  67.277  1.00  0.00    -0.262 C  
HETATM   11  OXT UNL     1     -12.055  15.984  68.725  1.00  0.00    -0.255 OA 
HETATM   12  O   UNL     1     -10.704  14.929  67.320  1.00  0.00    -0.282 OA 
ENDROOT
BRANCH   4  13
HETATM   13  CG1 UNL     1     -12.157  14.756  71.299  1.00  0.00    -0.399 C  
HETATM   14  CD1 UNL     1     -12.972  14.972  72.343  1.00  0.00    -0.444 C  
ENDBRANCH   4  13
BRANCH   8  15
HETATM   15  N   UNL     1     -10.138   9.748  68.106  1.00  0.00    -0.158 N  
HETATM   16  H   UNL     1      -9.319  10.250  68.451  1.00  0.00     0.000 HD 
HETATM   17  C   UNL     1     -10.121   8.371  68.058  1.00  0.00    -0.199 C  
HETATM   18  O   UNL     1     -11.027   7.714  67.564  1.00  0.00    -0.166 OA 
BRANCH  17  19
HETATM   19  C   UNL     1      -8.871   7.669  68.595  1.00  0.00    -0.127 C  
BRANCH  19  20
HETATM   20  C   UNL     1      -8.896   7.066  69.926  1.00  0.00    -0.142 A  
HETATM   21  N   UNL     1      -8.247   7.499  73.350  1.00  0.00    -0.118 NA 
HETATM   22  C   UNL     1      -9.339   5.788  70.213  1.00  0.00    -0.156 A  
HETATM   23  N   UNL     1      -8.461   7.782  71.043  1.00  0.00    -0.120 NA 
HETATM   24  C   UNL     1      -8.578   7.057  72.128  1.00  0.00    -0.111 A  
HETATM   25  S   UNL     1      -9.204   5.478  71.894  1.00  0.00    -0.141 SA 
HETATM   26  H2  UNL     1      -8.370   6.884  74.155  1.00  0.00     0.000 HD 
HETATM   27  H1  UNL     1      -7.875   8.438  73.489  1.00  0.00     0.000 HD 
ENDBRANCH  19  20
BRANCH  19  28
HETATM   28  N   UNL     1      -7.725   7.551  67.978  1.00  0.00    -0.114 NA 
HETATM   29  H   UNL     1      -7.415   6.668  67.576  1.00  0.00     0.000 HD 
BRANCH  28  30
HETATM   30  O   UNL     1      -6.951   8.712  67.905  1.00  0.00    -0.075 OA 
BRANCH  30  31
HETATM   31  C   UNL     1      -6.374   8.786  66.597  1.00  0.00    -0.059 C  
HETATM   32  O   UNL     1      -7.171   8.397  64.334  1.00  0.00    -0.082 OA 
HETATM   33  C   UNL     1      -7.364   8.893  65.438  1.00  0.00    -0.085 C  
HETATM   34  O   UNL     1      -8.454   9.649  65.706  1.00  0.00    -0.127 OA 
ENDBRANCH  30  31
ENDBRANCH  28  30
ENDBRANCH  19  28
ENDBRANCH  17  19
ENDBRANCH   8  15
TORSDOF 7
ENDMDL
MODEL      156
REMARK 921   NORMALIZED FREE ENERGY PREDICTED BY IDOCK:   -4.47 KCAL/MOL
REMARK 922        TOTAL FREE ENERGY PREDICTED BY IDOCK:   -7.64 KCAL/MOL
REMARK 923 INTER-LIGAND FREE ENERGY PREDICTED BY IDOCK:   -7.14 KCAL/MOL
REMARK 924 INTRA-LIGAND FREE ENERGY PREDICTED BY IDOCK:   -0.50 KCAL/MOL
REMARK 927      BINDING AFFINITY PREDICTED BY RF-SCORE:    0.00 PKD
ROOT
HETATM    1  C   UNL     1     -10.110  10.246  66.318  1.00  0.00    -0.236 C  
HETATM    2  S   UNL     1      -8.352  10.539  66.139  1.00  0.00    -0.161 SA 
HETATM    3  CG2 UNL     1      -7.830   8.891  66.609  1.00  0.00    -0.100 C  
HETATM    4  CB  UNL     1      -8.576   8.219  67.758  1.00  0.00    -0.131 C  
HETATM    5  O   UNL     1     -12.047  10.731  68.932  1.00  0.00    -0.420 OA 
HETATM    6  CA  UNL     1      -9.805   8.625  68.203  1.00  0.00    -0.165 C  
HETATM    7  N   UNL     1     -10.400   9.727  67.643  1.00  0.00    -0.214 N  
HETATM    8  CA  UNL     1     -10.961  11.502  66.722  1.00  0.00    -0.294 C  
HETATM    9  C   UNL     1     -10.527   7.868  69.306  1.00  0.00    -0.216 C  
HETATM   10  C   UNL     1     -11.356  10.623  67.946  1.00  0.00    -0.268 C  
HETATM   11  OXT UNL     1     -10.362   6.678  69.526  1.00  0.00    -0.185 OA 
HETATM   12  O   UNL     1     -11.419   8.554  70.047  1.00  0.00    -0.098 OA 
ENDROOT
BRANCH   4  13
HETATM   13  CG1 UNL     1      -7.789   7.136  68.378  1.00  0.00    -0.122 C  
HETATM   14  CD1 UNL     1      -6.854   6.368  67.798  1.00  0.00    -0.070 C  
ENDBRANCH   4  13
BRANCH   8  15
HETATM   15  N   UNL     1     -10.246  12.766  67.103  1.00  0.00    -0.232 N  
HETATM   16  H   UNL     1      -9.237  12.832  66.970  1.00  0.00     0.000 HD 
HETATM   17  C   UNL     1     -10.935  13.836  67.631  1.00  0.00    -0.264 C  
HETATM   18  O   UNL     1     -12.125  13.786  67.909  1.00  0.00    -0.365 OA 
BRANCH  17  19
HETATM   19  C   UNL     1     -10.131  15.104  67.931  1.00  0.00    -0.222 C  
BRANCH  19  20
HETATM   20  C   UNL     1      -8.714  14.997  68.271  1.00  0.00    -0.166 A  
HETATM   21  N   UNL     1      -5.629  13.493  67.527  1.00  0.00    -0.349 NA 
HETATM   22  C   UNL     1      -8.079  15.709  69.272  1.00  0.00    -0.244 A  
HETATM   23  N   UNL     1      -7.873  14.134  67.566  1.00  0.00    -0.181 NA 
HETATM   24  C   UNL     1      -6.649  14.204  68.028  1.00  0.00    -0.151 A  
HETATM   25  S   UNL     1      -6.417  15.291  69.334  1.00  0.00    -0.153 SA 
HETATM   26  H2  UNL     1      -4.698  13.600  67.930  1.00  0.00     0.000 HD 
HETATM   27  H1  UNL     1      -5.767  12.846  66.751  1.00  0.00     0.000 HD 
ENDBRANCH  19  20
BRANCH  19  28
HETATM   28  N   UNL     1     -10.589  16.328  67.932  1.00  0.00    -0.309 NA 
HETATM   29  H   UNL     1     -10.252  17.032  67.276  1.00  0.00     0.000 HD 
BRANCH  28  30
HETATM   30  O   UNL     1     -11.567  16.612  68.887  1.00  0.00    -0.157 OA 
BRANCH  30  31
HETATM   31  C   UNL     1     -11.013  16.371  70.185  1.00  0.00    -0.285 C  
HETATM   32  O   UNL     1     -11.867  16.401  72.460  1.00  0.00    -0.527 OA 
HETATM   33  C   UNL     1     -12.020  16.063  71.292  1.00  0.00    -0.424 C  
HETATM   34  O   UNL     1     -13.074  15.315  70.892  1.00  0.00    -0.435 OA 
ENDBRANCH  30  31
ENDBRANCH  28  30
ENDBRANCH  19  28
ENDBRANCH  17  19
ENDBRANCH   8  15
TORSDOF 7
ENDMDL
MODEL      157
REMARK 921   NORMALIZED FREE ENERGY PREDICTED BY IDOCK:   -4.43 KCAL/MOL
REMARK 922        TOTAL FREE ENERGY PREDICTED BY IDOCK:   -7.60 KCAL/MOL
REMARK 923 INTER-LIGAND FREE ENERGY PREDICTED BY IDOCK:   -6.37 KCAL/MOL
REMARK 924 INTRA-LIGAND FREE ENERGY PREDICTED BY IDOCK:   -1.23 KCAL/MOL
REMARK 927      BINDING AFFINITY PREDICTED BY RF-SCORE:    0.00 PKD
ROOT
HETATM    1  C   UNL     1     -12.026  11.237  68.958  1.00  0.00    -0.325 C  
HETATM    2  S   UNL     1     -12.039  11.213  70.750  1.00  0.00    -0.327 SA 
HETATM    3  CG2 UNL     1     -12.558  12.914  70.965  1.00  0.00    -0.287 C  
HETATM    4  CB  UNL     1     -11.956  13.955  70.026  1.00  0.00    -0.404 C  
HETATM    5  O   UNL     1      -9.548  11.911  66.902  1.00  0.00    -0.193 OA 
HETATM    6  CA  UNL     1     -11.344  13.644  68.842  1.00  0.00    -0.290 C  
HETATM    7  N   UNL     1     -11.199  12.330  68.478  1.00  0.00    -0.249 N  
HETATM    8  CA  UNL     1     -10.987  10.273  68.284  1.00  0.00    -0.264 C  
HETATM    9  C   UNL     1     -10.827  14.735  67.917  1.00  0.00    -0.269 C  
HETATM   10  C   UNL     1     -10.441  11.588  67.651  1.00  0.00    -0.189 C  
HETATM   11  OXT UNL     1     -11.300  15.862  67.875  1.00  0.00    -0.330 OA 
HETATM   12  O   UNL     1      -9.819  14.415  67.083  1.00  0.00    -0.245 OA 
ENDROOT
BRANCH   4  13
HETATM   13  CG1 UNL     1     -12.043  15.321  70.577  1.00  0.00    -0.395 C  
HETATM   14  CD1 UNL     1     -11.718  15.727  71.814  1.00  0.00    -0.562 C  
ENDBRANCH   4  13
BRANCH   8  15
HETATM   15  N   UNL     1      -9.985   9.570  69.151  1.00  0.00    -0.176 N  
HETATM   16  H   UNL     1      -9.191  10.090  69.525  1.00  0.00     0.000 HD 
HETATM   17  C   UNL     1     -10.123   8.231  69.449  1.00  0.00    -0.198 C  
HETATM   18  O   UNL     1     -10.992   7.528  68.954  1.00  0.00    -0.091 OA 
BRANCH  17  19
HETATM   19  C   UNL     1      -9.085   7.616  70.393  1.00  0.00    -0.152 C  
BRANCH  19  20
HETATM   20  C   UNL     1      -8.926   6.165  70.445  1.00  0.00    -0.150 A  
HETATM   21  N   UNL     1      -9.944   3.158  71.949  1.00  0.00    -0.164 NA 
HETATM   22  C   UNL     1      -8.077   5.427  69.640  1.00  0.00    -0.099 A  
HETATM   23  N   UNL     1      -9.664   5.397  71.348  1.00  0.00    -0.156 NA 
HETATM   24  C   UNL     1      -9.373   4.126  71.217  1.00  0.00    -0.151 A  
HETATM   25  S   UNL     1      -8.200   3.759  70.022  1.00  0.00    -0.056 SA 
HETATM   26  H2  UNL     1      -9.676   2.187  71.791  1.00  0.00     0.000 HD 
HETATM   27  H1  UNL     1     -10.641   3.377  72.660  1.00  0.00     0.000 HD 
ENDBRANCH  19  20
BRANCH  19  28
HETATM   28  N   UNL     1      -8.296   8.268  71.206  1.00  0.00    -0.119 NA 
HETATM   29  H   UNL     1      -8.634   8.675  72.077  1.00  0.00     0.000 HD 
BRANCH  28  30
HETATM   30  O   UNL     1      -6.962   8.372  70.806  1.00  0.00    -0.040 OA 
BRANCH  30  31
HETATM   31  C   UNL     1      -6.245   9.091  71.816  1.00  0.00    -0.065 C  
HETATM   32  O   UNL     1      -6.519   9.451  74.204  1.00  0.00    -0.331 OA 
HETATM   33  C   UNL     1      -6.525   8.672  73.257  1.00  0.00    -0.030 C  
HETATM   34  O   UNL     1      -6.712   7.341  73.423  1.00  0.00    -0.065 OA 
ENDBRANCH  30  31
ENDBRANCH  28  30
ENDBRANCH  19  28
ENDBRANCH  17  19
ENDBRANCH   8  15
TORSDOF 7
ENDMDL
MODEL      158
REMARK 921   NORMALIZED FREE ENERGY PREDICTED BY IDOCK:   -4.41 KCAL/MOL
REMARK 922        TOTAL FREE ENERGY PREDICTED BY IDOCK:   -7.57 KCAL/MOL
REMARK 923 INTER-LIGAND FREE ENERGY PREDICTED BY IDOCK:   -6.30 KCAL/MOL
REMARK 924 INTRA-LIGAND FREE ENERGY PREDICTED BY IDOCK:   -1.27 KCAL/MOL
REMARK 927      BINDING AFFINITY PREDICTED BY RF-SCORE:    0.00 PKD
ROOT
HETATM    1  C   UNL     1      -8.796  10.548  66.855  1.00  0.00    -0.137 C  
HETATM    2  S   UNL     1      -9.307   9.589  65.431  1.00  0.00    -0.257 SA 
HETATM    3  CG2 UNL     1     -10.187  10.915  64.608  1.00  0.00    -0.345 C  
HETATM    4  CB  UNL     1     -11.019  11.852  65.479  1.00  0.00    -0.347 C  
HETATM    5  O   UNL     1     -10.294  10.918  69.761  1.00  0.00    -0.127 OA 
HETATM    6  CA  UNL     1     -10.861  11.967  66.833  1.00  0.00    -0.263 C  
HETATM    7  N   UNL     1      -9.951  11.170  67.480  1.00  0.00    -0.180 N  
HETATM    8  CA  UNL     1      -8.628   9.732  68.186  1.00  0.00    -0.118 C  
HETATM    9  C   UNL     1     -11.674  12.971  67.635  1.00  0.00    -0.366 C  
HETATM   10  C   UNL     1      -9.702  10.725  68.725  1.00  0.00    -0.192 C  
HETATM   11  OXT UNL     1     -12.116  14.008  67.163  1.00  0.00    -0.423 OA 
HETATM   12  O   UNL     1     -11.878  12.705  68.939  1.00  0.00    -0.302 OA 
ENDROOT
BRANCH   4  13
HETATM   13  CG1 UNL     1     -12.059  12.558  64.706  1.00  0.00    -0.497 C  
HETATM   14  CD1 UNL     1     -12.276  12.501  63.383  1.00  0.00    -0.613 C  
ENDBRANCH   4  13
BRANCH   8  15
HETATM   15  N   UNL     1      -9.075   8.299  68.216  1.00  0.00    -0.136 N  
HETATM   16  H   UNL     1      -9.898   8.018  67.682  1.00  0.00     0.000 HD 
HETATM   17  C   UNL     1      -8.389   7.360  68.955  1.00  0.00    -0.129 C  
HETATM   18  O   UNL     1      -7.459   7.649  69.694  1.00  0.00    -0.087 OA 
BRANCH  17  19
HETATM   19  C   UNL     1      -8.883   5.913  68.874  1.00  0.00    -0.115 C  
BRANCH  19  20
HETATM   20  C   UNL     1      -9.243   5.202  70.099  1.00  0.00    -0.142 A  
HETATM   21  N   UNL     1     -11.450   4.992  72.822  1.00  0.00    -0.209 NA 
HETATM   22  C   UNL     1      -8.587   4.092  70.598  1.00  0.00    -0.075 A  
HETATM   23  N   UNL     1     -10.329   5.617  70.872  1.00  0.00    -0.225 NA 
HETATM   24  C   UNL     1     -10.476   4.836  71.914  1.00  0.00    -0.130 A  
HETATM   25  S   UNL     1      -9.332   3.566  72.050  1.00  0.00    -0.132 SA 
HETATM   26  H2  UNL     1     -11.512   4.345  73.608  1.00  0.00     0.000 HD 
HETATM   27  H1  UNL     1     -12.131   5.748  72.742  1.00  0.00     0.000 HD 
ENDBRANCH  19  20
BRANCH  19  28
HETATM   28  N   UNL     1      -9.015   5.200  67.786  1.00  0.00    -0.109 NA 
HETATM   29  H   UNL     1      -9.811   4.582  67.637  1.00  0.00     0.000 HD 
BRANCH  28  30
HETATM   30  O   UNL     1      -7.996   5.338  66.841  1.00  0.00    -0.100 OA 
BRANCH  30  31
HETATM   31  C   UNL     1      -7.760   4.059  66.243  1.00  0.00    -0.090 C  
HETATM   32  O   UNL     1      -9.152   2.181  65.577  1.00  0.00    -0.130 OA 
HETATM   33  C   UNL     1      -8.973   3.393  65.595  1.00  0.00    -0.142 C  
HETATM   34  O   UNL     1      -9.810   4.253  64.969  1.00  0.00    -0.181 OA 
ENDBRANCH  30  31
ENDBRANCH  28  30
ENDBRANCH  19  28
ENDBRANCH  17  19
ENDBRANCH   8  15
TORSDOF 7
ENDMDL
MODEL      159
REMARK 921   NORMALIZED FREE ENERGY PREDICTED BY IDOCK:   -4.41 KCAL/MOL
REMARK 922        TOTAL FREE ENERGY PREDICTED BY IDOCK:   -7.56 KCAL/MOL
REMARK 923 INTER-LIGAND FREE ENERGY PREDICTED BY IDOCK:   -6.81 KCAL/MOL
REMARK 924 INTRA-LIGAND FREE ENERGY PREDICTED BY IDOCK:   -0.76 KCAL/MOL
REMARK 927      BINDING AFFINITY PREDICTED BY RF-SCORE:    0.00 PKD
ROOT
HETATM    1  C   UNL     1      -9.291  13.974  66.492  1.00  0.00    -0.255 C  
HETATM    2  S   UNL     1     -11.071  14.088  66.663  1.00  0.00    -0.316 SA 
HETATM    3  CG2 UNL     1     -11.137  15.869  66.849  1.00  0.00    -0.082 C  
HETATM    4  CB  UNL     1     -10.050  16.526  67.695  1.00  0.00    -0.266 C  
HETATM    5  O   UNL     1      -7.004  13.490  68.807  1.00  0.00    -0.095 OA 
HETATM    6  CA  UNL     1      -8.867  15.918  68.014  1.00  0.00    -0.178 C  
HETATM    7  N   UNL     1      -8.638  14.627  67.614  1.00  0.00    -0.166 N  
HETATM    8  CA  UNL     1      -8.653  12.638  67.013  1.00  0.00    -0.181 C  
HETATM    9  C   UNL     1      -7.795  16.655  68.802  1.00  0.00    -0.238 C  
HETATM   10  C   UNL     1      -7.844  13.592  67.943  1.00  0.00    -0.159 C  
HETATM   11  OXT UNL     1      -7.665  17.870  68.787  1.00  0.00    -0.288 OA 
HETATM   12  O   UNL     1      -6.931  15.912  69.519  1.00  0.00    -0.195 OA 
ENDROOT
BRANCH   4  13
HETATM   13  CG1 UNL     1     -10.455  17.857  68.188  1.00  0.00    -0.380 C  
HETATM   14  CD1 UNL     1     -10.673  18.966  67.466  1.00  0.00    -0.509 C  
ENDBRANCH   4  13
BRANCH   8  15
HETATM   15  N   UNL     1      -9.519  11.668  67.764  1.00  0.00    -0.173 N  
HETATM   16  H   UNL     1     -10.519  11.850  67.850  1.00  0.00     0.000 HD 
HETATM   17  C   UNL     1      -8.980  10.537  68.337  1.00  0.00    -0.141 C  
HETATM   18  O   UNL     1      -7.778  10.312  68.357  1.00  0.00    -0.089 OA 
BRANCH  17  19
HETATM   19  C   UNL     1      -9.951   9.576  69.028  1.00  0.00    -0.180 C  
BRANCH  19  20
HETATM   20  C   UNL     1     -11.010  10.108  69.883  1.00  0.00    -0.293 A  
HETATM   21  N   UNL     1     -13.136   9.529  72.618  1.00  0.00    -0.481 NA 
HETATM   22  C   UNL     1     -11.570  11.368  69.768  1.00  0.00    -0.332 A  
HETATM   23  N   UNL     1     -11.541   9.343  70.923  1.00  0.00    -0.293 NA 
HETATM   24  C   UNL     1     -12.466  10.015  71.563  1.00  0.00    -0.419 A  
HETATM   25  S   UNL     1     -12.773  11.593  70.968  1.00  0.00    -0.222 SA 
HETATM   26  H2  UNL     1     -13.840  10.108  73.075  1.00  0.00     0.000 HD 
HETATM   27  H1  UNL     1     -12.954   8.590  72.972  1.00  0.00     0.000 HD 
ENDBRANCH  19  20
BRANCH  19  28
HETATM   28  N   UNL     1      -9.935   8.271  68.950  1.00  0.00    -0.181 NA 
HETATM   29  H   UNL     1      -9.319   7.702  69.529  1.00  0.00     0.000 HD 
BRANCH  28  30
HETATM   30  O   UNL     1     -10.814   7.706  68.024  1.00  0.00    -0.127 OA 
BRANCH  30  31
HETATM   31  C   UNL     1     -10.063   7.319  66.868  1.00  0.00    -0.247 C  
HETATM   32  O   UNL     1      -7.728   6.820  66.414  1.00  0.00    -0.094 OA 
HETATM   33  C   UNL     1      -8.704   6.678  67.142  1.00  0.00    -0.111 C  
HETATM   34  O   UNL     1      -8.679   5.869  68.228  1.00  0.00    -0.113 OA 
ENDBRANCH  30  31
ENDBRANCH  28  30
ENDBRANCH  19  28
ENDBRANCH  17  19
ENDBRANCH   8  15
TORSDOF 7
ENDMDL
MODEL      160
REMARK 921   NORMALIZED FREE ENERGY PREDICTED BY IDOCK:   -4.39 KCAL/MOL
REMARK 922        TOTAL FREE ENERGY PREDICTED BY IDOCK:   -7.54 KCAL/MOL
REMARK 923 INTER-LIGAND FREE ENERGY PREDICTED BY IDOCK:   -6.05 KCAL/MOL
REMARK 924 INTRA-LIGAND FREE ENERGY PREDICTED BY IDOCK:   -1.48 KCAL/MOL
REMARK 927      BINDING AFFINITY PREDICTED BY RF-SCORE:    0.00 PKD
ROOT
HETATM    1  C   UNL     1      -9.706  12.356  67.091  1.00  0.00    -0.207 C  
HETATM    2  S   UNL     1     -11.238  11.693  67.743  1.00  0.00    -0.289 SA 
HETATM    3  CG2 UNL     1     -11.988  13.274  68.128  1.00  0.00    -0.304 C  
HETATM    4  CB  UNL     1     -11.085  14.354  68.717  1.00  0.00    -0.275 C  
HETATM    5  O   UNL     1      -6.869  12.956  68.644  1.00  0.00    -0.087 OA 
HETATM    6  CA  UNL     1      -9.719  14.324  68.641  1.00  0.00    -0.213 C  
HETATM    7  N   UNL     1      -9.095  13.250  68.060  1.00  0.00    -0.196 N  
HETATM    8  CA  UNL     1      -8.447  11.438  67.277  1.00  0.00    -0.148 C  
HETATM    9  C   UNL     1      -8.879  15.467  69.187  1.00  0.00    -0.253 C  
HETATM   10  C   UNL     1      -7.883  12.667  68.053  1.00  0.00    -0.149 C  
HETATM   11  OXT UNL     1      -9.280  16.619  69.267  1.00  0.00    -0.203 OA 
HETATM   12  O   UNL     1      -7.617  15.186  69.564  1.00  0.00    -0.201 OA 
ENDROOT
BRANCH   4  13
HETATM   13  CG1 UNL     1     -11.850  15.389  69.439  1.00  0.00    -0.372 C  
HETATM   14  CD1 UNL     1     -12.561  15.243  70.567  1.00  0.00    -0.450 C  
ENDBRANCH   4  13
BRANCH   8  15
HETATM   15  N   UNL     1      -8.570  10.205  68.125  1.00  0.00    -0.117 N  
HETATM   16  H   UNL     1      -9.457   9.998  68.584  1.00  0.00     0.000 HD 
HETATM   17  C   UNL     1      -7.502   9.351  68.290  1.00  0.00    -0.078 C  
HETATM   18  O   UNL     1      -6.386   9.592  67.850  1.00  0.00    -0.056 OA 
BRANCH  17  19
HETATM   19  C   UNL     1      -7.741   8.087  69.121  1.00  0.00    -0.099 C  
BRANCH  19  20
HETATM   20  C   UNL     1      -8.279   8.203  70.474  1.00  0.00    -0.117 A  
HETATM   21  N   UNL     1     -11.149   8.580  72.463  1.00  0.00    -0.325 NA 
HETATM   22  C   UNL     1      -7.530   8.160  71.636  1.00  0.00    -0.085 A  
HETATM   23  N   UNL     1      -9.649   8.365  70.686  1.00  0.00    -0.167 NA 
HETATM   24  C   UNL     1      -9.911   8.438  71.968  1.00  0.00    -0.284 A  
HETATM   25  S   UNL     1      -8.550   8.327  73.005  1.00  0.00    -0.163 SA 
HETATM   26  H2  UNL     1     -11.284   8.623  73.473  1.00  0.00     0.000 HD 
HETATM   27  H1  UNL     1     -11.959   8.646  71.846  1.00  0.00     0.000 HD 
ENDBRANCH  19  20
BRANCH  19  28
HETATM   28  N   UNL     1      -7.496   6.859  68.748  1.00  0.00    -0.097 NA 
HETATM   29  H   UNL     1      -6.838   6.262  69.248  1.00  0.00     0.000 HD 
BRANCH  28  30
HETATM   30  O   UNL     1      -8.193   6.414  67.622  1.00  0.00    -0.116 OA 
BRANCH  30  31
HETATM   31  C   UNL     1      -9.309   5.634  68.063  1.00  0.00    -0.108 C  
HETATM   32  O   UNL     1     -11.518   6.126  68.950  1.00  0.00    -0.305 OA 
HETATM   33  C   UNL     1     -10.651   6.362  68.116  1.00  0.00    -0.255 C  
HETATM   34  O   UNL     1     -10.841   7.251  67.113  1.00  0.00    -0.337 OA 
ENDBRANCH  30  31
ENDBRANCH  28  30
ENDBRANCH  19  28
ENDBRANCH  17  19
ENDBRANCH   8  15
TORSDOF 7
ENDMDL
MODEL      161
REMARK 921   NORMALIZED FREE ENERGY PREDICTED BY IDOCK:   -4.32 KCAL/MOL
REMARK 922        TOTAL FREE ENERGY PREDICTED BY IDOCK:   -7.44 KCAL/MOL
REMARK 923 INTER-LIGAND FREE ENERGY PREDICTED BY IDOCK:   -6.17 KCAL/MOL
REMARK 924 INTRA-LIGAND FREE ENERGY PREDICTED BY IDOCK:   -1.27 KCAL/MOL
REMARK 927      BINDING AFFINITY PREDICTED BY RF-SCORE:    0.00 PKD
ROOT
HETATM    1  C   UNL     1     -10.773   7.290  67.017  1.00  0.00    -0.336 C  
HETATM    2  S   UNL     1     -10.520   8.953  67.635  1.00  0.00    -0.232 SA 
HETATM    3  CG2 UNL     1      -9.695   9.581  66.174  1.00  0.00    -0.258 C  
HETATM    4  CB  UNL     1      -8.701   8.657  65.478  1.00  0.00    -0.219 C  
HETATM    5  O   UNL     1      -8.864   4.631  67.350  1.00  0.00    -0.104 OA 
HETATM    6  CA  UNL     1      -8.660   7.303  65.672  1.00  0.00    -0.109 C  
HETATM    7  N   UNL     1      -9.511   6.722  66.577  1.00  0.00    -0.165 N  
HETATM    8  CA  UNL     1     -10.795   6.165  68.112  1.00  0.00    -0.306 C  
HETATM    9  C   UNL     1      -7.690   6.428  64.893  1.00  0.00    -0.104 C  
HETATM   10  C   UNL     1      -9.605   5.585  67.290  1.00  0.00    -0.125 C  
HETATM   11  OXT UNL     1      -7.264   6.718  63.785  1.00  0.00    -0.055 OA 
HETATM   12  O   UNL     1      -7.319   5.261  65.454  1.00  0.00    -0.067 OA 
ENDROOT
BRANCH   4  13
HETATM   13  CG1 UNL     1      -7.744   9.399  64.635  1.00  0.00    -0.117 C  
HETATM   14  CD1 UNL     1      -6.601   9.988  65.018  1.00  0.00    -0.124 C  
ENDBRANCH   4  13
BRANCH   8  15
HETATM   15  N   UNL     1     -10.425   6.522  69.522  1.00  0.00    -0.205 N  
HETATM   16  H   UNL     1      -9.441   6.622  69.774  1.00  0.00     0.000 HD 
HETATM   17  C   UNL     1     -11.396   6.718  70.480  1.00  0.00    -0.343 C  
HETATM   18  O   UNL     1     -12.584   6.516  70.271  1.00  0.00     0.092 OA 
BRANCH  17  19
HETATM   19  C   UNL     1     -10.925   7.140  71.875  1.00  0.00    -0.231 C  
BRANCH  19  20
HETATM   20  C   UNL     1      -9.961   6.311  72.594  1.00  0.00    -0.172 A  
HETATM   21  N   UNL     1      -6.611   5.300  72.888  1.00  0.00    -0.067 NA 
HETATM   22  C   UNL     1     -10.258   5.497  73.672  1.00  0.00    -0.218 A  
HETATM   23  N   UNL     1      -8.615   6.296  72.224  1.00  0.00    -0.119 NA 
HETATM   24  C   UNL     1      -7.932   5.496  73.005  1.00  0.00    -0.105 A  
HETATM   25  S   UNL     1      -8.842   4.703  74.223  1.00  0.00    -0.108 SA 
HETATM   26  H2  UNL     1      -6.138   4.667  73.534  1.00  0.00     0.000 HD 
HETATM   27  H1  UNL     1      -6.070   5.771  72.163  1.00  0.00     0.000 HD 
ENDBRANCH  19  20
BRANCH  19  28
HETATM   28  N   UNL     1     -11.313   8.200  72.533  1.00  0.00    -0.391 NA 
HETATM   29  H   UNL     1     -11.560   8.163  73.522  1.00  0.00     0.000 HD 
BRANCH  28  30
HETATM   30  O   UNL     1     -11.367   9.388  71.800  1.00  0.00    -0.379 OA 
BRANCH  30  31
HETATM   31  C   UNL     1     -12.684   9.934  71.925  1.00  0.00    -0.409 C  
HETATM   32  O   UNL     1     -13.616  12.172  72.098  1.00  0.00    -0.431 OA 
HETATM   33  C   UNL     1     -12.833  11.407  71.548  1.00  0.00    -0.403 C  
HETATM   34  O   UNL     1     -12.073  11.790  70.495  1.00  0.00    -0.363 OA 
ENDBRANCH  30  31
ENDBRANCH  28  30
ENDBRANCH  19  28
ENDBRANCH  17  19
ENDBRANCH   8  15
TORSDOF 7
ENDMDL
MODEL      162
REMARK 921   NORMALIZED FREE ENERGY PREDICTED BY IDOCK:   -4.31 KCAL/MOL
REMARK 922        TOTAL FREE ENERGY PREDICTED BY IDOCK:   -7.43 KCAL/MOL
REMARK 923 INTER-LIGAND FREE ENERGY PREDICTED BY IDOCK:   -6.03 KCAL/MOL
REMARK 924 INTRA-LIGAND FREE ENERGY PREDICTED BY IDOCK:   -1.40 KCAL/MOL
REMARK 927      BINDING AFFINITY PREDICTED BY RF-SCORE:    0.00 PKD
ROOT
HETATM    1  C   UNL     1     -10.591   8.961  67.289  1.00  0.00    -0.234 C  
HETATM    2  S   UNL     1      -9.367   8.808  65.989  1.00  0.00    -0.218 SA 
HETATM    3  CG2 UNL     1      -8.848   7.144  66.405  1.00  0.00    -0.145 C  
HETATM    4  CB  UNL     1      -8.720   6.799  67.886  1.00  0.00    -0.120 C  
HETATM    5  O   UNL     1     -10.257  10.175  70.329  1.00  0.00    -0.247 OA 
HETATM    6  CA  UNL     1      -9.297   7.531  68.887  1.00  0.00    -0.142 C  
HETATM    7  N   UNL     1      -9.989   8.674  68.580  1.00  0.00    -0.178 N  
HETATM    8  CA  UNL     1     -10.821  10.420  67.822  1.00  0.00    -0.297 C  
HETATM    9  C   UNL     1      -9.189   7.093  70.339  1.00  0.00    -0.156 C  
HETATM   10  C   UNL     1     -10.404   9.799  69.189  1.00  0.00    -0.211 C  
HETATM   11  OXT UNL     1      -9.050   5.928  70.683  1.00  0.00    -0.146 OA 
HETATM   12  O   UNL     1      -9.291   8.047  71.285  1.00  0.00    -0.143 OA 
ENDROOT
BRANCH   4  13
HETATM   13  CG1 UNL     1      -7.842   5.634  68.114  1.00  0.00    -0.096 C  
HETATM   14  CD1 UNL     1      -7.256   4.857  67.190  1.00  0.00    -0.077 C  
ENDBRANCH   4  13
BRANCH   8  15
HETATM   15  N   UNL     1      -9.901  11.512  67.359  1.00  0.00    -0.185 N  
HETATM   16  H   UNL     1      -9.092  11.277  66.783  1.00  0.00     0.000 HD 
HETATM   17  C   UNL     1     -10.134  12.826  67.702  1.00  0.00    -0.220 C  
HETATM   18  O   UNL     1     -11.025  13.162  68.470  1.00  0.00    -0.243 OA 
BRANCH  17  19
HETATM   19  C   UNL     1      -9.177  13.876  67.132  1.00  0.00    -0.239 C  
BRANCH  19  20
HETATM   20  C   UNL     1      -7.848  14.037  67.719  1.00  0.00    -0.171 A  
HETATM   21  N   UNL     1      -5.385  12.665  69.813  1.00  0.00    -0.079 NA 
HETATM   22  C   UNL     1      -6.998  15.102  67.485  1.00  0.00    -0.192 A  
HETATM   23  N   UNL     1      -7.329  13.075  68.587  1.00  0.00    -0.106 NA 
HETATM   24  C   UNL     1      -6.128  13.413  68.984  1.00  0.00    -0.087 A  
HETATM   25  S   UNL     1      -5.539  14.898  68.362  1.00  0.00    -0.117 SA 
HETATM   26  H2  UNL     1      -4.453  12.985  70.078  1.00  0.00     0.000 HD 
HETATM   27  H1  UNL     1      -5.736  11.782  70.183  1.00  0.00     0.000 HD 
ENDBRANCH  19  20
BRANCH  19  28
HETATM   28  N   UNL     1      -9.426  14.694  66.143  1.00  0.00    -0.410 NA 
HETATM   29  H   UNL     1      -8.801  14.779  65.342  1.00  0.00     0.000 HD 
BRANCH  28  30
HETATM   30  O   UNL     1     -10.599  15.442  66.252  1.00  0.00    -0.295 OA 
BRANCH  30  31
HETATM   31  C   UNL     1     -10.243  16.825  66.359  1.00  0.00    -0.323 C  
HETATM   32  O   UNL     1     -10.543  18.560  68.034  1.00  0.00    -0.377 OA 
HETATM   33  C   UNL     1     -10.237  17.403  67.773  1.00  0.00    -0.345 C  
HETATM   34  O   UNL     1      -9.791  16.546  68.722  1.00  0.00    -0.233 OA 
ENDBRANCH  30  31
ENDBRANCH  28  30
ENDBRANCH  19  28
ENDBRANCH  17  19
ENDBRANCH   8  15
TORSDOF 7
ENDMDL
MODEL      163
REMARK 921   NORMALIZED FREE ENERGY PREDICTED BY IDOCK:   -4.30 KCAL/MOL
REMARK 922        TOTAL FREE ENERGY PREDICTED BY IDOCK:   -7.42 KCAL/MOL
REMARK 923 INTER-LIGAND FREE ENERGY PREDICTED BY IDOCK:   -6.22 KCAL/MOL
REMARK 924 INTRA-LIGAND FREE ENERGY PREDICTED BY IDOCK:   -1.20 KCAL/MOL
REMARK 927      BINDING AFFINITY PREDICTED BY RF-SCORE:    0.00 PKD
ROOT
HETATM    1  C   UNL     1     -11.627  11.110  67.683  1.00  0.00    -0.183 C  
HETATM    2  S   UNL     1     -11.005  11.824  69.204  1.00  0.00    -0.175 SA 
HETATM    3  CG2 UNL     1     -11.492  13.510  68.842  1.00  0.00    -0.306 C  
HETATM    4  CB  UNL     1     -11.310  14.001  67.409  1.00  0.00    -0.350 C  
HETATM    5  O   UNL     1     -10.069  10.603  64.830  1.00  0.00    -0.296 OA 
HETATM    6  CA  UNL     1     -11.142  13.167  66.338  1.00  0.00    -0.289 C  
HETATM    7  N   UNL     1     -11.074  11.812  66.537  1.00  0.00    -0.299 N  
HETATM    8  CA  UNL     1     -10.850   9.846  67.171  1.00  0.00    -0.157 C  
HETATM    9  C   UNL     1     -11.036  13.718  64.925  1.00  0.00    -0.375 C  
HETATM   10  C   UNL     1     -10.624  10.717  65.898  1.00  0.00    -0.108 C  
HETATM   11  OXT UNL     1     -11.544  14.773  64.574  1.00  0.00    -0.395 OA 
HETATM   12  O   UNL     1     -10.374  12.975  64.017  1.00  0.00    -0.419 OA 
ENDROOT
BRANCH   4  13
HETATM   13  CG1 UNL     1     -11.259  15.474  67.325  1.00  0.00    -0.226 C  
HETATM   14  CD1 UNL     1     -10.214  16.273  67.589  1.00  0.00    -0.272 C  
ENDBRANCH   4  13
BRANCH   8  15
HETATM   15  N   UNL     1      -9.575   9.454  67.858  1.00  0.00    -0.133 N  
HETATM   16  H   UNL     1      -8.687   9.829  67.522  1.00  0.00     0.000 HD 
HETATM   17  C   UNL     1      -9.587   8.596  68.936  1.00  0.00    -0.159 C  
HETATM   18  O   UNL     1     -10.601   8.034  69.325  1.00  0.00    -0.222 OA 
BRANCH  17  19
HETATM   19  C   UNL     1      -8.243   8.304  69.610  1.00  0.00    -0.118 C  
BRANCH  19  20
HETATM   20  C   UNL     1      -7.333   9.406  69.916  1.00  0.00    -0.088 A  
HETATM   21  N   UNL     1      -6.654  12.832  69.545  1.00  0.00    -0.281 NA 
HETATM   22  C   UNL     1      -6.183   9.302  70.675  1.00  0.00    -0.060 A  
HETATM   23  N   UNL     1      -7.588  10.695  69.443  1.00  0.00    -0.139 NA 
HETATM   24  C   UNL     1      -6.656  11.524  69.841  1.00  0.00    -0.059 A  
HETATM   25  S   UNL     1      -5.411  10.829  70.794  1.00  0.00    -0.107 SA 
HETATM   26  H2  UNL     1      -5.899  13.424  69.893  1.00  0.00     0.000 HD 
HETATM   27  H1  UNL     1      -7.394  13.245  68.978  1.00  0.00     0.000 HD 
ENDBRANCH  19  20
BRANCH  19  28
HETATM   28  N   UNL     1      -7.787   7.127  69.949  1.00  0.00    -0.111 NA 
HETATM   29  H   UNL     1      -6.860   6.806  69.673  1.00  0.00     0.000 HD 
BRANCH  28  30
HETATM   30  O   UNL     1      -8.650   6.336  70.712  1.00  0.00    -0.133 OA 
BRANCH  30  31
HETATM   31  C   UNL     1      -8.325   6.521  72.094  1.00  0.00    -0.107 C  
HETATM   32  O   UNL     1      -8.989   8.087  73.829  1.00  0.00    -0.272 OA 
HETATM   33  C   UNL     1      -9.317   7.352  72.905  1.00  0.00    -0.164 C  
HETATM   34  O   UNL     1     -10.613   7.156  72.568  1.00  0.00    -0.216 OA 
ENDBRANCH  30  31
ENDBRANCH  28  30
ENDBRANCH  19  28
ENDBRANCH  17  19
ENDBRANCH   8  15
TORSDOF 7
ENDMDL
MODEL      164
REMARK 921   NORMALIZED FREE ENERGY PREDICTED BY IDOCK:   -4.29 KCAL/MOL
REMARK 922        TOTAL FREE ENERGY PREDICTED BY IDOCK:   -7.40 KCAL/MOL
REMARK 923 INTER-LIGAND FREE ENERGY PREDICTED BY IDOCK:   -6.15 KCAL/MOL
REMARK 924 INTRA-LIGAND FREE ENERGY PREDICTED BY IDOCK:   -1.25 KCAL/MOL
REMARK 927      BINDING AFFINITY PREDICTED BY RF-SCORE:    0.00 PKD
ROOT
HETATM    1  C   UNL     1     -11.685  12.594  68.155  1.00  0.00    -0.347 C  
HETATM    2  S   UNL     1     -11.836  11.244  69.324  1.00  0.00    -0.364 SA 
HETATM    3  CG2 UNL     1     -12.659  12.187  70.606  1.00  0.00    -0.169 C  
HETATM    4  CB  UNL     1     -12.174  13.614  70.848  1.00  0.00    -0.408 C  
HETATM    5  O   UNL     1      -9.205  14.715  67.732  1.00  0.00    -0.189 OA 
HETATM    6  CA  UNL     1     -11.425  14.322  69.949  1.00  0.00    -0.243 C  
HETATM    7  N   UNL     1     -11.025  13.727  68.781  1.00  0.00    -0.257 N  
HETATM    8  CA  UNL     1     -10.443  12.514  67.197  1.00  0.00    -0.224 C  
HETATM    9  C   UNL     1     -11.034  15.766  70.221  1.00  0.00    -0.357 C  
HETATM   10  C   UNL     1     -10.086  13.892  67.832  1.00  0.00    -0.242 C  
HETATM   11  OXT UNL     1     -11.690  16.521  70.924  1.00  0.00    -0.212 OA 
HETATM   12  O   UNL     1      -9.922  16.232  69.620  1.00  0.00    -0.228 OA 
ENDROOT
BRANCH   4  13
HETATM   13  CG1 UNL     1     -12.541  14.108  72.189  1.00  0.00    -0.328 C  
HETATM   14  CD1 UNL     1     -13.774  14.325  72.673  1.00  0.00    -0.555 C  
ENDBRANCH   4  13
BRANCH   8  15
HETATM   15  N   UNL     1      -9.406  11.458  67.446  1.00  0.00    -0.166 N  
HETATM   16  H   UNL     1      -8.816  11.518  68.276  1.00  0.00     0.000 HD 
HETATM   17  C   UNL     1      -9.241  10.408  66.569  1.00  0.00    -0.160 C  
HETATM   18  O   UNL     1      -9.845  10.330  65.508  1.00  0.00    -0.243 OA 
BRANCH  17  19
HETATM   19  C   UNL     1      -8.202   9.347  66.938  1.00  0.00    -0.116 C  
BRANCH  19  20
HETATM   20  C   UNL     1      -7.667   8.466  65.902  1.00  0.00    -0.086 A  
HETATM   21  N   UNL     1      -7.772   5.283  64.422  1.00  0.00    -0.084 NA 
HETATM   22  C   UNL     1      -6.706   8.821  64.972  1.00  0.00    -0.068 A  
HETATM   23  N   UNL     1      -8.122   7.153  65.776  1.00  0.00    -0.122 NA 
HETATM   24  C   UNL     1      -7.519   6.550  64.781  1.00  0.00    -0.091 A  
HETATM   25  S   UNL     1      -6.367   7.498  63.936  1.00  0.00    -0.053 SA 
HETATM   26  H2  UNL     1      -7.270   4.876  63.633  1.00  0.00     0.000 HD 
HETATM   27  H1  UNL     1      -8.457   4.719  64.925  1.00  0.00     0.000 HD 
ENDBRANCH  19  20
BRANCH  19  28
HETATM   28  N   UNL     1      -7.722   9.116  68.132  1.00  0.00    -0.091 NA 
HETATM   29  H   UNL     1      -6.728   9.201  68.342  1.00  0.00     0.000 HD 
BRANCH  28  30
HETATM   30  O   UNL     1      -8.657   8.746  69.102  1.00  0.00    -0.125 OA 
BRANCH  30  31
HETATM   31  C   UNL     1      -8.164   9.157  70.382  1.00  0.00    -0.171 C  
HETATM   32  O   UNL     1      -8.523   8.452  72.680  1.00  0.00    -0.219 OA 
HETATM   33  C   UNL     1      -8.316   8.141  71.512  1.00  0.00    -0.126 C  
HETATM   34  O   UNL     1      -8.129   6.855  71.132  1.00  0.00    -0.108 OA 
ENDBRANCH  30  31
ENDBRANCH  28  30
ENDBRANCH  19  28
ENDBRANCH  17  19
ENDBRANCH   8  15
TORSDOF 7
ENDMDL
MODEL      165
REMARK 921   NORMALIZED FREE ENERGY PREDICTED BY IDOCK:   -4.28 KCAL/MOL
REMARK 922        TOTAL FREE ENERGY PREDICTED BY IDOCK:   -7.38 KCAL/MOL
REMARK 923 INTER-LIGAND FREE ENERGY PREDICTED BY IDOCK:   -6.42 KCAL/MOL
REMARK 924 INTRA-LIGAND FREE ENERGY PREDICTED BY IDOCK:   -0.96 KCAL/MOL
REMARK 927      BINDING AFFINITY PREDICTED BY RF-SCORE:    0.00 PKD
ROOT
HETATM    1  C   UNL     1     -10.351   6.155  69.784  1.00  0.00    -0.211 C  
HETATM    2  S   UNL     1      -8.701   6.210  69.089  1.00  0.00    -0.121 SA 
HETATM    3  CG2 UNL     1      -8.017   4.900  70.102  1.00  0.00    -0.073 C  
HETATM    4  CB  UNL     1      -8.437   4.856  71.568  1.00  0.00    -0.124 C  
HETATM    5  O   UNL     1     -11.614   7.876  72.287  1.00  0.00    -0.305 OA 
HETATM    6  CA  UNL     1      -9.536   5.505  72.062  1.00  0.00    -0.150 C  
HETATM    7  N   UNL     1     -10.290   6.291  71.230  1.00  0.00    -0.207 N  
HETATM    8  CA  UNL     1     -11.126   7.520  69.778  1.00  0.00    -0.129 C  
HETATM    9  C   UNL     1      -9.940   5.363  73.521  1.00  0.00    -0.175 C  
HETATM   10  C   UNL     1     -11.179   7.297  71.319  1.00  0.00    -0.256 C  
HETATM   11  OXT UNL     1      -9.680   4.380  74.199  1.00  0.00    -0.116 OA 
HETATM   12  O   UNL     1     -10.652   6.367  74.068  1.00  0.00    -0.292 OA 
ENDROOT
BRANCH   4  13
HETATM   13  CG1 UNL     1      -7.482   4.098  72.400  1.00  0.00    -0.068 C  
HETATM   14  CD1 UNL     1      -6.252   3.682  72.062  1.00  0.00    -0.014 C  
ENDBRANCH   4  13
BRANCH   8  15
HETATM   15  N   UNL     1     -10.390   8.767  69.383  1.00  0.00    -0.211 N  
HETATM   16  H   UNL     1      -9.441   8.695  69.015  1.00  0.00     0.000 HD 
HETATM   17  C   UNL     1     -10.978  10.006  69.510  1.00  0.00    -0.253 C  
HETATM   18  O   UNL     1     -12.071  10.171  70.035  1.00  0.00    -0.199 OA 
BRANCH  17  19
HETATM   19  C   UNL     1     -10.173  11.214  69.023  1.00  0.00    -0.176 C  
BRANCH  19  20
HETATM   20  C   UNL     1     -10.844  12.277  68.278  1.00  0.00    -0.225 A  
HETATM   21  N   UNL     1     -11.904  15.626  68.265  1.00  0.00    -0.430 NA 
HETATM   22  C   UNL     1     -11.356  12.153  66.999  1.00  0.00    -0.337 A  
HETATM   23  N   UNL     1     -11.010  13.546  68.836  1.00  0.00    -0.256 NA 
HETATM   24  C   UNL     1     -11.625  14.342  67.997  1.00  0.00    -0.332 A  
HETATM   25  S   UNL     1     -12.054  13.636  66.494  1.00  0.00    -0.408 SA 
HETATM   26  H2  UNL     1     -12.380  16.193  67.563  1.00  0.00     0.000 HD 
HETATM   27  H1  UNL     1     -11.648  16.045  69.159  1.00  0.00     0.000 HD 
ENDBRANCH  19  20
BRANCH  19  28
HETATM   28  N   UNL     1      -8.892  11.409  69.192  1.00  0.00    -0.376 NA 
HETATM   29  H   UNL     1      -8.433  11.240  70.086  1.00  0.00     0.000 HD 
BRANCH  28  30
HETATM   30  O   UNL     1      -8.192  11.864  68.072  1.00  0.00    -0.140 OA 
BRANCH  30  31
HETATM   31  C   UNL     1      -7.192  12.789  68.512  1.00  0.00    -0.114 C  
HETATM   32  O   UNL     1      -5.902  14.564  67.466  1.00  0.00    -0.340 OA 
HETATM   33  C   UNL     1      -6.987  14.018  67.629  1.00  0.00    -0.183 C  
HETATM   34  O   UNL     1      -8.127  14.509  67.088  1.00  0.00    -0.202 OA 
ENDBRANCH  30  31
ENDBRANCH  28  30
ENDBRANCH  19  28
ENDBRANCH  17  19
ENDBRANCH   8  15
TORSDOF 7
ENDMDL
MODEL      166
REMARK 921   NORMALIZED FREE ENERGY PREDICTED BY IDOCK:   -4.27 KCAL/MOL
REMARK 922        TOTAL FREE ENERGY PREDICTED BY IDOCK:   -7.37 KCAL/MOL
REMARK 923 INTER-LIGAND FREE ENERGY PREDICTED BY IDOCK:   -5.84 KCAL/MOL
REMARK 924 INTRA-LIGAND FREE ENERGY PREDICTED BY IDOCK:   -1.53 KCAL/MOL
REMARK 927      BINDING AFFINITY PREDICTED BY RF-SCORE:    0.00 PKD
ROOT
HETATM    1  C   UNL     1      -8.143  10.631  66.329  1.00  0.00    -0.151 C  
HETATM    2  S   UNL     1      -9.460   9.450  66.039  1.00  0.00    -0.260 SA 
HETATM    3  CG2 UNL     1     -10.398  10.477  64.909  1.00  0.00    -0.237 C  
HETATM    4  CB  UNL     1     -10.499  11.965  65.232  1.00  0.00    -0.317 C  
HETATM    5  O   UNL     1      -7.871  12.908  68.687  1.00  0.00    -0.120 OA 
HETATM    6  CA  UNL     1      -9.659  12.611  66.097  1.00  0.00    -0.222 C  
HETATM    7  N   UNL     1      -8.696  11.901  66.767  1.00  0.00    -0.191 N  
HETATM    8  CA  UNL     1      -7.464  10.541  67.741  1.00  0.00    -0.087 C  
HETATM    9  C   UNL     1      -9.770  14.111  66.323  1.00  0.00    -0.297 C  
HETATM   10  C   UNL     1      -7.929  12.024  67.865  1.00  0.00    -0.147 C  
HETATM   11  OXT UNL     1     -10.207  14.887  65.486  1.00  0.00    -0.322 OA 
HETATM   12  O   UNL     1      -9.324  14.596  67.498  1.00  0.00    -0.189 OA 
ENDROOT
BRANCH   4  13
HETATM   13  CG1 UNL     1     -11.651  12.603  64.567  1.00  0.00    -0.399 C  
HETATM   14  CD1 UNL     1     -12.482  12.058  63.666  1.00  0.00    -0.637 C  
ENDBRANCH   4  13
BRANCH   8  15
HETATM   15  N   UNL     1      -8.068   9.640  68.778  1.00  0.00    -0.095 N  
HETATM   16  H   UNL     1      -8.943   9.908  69.229  1.00  0.00     0.000 HD 
HETATM   17  C   UNL     1      -7.457   8.455  69.128  1.00  0.00    -0.089 C  
HETATM   18  O   UNL     1      -6.360   8.124  68.701  1.00  0.00    -0.050 OA 
BRANCH  17  19
HETATM   19  C   UNL     1      -8.180   7.572  70.149  1.00  0.00    -0.132 C  
BRANCH  19  20
HETATM   20  C   UNL     1      -7.590   7.362  71.469  1.00  0.00    -0.085 A  
HETATM   21  N   UNL     1      -6.062   5.086  73.664  1.00  0.00    -0.037 NA 
HETATM   22  C   UNL     1      -7.448   8.333  72.443  1.00  0.00    -0.118 A  
HETATM   23  N   UNL     1      -7.102   6.107  71.841  1.00  0.00    -0.084 NA 
HETATM   24  C   UNL     1      -6.611   6.146  73.055  1.00  0.00    -0.065 A  
HETATM   25  S   UNL     1      -6.703   7.669  73.837  1.00  0.00    -0.090 SA 
HETATM   26  H2  UNL     1      -5.691   5.186  74.610  1.00  0.00     0.000 HD 
HETATM   27  H1  UNL     1      -6.008   4.179  73.199  1.00  0.00     0.000 HD 
ENDBRANCH  19  20
BRANCH  19  28
HETATM   28  N   UNL     1      -9.311   6.945  69.965  1.00  0.00    -0.158 NA 
HETATM   29  H   UNL     1      -9.501   6.408  69.119  1.00  0.00     0.000 HD 
BRANCH  28  30
HETATM   30  O   UNL     1     -10.244   7.054  70.998  1.00  0.00    -0.197 OA 
BRANCH  30  31
HETATM   31  C   UNL     1     -11.442   7.627  70.465  1.00  0.00    -0.218 C  
HETATM   32  O   UNL     1     -12.779   9.599  70.949  1.00  0.00    -0.283 OA 
HETATM   33  C   UNL     1     -11.670   9.105  70.777  1.00  0.00    -0.256 C  
HETATM   34  O   UNL     1     -10.542   9.853  70.777  1.00  0.00    -0.304 OA 
ENDBRANCH  30  31
ENDBRANCH  28  30
ENDBRANCH  19  28
ENDBRANCH  17  19
ENDBRANCH   8  15
TORSDOF 7
ENDMDL
MODEL      167
REMARK 921   NORMALIZED FREE ENERGY PREDICTED BY IDOCK:   -4.26 KCAL/MOL
REMARK 922        TOTAL FREE ENERGY PREDICTED BY IDOCK:   -7.36 KCAL/MOL
REMARK 923 INTER-LIGAND FREE ENERGY PREDICTED BY IDOCK:   -5.98 KCAL/MOL
REMARK 924 INTRA-LIGAND FREE ENERGY PREDICTED BY IDOCK:   -1.37 KCAL/MOL
REMARK 927      BINDING AFFINITY PREDICTED BY RF-SCORE:    0.00 PKD
ROOT
HETATM    1  C   UNL     1     -11.125  10.297  67.353  1.00  0.00    -0.189 C  
HETATM    2  S   UNL     1     -10.475  11.054  68.841  1.00  0.00    -0.207 SA 
HETATM    3  CG2 UNL     1     -11.494  12.527  68.772  1.00  0.00    -0.310 C  
HETATM    4  CB  UNL     1     -11.726  13.155  67.401  1.00  0.00    -0.419 C  
HETATM    5  O   UNL     1     -10.029  10.514  64.258  1.00  0.00    -0.321 OA 
HETATM    6  CA  UNL     1     -11.517  12.496  66.221  1.00  0.00    -0.370 C  
HETATM    7  N   UNL     1     -11.019  11.219  66.235  1.00  0.00    -0.246 N  
HETATM    8  CA  UNL     1     -10.117   9.378  66.575  1.00  0.00    -0.262 C  
HETATM    9  C   UNL     1     -11.835  13.157  64.888  1.00  0.00    -0.358 C  
HETATM   10  C   UNL     1     -10.391  10.369  65.403  1.00  0.00    -0.200 C  
HETATM   11  OXT UNL     1     -12.685  14.024  64.753  1.00  0.00    -0.651 OA 
HETATM   12  O   UNL     1     -11.160  12.726  63.805  1.00  0.00    -0.410 OA 
ENDROOT
BRANCH   4  13
HETATM   13  CG1 UNL     1     -12.126  14.572  67.497  1.00  0.00    -0.284 C  
HETATM   14  CD1 UNL     1     -11.610  15.517  68.298  1.00  0.00    -0.344 C  
ENDBRANCH   4  13
BRANCH   8  15
HETATM   15  N   UNL     1      -8.680   9.353  67.008  1.00  0.00    -0.127 N  
HETATM   16  H   UNL     1      -8.032  10.051  66.642  1.00  0.00     0.000 HD 
HETATM   17  C   UNL     1      -8.225   8.400  67.893  1.00  0.00    -0.127 C  
HETATM   18  O   UNL     1      -8.923   7.478  68.291  1.00  0.00    -0.131 OA 
BRANCH  17  19
HETATM   19  C   UNL     1      -6.759   8.493  68.325  1.00  0.00    -0.065 C  
BRANCH  19  20
HETATM   20  C   UNL     1      -6.332   9.579  69.204  1.00  0.00    -0.041 A  
HETATM   21  N   UNL     1      -6.566  13.001  69.958  1.00  0.00    -0.362 NA 
HETATM   22  C   UNL     1      -5.481   9.441  70.286  1.00  0.00    -0.031 A  
HETATM   23  N   UNL     1      -6.785  10.883  69.000  1.00  0.00    -0.063 NA 
HETATM   24  C   UNL     1      -6.288  11.690  69.904  1.00  0.00    -0.124 A  
HETATM   25  S   UNL     1      -5.243  10.958  71.049  1.00  0.00    -0.097 SA 
HETATM   26  H2  UNL     1      -6.149  13.572  70.693  1.00  0.00     0.000 HD 
HETATM   27  H1  UNL     1      -7.187  13.437  69.277  1.00  0.00     0.000 HD 
ENDBRANCH  19  20
BRANCH  19  28
HETATM   28  N   UNL     1      -5.796   7.682  67.973  1.00  0.00    -0.038 NA 
HETATM   29  H   UNL     1      -4.877   8.023  67.694  1.00  0.00     0.000 HD 
BRANCH  28  30
HETATM   30  O   UNL     1      -6.105   6.320  68.001  1.00  0.00    -0.021 OA 
BRANCH  30  31
HETATM   31  C   UNL     1      -5.831   5.824  69.316  1.00  0.00    -0.016 C  
HETATM   32  O   UNL     1      -7.177   5.101  71.205  1.00  0.00    -0.064 OA 
HETATM   33  C   UNL     1      -6.974   5.074  69.997  1.00  0.00    -0.049 C  
HETATM   34  O   UNL     1      -7.714   4.309  69.160  1.00  0.00    -0.055 OA 
ENDBRANCH  30  31
ENDBRANCH  28  30
ENDBRANCH  19  28
ENDBRANCH  17  19
ENDBRANCH   8  15
TORSDOF 7
ENDMDL
MODEL      168
REMARK 921   NORMALIZED FREE ENERGY PREDICTED BY IDOCK:   -4.21 KCAL/MOL
REMARK 922        TOTAL FREE ENERGY PREDICTED BY IDOCK:   -7.29 KCAL/MOL
REMARK 923 INTER-LIGAND FREE ENERGY PREDICTED BY IDOCK:   -6.30 KCAL/MOL
REMARK 924 INTRA-LIGAND FREE ENERGY PREDICTED BY IDOCK:   -0.98 KCAL/MOL
REMARK 927      BINDING AFFINITY PREDICTED BY RF-SCORE:    0.00 PKD
ROOT
HETATM    1  C   UNL     1     -10.444  12.167  66.946  1.00  0.00    -0.225 C  
HETATM    2  S   UNL     1     -11.728  12.505  68.149  1.00  0.00    -0.332 SA 
HETATM    3  CG2 UNL     1     -11.889  14.251  67.778  1.00  0.00    -0.379 C  
HETATM    4  CB  UNL     1     -10.606  15.030  67.501  1.00  0.00    -0.265 C  
HETATM    5  O   UNL     1      -7.176  12.212  67.320  1.00  0.00    -0.135 OA 
HETATM    6  CA  UNL     1      -9.416  14.439  67.175  1.00  0.00    -0.222 C  
HETATM    7  N   UNL     1      -9.324  13.071  67.140  1.00  0.00    -0.222 N  
HETATM    8  CA  UNL     1      -9.458  11.006  67.328  1.00  0.00    -0.164 C  
HETATM    9  C   UNL     1      -8.191  15.276  66.843  1.00  0.00    -0.228 C  
HETATM   10  C   UNL     1      -8.375  12.120  67.196  1.00  0.00    -0.183 C  
HETATM   11  OXT UNL     1      -8.253  16.405  66.378  1.00  0.00    -0.282 OA 
HETATM   12  O   UNL     1      -6.983  14.715  67.043  1.00  0.00    -0.127 OA 
ENDROOT
BRANCH   4  13
HETATM   13  CG1 UNL     1     -10.780  16.482  67.701  1.00  0.00    -0.311 C  
HETATM   14  CD1 UNL     1     -10.679  17.168  68.850  1.00  0.00    -0.257 C  
ENDBRANCH   4  13
BRANCH   8  15
HETATM   15  N   UNL     1      -9.538  10.415  68.706  1.00  0.00    -0.169 N  
HETATM   16  H   UNL     1     -10.365  10.586  69.279  1.00  0.00     0.000 HD 
HETATM   17  C   UNL     1      -8.511   9.644  69.205  1.00  0.00    -0.143 C  
HETATM   18  O   UNL     1      -7.454   9.484  68.611  1.00  0.00    -0.077 OA 
BRANCH  17  19
HETATM   19  C   UNL     1      -8.710   9.032  70.594  1.00  0.00    -0.213 C  
BRANCH  19  20
HETATM   20  C   UNL     1      -9.795   8.079  70.816  1.00  0.00    -0.183 A  
HETATM   21  N   UNL     1     -13.268   7.556  70.872  1.00  0.00    -0.591 NA 
HETATM   22  C   UNL     1      -9.630   6.745  71.140  1.00  0.00    -0.173 A  
HETATM   23  N   UNL     1     -11.129   8.476  70.700  1.00  0.00    -0.251 NA 
HETATM   24  C   UNL     1     -11.931   7.466  70.929  1.00  0.00    -0.277 A  
HETATM   25  S   UNL     1     -11.158   5.983  71.306  1.00  0.00    -0.247 SA 
HETATM   26  H2  UNL     1     -13.834   6.728  71.056  1.00  0.00     0.000 HD 
HETATM   27  H1  UNL     1     -13.728   8.439  70.648  1.00  0.00     0.000 HD 
ENDBRANCH  19  20
BRANCH  19  28
HETATM   28  N   UNL     1      -7.996   9.284  71.660  1.00  0.00    -0.271 NA 
HETATM   29  H   UNL     1      -8.366   9.820  72.445  1.00  0.00     0.000 HD 
BRANCH  28  30
HETATM   30  O   UNL     1      -6.696   8.775  71.656  1.00  0.00    -0.075 OA 
BRANCH  30  31
HETATM   31  C   UNL     1      -6.365   8.376  72.991  1.00  0.00    -0.098 C  
HETATM   32  O   UNL     1      -6.973   6.522  74.439  1.00  0.00    -0.088 OA 
HETATM   33  C   UNL     1      -6.624   6.910  73.330  1.00  0.00    -0.067 C  
HETATM   34  O   UNL     1      -6.364   6.050  72.317  1.00  0.00    -0.047 OA 
ENDBRANCH  30  31
ENDBRANCH  28  30
ENDBRANCH  19  28
ENDBRANCH  17  19
ENDBRANCH   8  15
TORSDOF 7
ENDMDL
MODEL      169
REMARK 921   NORMALIZED FREE ENERGY PREDICTED BY IDOCK:   -4.18 KCAL/MOL
REMARK 922        TOTAL FREE ENERGY PREDICTED BY IDOCK:   -7.24 KCAL/MOL
REMARK 923 INTER-LIGAND FREE ENERGY PREDICTED BY IDOCK:   -5.86 KCAL/MOL
REMARK 924 INTRA-LIGAND FREE ENERGY PREDICTED BY IDOCK:   -1.38 KCAL/MOL
REMARK 927      BINDING AFFINITY PREDICTED BY RF-SCORE:    0.00 PKD
ROOT
HETATM    1  C   UNL     1      -9.334   9.791  70.353  1.00  0.00    -0.126 C  
HETATM    2  S   UNL     1     -10.680  10.648  69.540  1.00  0.00    -0.240 SA 
HETATM    3  CG2 UNL     1     -11.960  10.131  70.682  1.00  0.00    -0.332 C  
HETATM    4  CB  UNL     1     -11.909   8.693  71.189  1.00  0.00    -0.331 C  
HETATM    5  O   UNL     1      -8.152   6.770  69.799  1.00  0.00    -0.121 OA 
HETATM    6  CA  UNL     1     -10.793   7.904  71.117  1.00  0.00    -0.234 C  
HETATM    7  N   UNL     1      -9.660   8.384  70.513  1.00  0.00    -0.167 N  
HETATM    8  CA  UNL     1      -8.171   9.322  69.408  1.00  0.00    -0.114 C  
HETATM    9  C   UNL     1     -10.787   6.501  71.705  1.00  0.00    -0.240 C  
HETATM   10  C   UNL     1      -8.532   7.908  69.955  1.00  0.00    -0.134 C  
HETATM   11  OXT UNL     1     -11.497   6.159  72.639  1.00  0.00    -0.276 OA 
HETATM   12  O   UNL     1      -9.922   5.612  71.179  1.00  0.00    -0.176 OA 
ENDROOT
BRANCH   4  13
HETATM   13  CG1 UNL     1     -13.217   8.231  71.692  1.00  0.00    -0.349 C  
HETATM   14  CD1 UNL     1     -14.235   7.725  70.980  1.00  0.00    -0.144 C  
ENDBRANCH   4  13
BRANCH   8  15
HETATM   15  N   UNL     1      -8.352   9.449  67.923  1.00  0.00    -0.115 N  
HETATM   16  H   UNL     1      -8.852   8.720  67.414  1.00  0.00     0.000 HD 
HETATM   17  C   UNL     1      -7.851  10.536  67.240  1.00  0.00    -0.107 C  
HETATM   18  O   UNL     1      -7.158  11.391  67.773  1.00  0.00    -0.075 OA 
BRANCH  17  19
HETATM   19  C   UNL     1      -8.139  10.609  65.738  1.00  0.00    -0.158 C  
BRANCH  19  20
HETATM   20  C   UNL     1      -9.418  11.140  65.272  1.00  0.00    -0.226 A  
HETATM   21  N   UNL     1     -12.529  12.497  66.174  1.00  0.00    -0.412 NA 
HETATM   22  C   UNL     1      -9.787  11.281  63.947  1.00  0.00    -0.300 A  
HETATM   23  N   UNL     1     -10.388  11.565  66.182  1.00  0.00    -0.237 NA 
HETATM   24  C   UNL     1     -11.447  12.011  65.550  1.00  0.00    -0.313 A  
HETATM   25  S   UNL     1     -11.364  11.946  63.839  1.00  0.00    -0.443 SA 
HETATM   26  H2  UNL     1     -13.318  12.834  65.622  1.00  0.00     0.000 HD 
HETATM   27  H1  UNL     1     -12.579  12.534  67.192  1.00  0.00     0.000 HD 
ENDBRANCH  19  20
BRANCH  19  28
HETATM   28  N   UNL     1      -7.341  10.221  64.778  1.00  0.00    -0.237 NA 
HETATM   29  H   UNL     1      -6.882  10.885  64.156  1.00  0.00     0.000 HD 
BRANCH  28  30
HETATM   30  O   UNL     1      -7.157   8.842  64.658  1.00  0.00    -0.086 OA 
BRANCH  30  31
HETATM   31  C   UNL     1      -5.909   8.500  65.268  1.00  0.00    -0.048 C  
HETATM   32  O   UNL     1      -5.232   7.537  67.395  1.00  0.00    -0.023 OA 
HETATM   33  C   UNL     1      -5.984   7.508  66.428  1.00  0.00    -0.037 C  
HETATM   34  O   UNL     1      -6.912   6.535  66.267  1.00  0.00    -0.062 OA 
ENDBRANCH  30  31
ENDBRANCH  28  30
ENDBRANCH  19  28
ENDBRANCH  17  19
ENDBRANCH   8  15
TORSDOF 7
ENDMDL
MODEL      170
REMARK 921   NORMALIZED FREE ENERGY PREDICTED BY IDOCK:   -4.17 KCAL/MOL
REMARK 922        TOTAL FREE ENERGY PREDICTED BY IDOCK:   -7.24 KCAL/MOL
REMARK 923 INTER-LIGAND FREE ENERGY PREDICTED BY IDOCK:   -6.02 KCAL/MOL
REMARK 924 INTRA-LIGAND FREE ENERGY PREDICTED BY IDOCK:   -1.22 KCAL/MOL
REMARK 927      BINDING AFFINITY PREDICTED BY RF-SCORE:    0.00 PKD
ROOT
HETATM    1  C   UNL     1      -8.171  10.867  65.858  1.00  0.00    -0.133 C  
HETATM    2  S   UNL     1      -9.326   9.772  65.034  1.00  0.00    -0.260 SA 
HETATM    3  CG2 UNL     1     -10.210  11.052  64.146  1.00  0.00    -0.357 C  
HETATM    4  CB  UNL     1     -10.490  12.355  64.888  1.00  0.00    -0.327 C  
HETATM    5  O   UNL     1      -8.405  12.300  68.810  1.00  0.00    -0.047 OA 
HETATM    6  CA  UNL     1      -9.826  12.740  66.021  1.00  0.00    -0.255 C  
HETATM    7  N   UNL     1      -8.891  11.905  66.576  1.00  0.00    -0.195 N  
HETATM    8  CA  UNL     1      -7.665  10.373  67.260  1.00  0.00    -0.099 C  
HETATM    9  C   UNL     1     -10.104  14.085  66.673  1.00  0.00    -0.276 C  
HETATM   10  C   UNL     1      -8.279  11.716  67.759  1.00  0.00    -0.141 C  
HETATM   11  OXT UNL     1     -10.507  15.061  66.058  1.00  0.00    -0.288 OA 
HETATM   12  O   UNL     1      -9.854  14.199  67.992  1.00  0.00    -0.212 OA 
ENDROOT
BRANCH   4  13
HETATM   13  CG1 UNL     1     -11.607  13.111  64.288  1.00  0.00    -0.440 C  
HETATM   14  CD1 UNL     1     -12.670  12.619  63.633  1.00  0.00    -0.329 C  
ENDBRANCH   4  13
BRANCH   8  15
HETATM   15  N   UNL     1      -8.304   9.162  67.874  1.00  0.00    -0.116 N  
HETATM   16  H   UNL     1      -9.237   9.238  68.281  1.00  0.00     0.000 HD 
HETATM   17  C   UNL     1      -7.649   7.950  67.894  1.00  0.00    -0.109 C  
HETATM   18  O   UNL     1      -6.494   7.815  67.515  1.00  0.00    -0.052 OA 
BRANCH  17  19
HETATM   19  C   UNL     1      -8.406   6.758  68.485  1.00  0.00    -0.120 C  
BRANCH  19  20
HETATM   20  C   UNL     1      -8.867   5.686  67.605  1.00  0.00    -0.105 A  
HETATM   21  N   UNL     1      -9.476   2.246  67.250  1.00  0.00    -0.402 NA 
HETATM   22  C   UNL     1      -9.325   5.859  66.311  1.00  0.00    -0.152 A  
HETATM   23  N   UNL     1      -8.882   4.360  68.042  1.00  0.00    -0.105 NA 
HETATM   24  C   UNL     1      -9.339   3.571  67.101  1.00  0.00    -0.200 A  
HETATM   25  S   UNL     1      -9.772   4.348  65.635  1.00  0.00    -0.222 SA 
HETATM   26  H2  UNL     1      -9.845   1.690  66.478  1.00  0.00     0.000 HD 
HETATM   27  H1  UNL     1      -9.218   1.783  68.122  1.00  0.00     0.000 HD 
ENDBRANCH  19  20
BRANCH  19  28
HETATM   28  N   UNL     1      -8.714   6.584  69.743  1.00  0.00    -0.141 NA 
HETATM   29  H   UNL     1      -8.038   6.235  70.422  1.00  0.00     0.000 HD 
BRANCH  28  30
HETATM   30  O   UNL     1     -10.026   6.904  70.099  1.00  0.00    -0.177 OA 
BRANCH  30  31
HETATM   31  C   UNL     1     -10.207   6.588  71.483  1.00  0.00    -0.192 C  
HETATM   32  O   UNL     1     -11.395   4.866  72.720  1.00  0.00    -0.219 OA 
HETATM   33  C   UNL     1     -10.658   5.161  71.786  1.00  0.00    -0.168 C  
HETATM   34  O   UNL     1     -10.114   4.222  70.976  1.00  0.00    -0.178 OA 
ENDBRANCH  30  31
ENDBRANCH  28  30
ENDBRANCH  19  28
ENDBRANCH  17  19
ENDBRANCH   8  15
TORSDOF 7
ENDMDL
MODEL      171
REMARK 921   NORMALIZED FREE ENERGY PREDICTED BY IDOCK:   -4.17 KCAL/MOL
REMARK 922        TOTAL FREE ENERGY PREDICTED BY IDOCK:   -7.23 KCAL/MOL
REMARK 923 INTER-LIGAND FREE ENERGY PREDICTED BY IDOCK:   -6.35 KCAL/MOL
REMARK 924 INTRA-LIGAND FREE ENERGY PREDICTED BY IDOCK:   -0.88 KCAL/MOL
REMARK 927      BINDING AFFINITY PREDICTED BY RF-SCORE:    0.00 PKD
ROOT
HETATM    1  C   UNL     1     -10.401   5.581  66.761  1.00  0.00    -0.269 C  
HETATM    2  S   UNL     1      -8.864   5.741  65.853  1.00  0.00    -0.142 SA 
HETATM    3  CG2 UNL     1      -8.192   4.148  66.323  1.00  0.00    -0.105 C  
HETATM    4  CB  UNL     1      -8.410   3.692  67.763  1.00  0.00    -0.100 C  
HETATM    5  O   UNL     1     -11.120   6.546  69.823  1.00  0.00    -0.301 OA 
HETATM    6  CA  UNL     1      -9.356   4.229  68.593  1.00  0.00    -0.152 C  
HETATM    7  N   UNL     1     -10.129   5.273  68.155  1.00  0.00    -0.162 N  
HETATM    8  CA  UNL     1     -11.020   6.930  67.272  1.00  0.00    -0.336 C  
HETATM    9  C   UNL     1      -9.569   3.681  69.996  1.00  0.00    -0.173 C  
HETATM   10  C   UNL     1     -10.885   6.258  68.672  1.00  0.00    -0.333 C  
HETATM   11  OXT UNL     1      -9.325   2.526  70.311  1.00  0.00    -0.120 OA 
HETATM   12  O   UNL     1     -10.089   4.516  70.916  1.00  0.00    -0.207 OA 
ENDROOT
BRANCH   4  13
HETATM   13  CG1 UNL     1      -7.436   2.663  68.177  1.00  0.00    -0.052 C  
HETATM   14  CD1 UNL     1      -6.187   2.487  67.718  1.00  0.00    -0.025 C  
ENDBRANCH   4  13
BRANCH   8  15
HETATM   15  N   UNL     1     -10.216   8.190  67.138  1.00  0.00    -0.266 N  
HETATM   16  H   UNL     1      -9.379   8.193  66.554  1.00  0.00     0.000 HD 
HETATM   17  C   UNL     1     -10.593   9.343  67.792  1.00  0.00    -0.258 C  
HETATM   18  O   UNL     1     -11.524   9.381  68.584  1.00  0.00     0.204 OA 
BRANCH  17  19
HETATM   19  C   UNL     1      -9.747  10.594  67.545  1.00  0.00    -0.166 C  
BRANCH  19  20
HETATM   20  C   UNL     1      -8.478  10.761  68.251  1.00  0.00    -0.130 A  
HETATM   21  N   UNL     1      -6.539   9.864  71.038  1.00  0.00    -0.313 NA 
HETATM   22  C   UNL     1      -7.426  11.550  67.825  1.00  0.00    -0.101 A  
HETATM   23  N   UNL     1      -8.238  10.093  69.454  1.00  0.00    -0.154 NA 
HETATM   24  C   UNL     1      -7.041  10.377  69.906  1.00  0.00    -0.159 A  
HETATM   25  S   UNL     1      -6.128  11.460  68.941  1.00  0.00    -0.054 SA 
HETATM   26  H2  UNL     1      -5.596  10.122  71.331  1.00  0.00     0.000 HD 
HETATM   27  H1  UNL     1      -7.082   9.219  71.613  1.00  0.00     0.000 HD 
ENDBRANCH  19  20
BRANCH  19  28
HETATM   28  N   UNL     1     -10.046  11.585  66.747  1.00  0.00    -0.210 NA 
HETATM   29  H   UNL     1      -9.578  12.489  66.807  1.00  0.00     0.000 HD 
BRANCH  28  30
HETATM   30  O   UNL     1     -11.047  11.329  65.807  1.00  0.00    -0.206 OA 
BRANCH  30  31
HETATM   31  C   UNL     1     -10.919  12.280  64.744  1.00  0.00    -0.303 C  
HETATM   32  O   UNL     1     -12.373  13.100  62.978  1.00  0.00    -0.584 OA 
HETATM   33  C   UNL     1     -12.229  12.802  64.158  1.00  0.00    -0.429 C  
HETATM   34  O   UNL     1     -13.214  12.982  65.070  1.00  0.00    -0.739 OA 
ENDBRANCH  30  31
ENDBRANCH  28  30
ENDBRANCH  19  28
ENDBRANCH  17  19
ENDBRANCH   8  15
TORSDOF 7
ENDMDL
MODEL      172
REMARK 921   NORMALIZED FREE ENERGY PREDICTED BY IDOCK:   -4.14 KCAL/MOL
REMARK 922        TOTAL FREE ENERGY PREDICTED BY IDOCK:   -7.18 KCAL/MOL
REMARK 923 INTER-LIGAND FREE ENERGY PREDICTED BY IDOCK:   -5.94 KCAL/MOL
REMARK 924 INTRA-LIGAND FREE ENERGY PREDICTED BY IDOCK:   -1.25 KCAL/MOL
REMARK 927      BINDING AFFINITY PREDICTED BY RF-SCORE:    0.00 PKD
ROOT
HETATM    1  C   UNL     1      -9.104  11.561  68.955  1.00  0.00     0.027 C  
HETATM    2  S   UNL     1      -7.490  11.642  68.181  1.00  0.00    -0.111 SA 
HETATM    3  CG2 UNL     1      -7.543  13.392  67.799  1.00  0.00    -0.157 C  
HETATM    4  CB  UNL     1      -8.870  13.962  67.307  1.00  0.00    -0.227 C  
HETATM    5  O   UNL     1     -12.022  10.846  67.614  1.00  0.00    -0.512 OA 
HETATM    6  CA  UNL     1     -10.073  13.332  67.472  1.00  0.00    -0.223 C  
HETATM    7  N   UNL     1     -10.116  12.093  68.058  1.00  0.00    -0.198 N  
HETATM    8  CA  UNL     1      -9.840  10.180  68.823  1.00  0.00    -0.175 C  
HETATM    9  C   UNL     1     -11.370  13.987  67.021  1.00  0.00    -0.330 C  
HETATM   10  C   UNL     1     -10.943  11.034  68.127  1.00  0.00    -0.247 C  
HETATM   11  OXT UNL     1     -11.523  15.197  66.952  1.00  0.00    -0.314 OA 
HETATM   12  O   UNL     1     -12.402  13.176  66.719  1.00  0.00    -0.316 OA 
ENDROOT
BRANCH   4  13
HETATM   13  CG1 UNL     1      -8.695  15.228  66.570  1.00  0.00    -0.314 C  
HETATM   14  CD1 UNL     1      -7.768  16.175  66.778  1.00  0.00    -0.288 C  
ENDBRANCH   4  13
BRANCH   8  15
HETATM   15  N   UNL     1      -9.250   9.129  67.929  1.00  0.00    -0.134 N  
HETATM   16  H   UNL     1      -9.403   9.181  66.922  1.00  0.00     0.000 HD 
HETATM   17  C   UNL     1      -8.503   8.095  68.452  1.00  0.00    -0.126 C  
HETATM   18  O   UNL     1      -8.365   7.919  69.654  1.00  0.00    -0.127 OA 
BRANCH  17  19
HETATM   19  C   UNL     1      -7.889   7.106  67.457  1.00  0.00    -0.112 C  
BRANCH  19  20
HETATM   20  C   UNL     1      -8.639   5.914  67.067  1.00  0.00    -0.110 A  
HETATM   21  N   UNL     1     -11.415   4.637  65.335  1.00  0.00    -1.028 NA 
HETATM   22  C   UNL     1      -8.293   4.615  67.388  1.00  0.00    -0.104 A  
HETATM   23  N   UNL     1      -9.802   6.021  66.302  1.00  0.00    -0.105 NA 
HETATM   24  C   UNL     1     -10.305   4.836  66.060  1.00  0.00    -0.293 A  
HETATM   25  S   UNL     1      -9.437   3.518  66.731  1.00  0.00    -0.115 SA 
HETATM   26  H2  UNL     1     -11.749   3.686  65.179  1.00  0.00     0.000 HD 
HETATM   27  H1  UNL     1     -11.932   5.421  64.936  1.00  0.00     0.000 HD 
ENDBRANCH  19  20
BRANCH  19  28
HETATM   28  N   UNL     1      -6.711   7.201  66.899  1.00  0.00    -0.058 NA 
HETATM   29  H   UNL     1      -5.862   6.899  67.374  1.00  0.00     0.000 HD 
BRANCH  28  30
HETATM   30  O   UNL     1      -6.689   7.741  65.611  1.00  0.00    -0.045 OA 
BRANCH  30  31
HETATM   31  C   UNL     1      -5.894   6.890  64.780  1.00  0.00    -0.036 C  
HETATM   32  O   UNL     1      -6.143   4.655  63.857  1.00  0.00    -0.021 OA 
HETATM   33  C   UNL     1      -6.640   5.752  64.086  1.00  0.00    -0.037 C  
HETATM   34  O   UNL     1      -7.887   6.077  63.671  1.00  0.00    -0.102 OA 
ENDBRANCH  30  31
ENDBRANCH  28  30
ENDBRANCH  19  28
ENDBRANCH  17  19
ENDBRANCH   8  15
TORSDOF 7
ENDMDL
MODEL      173
REMARK 921   NORMALIZED FREE ENERGY PREDICTED BY IDOCK:   -4.13 KCAL/MOL
REMARK 922        TOTAL FREE ENERGY PREDICTED BY IDOCK:   -7.17 KCAL/MOL
REMARK 923 INTER-LIGAND FREE ENERGY PREDICTED BY IDOCK:   -5.32 KCAL/MOL
REMARK 924 INTRA-LIGAND FREE ENERGY PREDICTED BY IDOCK:   -1.85 KCAL/MOL
REMARK 927      BINDING AFFINITY PREDICTED BY RF-SCORE:    0.00 PKD
ROOT
HETATM    1  C   UNL     1      -8.334  11.748  68.575  1.00  0.00    -0.131 C  
HETATM    2  S   UNL     1      -7.220  12.287  67.279  1.00  0.00    -0.109 SA 
HETATM    3  CG2 UNL     1      -7.649  14.025  67.363  1.00  0.00    -0.148 C  
HETATM    4  CB  UNL     1      -9.119  14.376  67.570  1.00  0.00    -0.195 C  
HETATM    5  O   UNL     1     -11.430  10.661  68.342  1.00  0.00    -0.296 OA 
HETATM    6  CA  UNL     1     -10.051  13.490  68.036  1.00  0.00    -0.244 C  
HETATM    7  N   UNL     1      -9.687  12.192  68.290  1.00  0.00    -0.214 N  
HETATM    8  CA  UNL     1      -8.878  10.283  68.423  1.00  0.00    -0.129 C  
HETATM    9  C   UNL     1     -11.488  13.923  68.287  1.00  0.00    -0.311 C  
HETATM   10  C   UNL     1     -10.269  10.987  68.426  1.00  0.00    -0.185 C  
HETATM   11  OXT UNL     1     -11.806  15.069  68.565  1.00  0.00    -0.331 OA 
HETATM   12  O   UNL     1     -12.441  12.973  68.230  1.00  0.00     0.082 OA 
ENDROOT
BRANCH   4  13
HETATM   13  CG1 UNL     1      -9.431  15.752  67.137  1.00  0.00    -0.222 C  
HETATM   14  CD1 UNL     1      -9.727  16.173  65.897  1.00  0.00    -0.374 C  
ENDBRANCH   4  13
BRANCH   8  15
HETATM   15  N   UNL     1      -8.593   9.535  67.154  1.00  0.00    -0.131 N  
HETATM   16  H   UNL     1      -8.999   9.860  66.276  1.00  0.00     0.000 HD 
HETATM   17  C   UNL     1      -7.790   8.415  67.159  1.00  0.00    -0.100 C  
HETATM   18  O   UNL     1      -7.356   7.915  68.187  1.00  0.00    -0.094 OA 
BRANCH  17  19
HETATM   19  C   UNL     1      -7.506   7.755  65.807  1.00  0.00    -0.078 C  
BRANCH  19  20
HETATM   20  C   UNL     1      -8.102   6.457  65.496  1.00  0.00    -0.130 A  
HETATM   21  N   UNL     1     -11.011   4.491  65.515  1.00  0.00    -0.862 NA 
HETATM   22  C   UNL     1      -7.432   5.387  64.931  1.00  0.00    -0.070 A  
HETATM   23  N   UNL     1      -9.451   6.210  65.756  1.00  0.00     0.053 NA 
HETATM   24  C   UNL     1      -9.775   4.993  65.393  1.00  0.00    -0.017 A  
HETATM   25  S   UNL     1      -8.499   4.060  64.729  1.00  0.00    -0.109 SA 
HETATM   26  H2  UNL     1     -11.197   3.536  65.206  1.00  0.00     0.000 HD 
HETATM   27  H1  UNL     1     -11.770   5.046  65.910  1.00  0.00     0.000 HD 
ENDBRANCH  19  20
BRANCH  19  28
HETATM   28  N   UNL     1      -6.746   8.233  64.857  1.00  0.00    -0.066 NA 
HETATM   29  H   UNL     1      -6.200   7.628  64.244  1.00  0.00     0.000 HD 
BRANCH  28  30
HETATM   30  O   UNL     1      -6.727   9.624  64.734  1.00  0.00    -0.091 OA 
BRANCH  30  31
HETATM   31  C   UNL     1      -7.294   9.971  63.465  1.00  0.00    -0.138 C  
HETATM   32  O   UNL     1      -9.540  10.057  62.543  1.00  0.00    -0.272 OA 
HETATM   33  C   UNL     1      -8.783  10.311  63.472  1.00  0.00    -0.206 C  
HETATM   34  O   UNL     1      -9.193  10.990  64.569  1.00  0.00    -0.206 OA 
ENDBRANCH  30  31
ENDBRANCH  28  30
ENDBRANCH  19  28
ENDBRANCH  17  19
ENDBRANCH   8  15
TORSDOF 7
ENDMDL
MODEL      174
REMARK 921   NORMALIZED FREE ENERGY PREDICTED BY IDOCK:   -4.12 KCAL/MOL
REMARK 922        TOTAL FREE ENERGY PREDICTED BY IDOCK:   -7.16 KCAL/MOL
REMARK 923 INTER-LIGAND FREE ENERGY PREDICTED BY IDOCK:   -5.94 KCAL/MOL
REMARK 924 INTRA-LIGAND FREE ENERGY PREDICTED BY IDOCK:   -1.21 KCAL/MOL
REMARK 927      BINDING AFFINITY PREDICTED BY RF-SCORE:    0.00 PKD
ROOT
HETATM    1  C   UNL     1     -10.587  12.479  66.572  1.00  0.00    -0.242 C  
HETATM    2  S   UNL     1     -11.907  12.394  67.780  1.00  0.00    -0.206 SA 
HETATM    3  CG2 UNL     1     -11.965  14.150  68.132  1.00  0.00    -0.332 C  
HETATM    4  CB  UNL     1     -10.634  14.892  68.219  1.00  0.00    -0.240 C  
HETATM    5  O   UNL     1      -7.341  12.166  67.009  1.00  0.00    -0.136 OA 
HETATM    6  CA  UNL     1      -9.460  14.404  67.713  1.00  0.00    -0.211 C  
HETATM    7  N   UNL     1      -9.434  13.160  67.137  1.00  0.00    -0.230 N  
HETATM    8  CA  UNL     1      -9.677  11.203  66.483  1.00  0.00    -0.198 C  
HETATM    9  C   UNL     1      -8.181  15.225  67.770  1.00  0.00    -0.147 C  
HETATM   10  C   UNL     1      -8.536  12.206  66.831  1.00  0.00    -0.191 C  
HETATM   11  OXT UNL     1      -8.167  16.447  67.793  1.00  0.00    -0.152 OA 
HETATM   12  O   UNL     1      -7.013  14.555  67.758  1.00  0.00    -0.147 OA 
ENDROOT
BRANCH   4  13
HETATM   13  CG1 UNL     1     -10.746  16.153  68.977  1.00  0.00    -0.287 C  
HETATM   14  CD1 UNL     1     -10.922  16.301  70.300  1.00  0.00    -0.314 C  
ENDBRANCH   4  13
BRANCH   8  15
HETATM   15  N   UNL     1      -9.850  10.120  67.508  1.00  0.00    -0.172 N  
HETATM   16  H   UNL     1     -10.377  10.314  68.360  1.00  0.00     0.000 HD 
HETATM   17  C   UNL     1      -9.307   8.869  67.313  1.00  0.00    -0.140 C  
HETATM   18  O   UNL     1      -8.583   8.601  66.365  1.00  0.00    -0.110 OA 
BRANCH  17  19
HETATM   19  C   UNL     1      -9.589   7.811  68.384  1.00  0.00    -0.152 C  
BRANCH  19  20
HETATM   20  C   UNL     1      -9.029   6.469  68.240  1.00  0.00    -0.121 A  
HETATM   21  N   UNL     1      -7.173   3.893  69.741  1.00  0.00    -0.042 NA 
HETATM   22  C   UNL     1      -9.173   5.661  67.127  1.00  0.00    -0.114 A  
HETATM   23  N   UNL     1      -8.287   5.890  69.271  1.00  0.00    -0.112 NA 
HETATM   24  C   UNL     1      -7.893   4.687  68.935  1.00  0.00    -0.071 A  
HETATM   25  S   UNL     1      -8.367   4.167  67.371  1.00  0.00    -0.099 SA 
HETATM   26  H2  UNL     1      -6.904   2.963  69.419  1.00  0.00     0.000 HD 
HETATM   27  H1  UNL     1      -6.890   4.202  70.671  1.00  0.00     0.000 HD 
ENDBRANCH  19  20
BRANCH  19  28
HETATM   28  N   UNL     1     -10.317   7.973  69.458  1.00  0.00    -0.218 NA 
HETATM   29  H   UNL     1     -10.993   7.273  69.763  1.00  0.00     0.000 HD 
BRANCH  28  30
HETATM   30  O   UNL     1     -10.112   9.162  70.160  1.00  0.00    -0.181 OA 
BRANCH  30  31
HETATM   31  C   UNL     1     -11.335   9.515  70.814  1.00  0.00    -0.321 C  
HETATM   32  O   UNL     1     -12.896   8.376  72.288  1.00  0.00    -0.342 OA 
HETATM   33  C   UNL     1     -11.734   8.636  71.998  1.00  0.00    -0.369 C  
HETATM   34  O   UNL     1     -10.693   8.220  72.757  1.00  0.00    -0.343 OA 
ENDBRANCH  30  31
ENDBRANCH  28  30
ENDBRANCH  19  28
ENDBRANCH  17  19
ENDBRANCH   8  15
TORSDOF 7
ENDMDL
MODEL      175
REMARK 921   NORMALIZED FREE ENERGY PREDICTED BY IDOCK:   -4.11 KCAL/MOL
REMARK 922        TOTAL FREE ENERGY PREDICTED BY IDOCK:   -7.15 KCAL/MOL
REMARK 923 INTER-LIGAND FREE ENERGY PREDICTED BY IDOCK:   -5.99 KCAL/MOL
REMARK 924 INTRA-LIGAND FREE ENERGY PREDICTED BY IDOCK:   -1.16 KCAL/MOL
REMARK 927      BINDING AFFINITY PREDICTED BY RF-SCORE:    0.00 PKD
ROOT
HETATM    1  C   UNL     1      -9.863  12.258  67.271  1.00  0.00    -0.205 C  
HETATM    2  S   UNL     1     -11.396  11.707  68.017  1.00  0.00    -0.315 SA 
HETATM    3  CG2 UNL     1     -12.110  13.337  68.225  1.00  0.00    -0.211 C  
HETATM    4  CB  UNL     1     -11.177  14.459  68.672  1.00  0.00    -0.280 C  
HETATM    5  O   UNL     1      -6.990  12.975  68.706  1.00  0.00    -0.097 OA 
HETATM    6  CA  UNL     1      -9.814  14.392  68.582  1.00  0.00    -0.231 C  
HETATM    7  N   UNL     1      -9.219  13.245  68.121  1.00  0.00    -0.208 N  
HETATM    8  CA  UNL     1      -8.618  11.341  67.546  1.00  0.00    -0.134 C  
HETATM    9  C   UNL     1      -8.943  15.574  68.980  1.00  0.00    -0.237 C  
HETATM   10  C   UNL     1      -8.019  12.640  68.166  1.00  0.00    -0.158 C  
HETATM   11  OXT UNL     1      -9.321  16.735  68.931  1.00  0.00    -0.245 OA 
HETATM   12  O   UNL     1      -7.681  15.311  69.371  1.00  0.00    -0.200 OA 
ENDROOT
BRANCH   4  13
HETATM   13  CG1 UNL     1     -11.911  15.587  69.279  1.00  0.00    -0.372 C  
HETATM   14  CD1 UNL     1     -12.478  15.635  70.494  1.00  0.00    -0.440 C  
ENDBRANCH   4  13
BRANCH   8  15
HETATM   15  N   UNL     1      -8.752  10.218  68.533  1.00  0.00    -0.125 N  
HETATM   16  H   UNL     1      -8.699  10.418  69.532  1.00  0.00     0.000 HD 
HETATM   17  C   UNL     1      -8.944   8.922  68.107  1.00  0.00    -0.137 C  
HETATM   18  O   UNL     1      -8.915   8.601  66.927  1.00  0.00    -0.131 OA 
BRANCH  17  19
HETATM   19  C   UNL     1      -9.131   7.853  69.187  1.00  0.00    -0.145 C  
BRANCH  19  20
HETATM   20  C   UNL     1      -8.158   7.743  70.272  1.00  0.00    -0.113 A  
HETATM   21  N   UNL     1      -5.165   6.281  71.383  1.00  0.00    -0.021 NA 
HETATM   22  C   UNL     1      -8.223   8.424  71.473  1.00  0.00    -0.144 A  
HETATM   23  N   UNL     1      -7.046   6.908  70.150  1.00  0.00    -0.069 NA 
HETATM   24  C   UNL     1      -6.305   6.969  71.229  1.00  0.00    -0.041 A  
HETATM   25  S   UNL     1      -6.883   8.013  72.461  1.00  0.00    -0.086 SA 
HETATM   26  H2  UNL     1      -4.632   6.379  72.247  1.00  0.00     0.000 HD 
HETATM   27  H1  UNL     1      -4.821   5.660  70.651  1.00  0.00     0.000 HD 
ENDBRANCH  19  20
BRANCH  19  28
HETATM   28  N   UNL     1     -10.100   6.978  69.249  1.00  0.00    -0.169 NA 
HETATM   29  H   UNL     1     -10.005   6.038  68.866  1.00  0.00     0.000 HD 
BRANCH  28  30
HETATM   30  O   UNL     1     -11.273   7.410  69.872  1.00  0.00    -0.228 OA 
BRANCH  30  31
HETATM   31  C   UNL     1     -11.696   6.396  70.789  1.00  0.00    -0.312 C  
HETATM   32  O   UNL     1     -11.163   5.815  73.088  1.00  0.00    -0.265 OA 
HETATM   33  C   UNL     1     -11.435   6.683  72.266  1.00  0.00    -0.283 C  
HETATM   34  O   UNL     1     -11.600   7.980  72.618  1.00  0.00    -0.388 OA 
ENDBRANCH  30  31
ENDBRANCH  28  30
ENDBRANCH  19  28
ENDBRANCH  17  19
ENDBRANCH   8  15
TORSDOF 7
ENDMDL
MODEL      176
REMARK 921   NORMALIZED FREE ENERGY PREDICTED BY IDOCK:   -4.10 KCAL/MOL
REMARK 922        TOTAL FREE ENERGY PREDICTED BY IDOCK:   -7.13 KCAL/MOL
REMARK 923 INTER-LIGAND FREE ENERGY PREDICTED BY IDOCK:   -5.53 KCAL/MOL
REMARK 924 INTRA-LIGAND FREE ENERGY PREDICTED BY IDOCK:   -1.60 KCAL/MOL
REMARK 927      BINDING AFFINITY PREDICTED BY RF-SCORE:    0.00 PKD
ROOT
HETATM    1  C   UNL     1     -10.624   7.969  67.973  1.00  0.00    -0.128 C  
HETATM    2  S   UNL     1      -9.608   8.939  69.087  1.00  0.00    -0.164 SA 
HETATM    3  CG2 UNL     1      -8.510   9.592  67.831  1.00  0.00    -0.122 C  
HETATM    4  CB  UNL     1      -8.073   8.644  66.718  1.00  0.00    -0.101 C  
HETATM    5  O   UNL     1     -10.306   4.820  67.075  1.00  0.00    -0.195 OA 
HETATM    6  CA  UNL     1      -8.721   7.476  66.421  1.00  0.00    -0.145 C  
HETATM    7  N   UNL     1      -9.791   7.080  67.182  1.00  0.00    -0.160 N  
HETATM    8  CA  UNL     1     -11.255   6.675  68.599  1.00  0.00    -0.157 C  
HETATM    9  C   UNL     1      -8.277   6.610  65.253  1.00  0.00    -0.133 C  
HETATM   10  C   UNL     1     -10.472   5.954  67.460  1.00  0.00    -0.243 C  
HETATM   11  OXT UNL     1      -7.710   7.052  64.264  1.00  0.00    -0.106 OA 
HETATM   12  O   UNL     1      -8.563   5.295  65.311  1.00  0.00    -0.142 OA 
ENDROOT
BRANCH   4  13
HETATM   13  CG1 UNL     1      -6.834   9.094  66.055  1.00  0.00    -0.084 C  
HETATM   14  CD1 UNL     1      -5.587   9.074  66.550  1.00  0.00    -0.049 C  
ENDBRANCH   4  13
BRANCH   8  15
HETATM   15  N   UNL     1     -10.825   6.254  69.974  1.00  0.00    -0.290 N  
HETATM   16  H   UNL     1      -9.947   5.748  70.094  1.00  0.00     0.000 HD 
HETATM   17  C   UNL     1     -11.601   6.541  71.076  1.00  0.00    -0.348 C  
HETATM   18  O   UNL     1     -12.709   7.054  70.992  1.00  0.00    -0.367 OA 
BRANCH  17  19
HETATM   19  C   UNL     1     -11.051   6.127  72.444  1.00  0.00    -0.275 C  
BRANCH  19  20
HETATM   20  C   UNL     1     -10.756   4.720  72.708  1.00  0.00    -0.217 A  
HETATM   21  N   UNL     1      -9.400   1.728  71.466  1.00  0.00    -0.095 NA 
HETATM   22  C   UNL     1     -11.021   4.060  73.894  1.00  0.00    -0.211 A  
HETATM   23  N   UNL     1     -10.153   3.922  71.735  1.00  0.00    -0.156 NA 
HETATM   24  C   UNL     1      -9.973   2.704  72.185  1.00  0.00    -0.166 A  
HETATM   25  S   UNL     1     -10.515   2.425  73.787  1.00  0.00    -0.152 SA 
HETATM   26  H2  UNL     1      -9.284   0.803  71.880  1.00  0.00     0.000 HD 
HETATM   27  H1  UNL     1      -9.078   1.894  70.513  1.00  0.00     0.000 HD 
ENDBRANCH  19  20
BRANCH  19  28
HETATM   28  N   UNL     1     -10.815   6.920  73.455  1.00  0.00    -0.475 NA 
HETATM   29  H   UNL     1     -11.133   6.703  74.399  1.00  0.00     0.000 HD 
BRANCH  28  30
HETATM   30  O   UNL     1     -10.099   8.084  73.162  1.00  0.00    -0.307 OA 
BRANCH  30  31
HETATM   31  C   UNL     1      -8.783   7.952  73.708  1.00  0.00    -0.271 C  
HETATM   32  O   UNL     1      -6.993   6.317  73.526  1.00  0.00    -0.078 OA 
HETATM   33  C   UNL     1      -7.848   6.996  72.969  1.00  0.00    -0.094 C  
HETATM   34  O   UNL     1      -7.990   7.011  71.622  1.00  0.00    -0.098 OA 
ENDBRANCH  30  31
ENDBRANCH  28  30
ENDBRANCH  19  28
ENDBRANCH  17  19
ENDBRANCH   8  15
TORSDOF 7
ENDMDL
MODEL      177
REMARK 921   NORMALIZED FREE ENERGY PREDICTED BY IDOCK:   -4.10 KCAL/MOL
REMARK 922        TOTAL FREE ENERGY PREDICTED BY IDOCK:   -7.12 KCAL/MOL
REMARK 923 INTER-LIGAND FREE ENERGY PREDICTED BY IDOCK:   -6.18 KCAL/MOL
REMARK 924 INTRA-LIGAND FREE ENERGY PREDICTED BY IDOCK:   -0.94 KCAL/MOL
REMARK 927      BINDING AFFINITY PREDICTED BY RF-SCORE:    0.00 PKD
ROOT
HETATM    1  C   UNL     1      -9.568  19.219  67.641  1.00  0.00    -0.315 C  
HETATM    2  S   UNL     1      -9.725  18.473  69.263  1.00  0.00     0.092 SA 
HETATM    3  CG2 UNL     1      -8.613  19.598  70.104  1.00  0.00     1.223 C  
HETATM    4  CB  UNL     1      -7.348  20.019  69.363  1.00  0.00    -0.065 C  
HETATM    5  O   UNL     1      -7.492  18.476  65.199  1.00  0.00    -0.139 OA 
HETATM    6  CA  UNL     1      -7.183  19.889  68.011  1.00  0.00    -0.292 C  
HETATM    7  N   UNL     1      -8.168  19.300  67.260  1.00  0.00    -0.273 N  
HETATM    8  CA  UNL     1      -9.748  18.235  66.432  1.00  0.00    -0.334 C  
HETATM    9  C   UNL     1      -5.924  20.393  67.323  1.00  0.00    -0.187 C  
HETATM   10  C   UNL     1      -8.307  18.703  66.063  1.00  0.00    -0.045 C  
HETATM   11  OXT UNL     1      -5.245  21.314  67.752  1.00  0.00    -0.259 OA 
HETATM   12  O   UNL     1      -5.574  19.807  66.162  1.00  0.00    -0.167 OA 
ENDROOT
BRANCH   4  13
HETATM   13  CG1 UNL     1      -6.300  20.510  70.279  1.00  0.00     0.008 C  
HETATM   14  CD1 UNL     1      -5.477  19.779  71.047  1.00  0.00    -0.303 C  
ENDBRANCH   4  13
BRANCH   8  15
HETATM   15  N   UNL     1      -9.842  16.763  66.706  1.00  0.00    -0.264 N  
HETATM   16  H   UNL     1      -9.520  16.397  67.602  1.00  0.00     0.000 HD 
HETATM   17  C   UNL     1     -10.359  15.899  65.764  1.00  0.00    -0.376 C  
HETATM   18  O   UNL     1     -10.668  16.257  64.636  1.00  0.00    -0.670 OA 
BRANCH  17  19
HETATM   19  C   UNL     1     -10.473  14.424  66.158  1.00  0.00    -0.291 C  
BRANCH  19  20
HETATM   20  C   UNL     1     -11.063  13.470  65.223  1.00  0.00    -0.297 A  
HETATM   21  N   UNL     1     -10.476  10.909  62.891  1.00  0.00    -0.783 NA 
HETATM   22  C   UNL     1     -12.418  13.310  64.995  1.00  0.00    -0.443 A  
HETATM   23  N   UNL     1     -10.255  12.614  64.471  1.00  0.00    -0.322 NA 
HETATM   24  C   UNL     1     -10.988  11.840  63.709  1.00  0.00    -0.429 A  
HETATM   25  S   UNL     1     -12.681  12.082  63.827  1.00  0.00    -0.286 SA 
HETATM   26  H2  UNL     1     -11.105  10.335  62.329  1.00  0.00     0.000 HD 
HETATM   27  H1  UNL     1      -9.469  10.765  62.821  1.00  0.00     0.000 HD 
ENDBRANCH  19  20
BRANCH  19  28
HETATM   28  N   UNL     1     -10.098  13.896  67.293  1.00  0.00    -0.240 NA 
HETATM   29  H   UNL     1     -10.670  13.959  68.135  1.00  0.00     0.000 HD 
BRANCH  28  30
HETATM   30  O   UNL     1      -8.866  13.238  67.282  1.00  0.00    -0.197 OA 
BRANCH  30  31
HETATM   31  C   UNL     1      -7.844  14.193  67.587  1.00  0.00    -0.179 C  
HETATM   32  O   UNL     1      -6.686  14.899  69.603  1.00  0.00    -0.147 OA 
HETATM   33  C   UNL     1      -7.109  13.982  68.909  1.00  0.00    -0.111 C  
HETATM   34  O   UNL     1      -6.892  12.683  69.223  1.00  0.00    -0.088 OA 
ENDBRANCH  30  31
ENDBRANCH  28  30
ENDBRANCH  19  28
ENDBRANCH  17  19
ENDBRANCH   8  15
TORSDOF 7
ENDMDL
MODEL      178
REMARK 921   NORMALIZED FREE ENERGY PREDICTED BY IDOCK:   -4.06 KCAL/MOL
REMARK 922        TOTAL FREE ENERGY PREDICTED BY IDOCK:   -7.07 KCAL/MOL
REMARK 923 INTER-LIGAND FREE ENERGY PREDICTED BY IDOCK:   -5.72 KCAL/MOL
REMARK 924 INTRA-LIGAND FREE ENERGY PREDICTED BY IDOCK:   -1.35 KCAL/MOL
REMARK 927      BINDING AFFINITY PREDICTED BY RF-SCORE:    0.00 PKD
ROOT
HETATM    1  C   UNL     1      -9.763   9.680  70.480  1.00  0.00    -0.217 C  
HETATM    2  S   UNL     1     -10.978   8.625  69.692  1.00  0.00    -0.013 SA 
HETATM    3  CG2 UNL     1     -11.099   7.434  71.027  1.00  0.00    -0.258 C  
HETATM    4  CB  UNL     1      -9.806   7.042  71.735  1.00  0.00    -0.169 C  
HETATM    5  O   UNL     1      -6.481   9.596  70.266  1.00  0.00    -0.062 OA 
HETATM    6  CA  UNL     1      -8.652   7.774  71.667  1.00  0.00    -0.118 C  
HETATM    7  N   UNL     1      -8.606   8.898  70.882  1.00  0.00    -0.182 N  
HETATM    8  CA  UNL     1      -8.799  10.437  69.500  1.00  0.00    -0.092 C  
HETATM    9  C   UNL     1      -7.417   7.365  72.454  1.00  0.00    -0.080 C  
HETATM   10  C   UNL     1      -7.687   9.680  70.288  1.00  0.00    -0.172 C  
HETATM   11  OXT UNL     1      -7.463   6.732  73.498  1.00  0.00    -0.083 OA 
HETATM   12  O   UNL     1      -6.220   7.762  71.981  1.00  0.00    -0.039 OA 
ENDROOT
BRANCH   4  13
HETATM   13  CG1 UNL     1      -9.923   5.749  72.436  1.00  0.00    -0.194 C  
HETATM   14  CD1 UNL     1     -10.822   5.402  73.370  1.00  0.00    -0.347 C  
ENDBRANCH   4  13
BRANCH   8  15
HETATM   15  N   UNL     1      -8.834  10.090  68.040  1.00  0.00    -0.125 N  
HETATM   16  H   UNL     1      -8.746   9.115  67.753  1.00  0.00     0.000 HD 
HETATM   17  C   UNL     1      -8.984  11.070  67.084  1.00  0.00    -0.143 C  
HETATM   18  O   UNL     1      -8.995  12.263  67.353  1.00  0.00    -0.169 OA 
BRANCH  17  19
HETATM   19  C   UNL     1      -9.072  10.614  65.625  1.00  0.00    -0.183 C  
BRANCH  19  20
HETATM   20  C   UNL     1      -8.150   9.594  65.130  1.00  0.00    -0.124 A  
HETATM   21  N   UNL     1      -5.154   7.843  65.671  1.00  0.00    -0.025 NA 
HETATM   22  C   UNL     1      -8.330   8.848  63.979  1.00  0.00    -0.164 A  
HETATM   23  N   UNL     1      -6.980   9.289  65.828  1.00  0.00    -0.084 NA 
HETATM   24  C   UNL     1      -6.311   8.344  65.215  1.00  0.00    -0.052 A  
HETATM   25  S   UNL     1      -7.021   7.761  63.767  1.00  0.00    -0.066 SA 
HETATM   26  H2  UNL     1      -4.687   7.103  65.147  1.00  0.00     0.000 HD 
HETATM   27  H1  UNL     1      -4.732   8.190  66.532  1.00  0.00     0.000 HD 
ENDBRANCH  19  20
BRANCH  19  28
HETATM   28  N   UNL     1      -9.906  11.061  64.723  1.00  0.00    -0.254 NA 
HETATM   29  H   UNL     1      -9.687  11.044  63.728  1.00  0.00     0.000 HD 
BRANCH  28  30
HETATM   30  O   UNL     1     -11.116  11.563  65.208  1.00  0.00    -0.271 OA 
BRANCH  30  31
HETATM   31  C   UNL     1     -11.738  12.322  64.166  1.00  0.00    -0.402 C  
HETATM   32  O   UNL     1     -12.559  14.599  63.942  1.00  0.00    -0.834 OA 
HETATM   33  C   UNL     1     -11.673  13.841  64.319  1.00  0.00    -0.395 C  
HETATM   34  O   UNL     1     -10.511  14.297  64.844  1.00  0.00    -0.407 OA 
ENDBRANCH  30  31
ENDBRANCH  28  30
ENDBRANCH  19  28
ENDBRANCH  17  19
ENDBRANCH   8  15
TORSDOF 7
ENDMDL
MODEL      179
REMARK 921   NORMALIZED FREE ENERGY PREDICTED BY IDOCK:   -4.05 KCAL/MOL
REMARK 922        TOTAL FREE ENERGY PREDICTED BY IDOCK:   -7.06 KCAL/MOL
REMARK 923 INTER-LIGAND FREE ENERGY PREDICTED BY IDOCK:   -5.86 KCAL/MOL
REMARK 924 INTRA-LIGAND FREE ENERGY PREDICTED BY IDOCK:   -1.20 KCAL/MOL
REMARK 927      BINDING AFFINITY PREDICTED BY RF-SCORE:    0.00 PKD
ROOT
HETATM    1  C   UNL     1      -8.887  10.213  68.213  1.00  0.00    -0.124 C  
HETATM    2  S   UNL     1      -8.932   9.119  66.795  1.00  0.00    -0.132 SA 
HETATM    3  CG2 UNL     1      -9.315  10.383  65.584  1.00  0.00    -0.198 C  
HETATM    4  CB  UNL     1     -10.310  11.466  65.991  1.00  0.00    -0.297 C  
HETATM    5  O   UNL     1     -11.301  11.020  70.299  1.00  0.00    -0.284 OA 
HETATM    6  CA  UNL     1     -10.649  11.735  67.289  1.00  0.00    -0.224 C  
HETATM    7  N   UNL     1     -10.123  10.973  68.300  1.00  0.00    -0.171 N  
HETATM    8  CA  UNL     1      -9.300   9.557  69.578  1.00  0.00    -0.190 C  
HETATM    9  C   UNL     1     -11.596  12.875  67.631  1.00  0.00    -0.355 C  
HETATM   10  C   UNL     1     -10.392  10.668  69.582  1.00  0.00    -0.145 C  
HETATM   11  OXT UNL     1     -11.729  13.871  66.935  1.00  0.00    -0.355 OA 
HETATM   12  O   UNL     1     -12.288  12.782  68.782  1.00  0.00    -0.059 OA 
ENDROOT
BRANCH   4  13
HETATM   13  CG1 UNL     1     -10.920  12.131  64.823  1.00  0.00    -0.356 C  
HETATM   14  CD1 UNL     1     -10.290  12.708  63.788  1.00  0.00    -0.360 C  
ENDBRANCH   4  13
BRANCH   8  15
HETATM   15  N   UNL     1      -9.866   8.167  69.569  1.00  0.00    -0.178 N  
HETATM   16  H   UNL     1     -10.866   8.032  69.420  1.00  0.00     0.000 HD 
HETATM   17  C   UNL     1      -9.053   7.071  69.761  1.00  0.00    -0.144 C  
HETATM   18  O   UNL     1      -7.867   7.167  70.045  1.00  0.00    -0.108 OA 
BRANCH  17  19
HETATM   19  C   UNL     1      -9.710   5.691  69.673  1.00  0.00    -0.169 C  
BRANCH  19  20
HETATM   20  C   UNL     1      -9.801   5.015  68.380  1.00  0.00    -0.147 A  
HETATM   21  N   UNL     1      -9.193   2.069  66.567  1.00  0.00    -0.326 NA 
HETATM   22  C   UNL     1     -10.332   5.565  67.229  1.00  0.00    -0.236 A  
HETATM   23  N   UNL     1      -9.341   3.705  68.226  1.00  0.00    -0.168 NA 
HETATM   24  C   UNL     1      -9.528   3.294  66.996  1.00  0.00    -0.128 A  
HETATM   25  S   UNL     1     -10.251   4.436  65.941  1.00  0.00    -0.183 SA 
HETATM   26  H2  UNL     1      -9.372   1.811  65.597  1.00  0.00     0.000 HD 
HETATM   27  H1  UNL     1      -8.762   1.390  67.195  1.00  0.00     0.000 HD 
ENDBRANCH  19  20
BRANCH  19  28
HETATM   28  N   UNL     1     -10.236   5.020  70.663  1.00  0.00    -0.245 NA 
HETATM   29  H   UNL     1     -10.703   4.125  70.523  1.00  0.00     0.000 HD 
BRANCH  28  30
HETATM   30  O   UNL     1     -10.119   5.606  71.926  1.00  0.00    -0.179 OA 
BRANCH  30  31
HETATM   31  C   UNL     1      -9.214   4.816  72.706  1.00  0.00    -0.129 C  
HETATM   32  O   UNL     1      -6.854   4.946  73.268  1.00  0.00    -0.065 OA 
HETATM   33  C   UNL     1      -7.931   5.517  73.148  1.00  0.00    -0.104 C  
HETATM   34  O   UNL     1      -8.094   6.822  73.472  1.00  0.00    -0.105 OA 
ENDBRANCH  30  31
ENDBRANCH  28  30
ENDBRANCH  19  28
ENDBRANCH  17  19
ENDBRANCH   8  15
TORSDOF 7
ENDMDL
MODEL      180
REMARK 921   NORMALIZED FREE ENERGY PREDICTED BY IDOCK:   -4.03 KCAL/MOL
REMARK 922        TOTAL FREE ENERGY PREDICTED BY IDOCK:   -7.03 KCAL/MOL
REMARK 923 INTER-LIGAND FREE ENERGY PREDICTED BY IDOCK:   -5.83 KCAL/MOL
REMARK 924 INTRA-LIGAND FREE ENERGY PREDICTED BY IDOCK:   -1.19 KCAL/MOL
REMARK 927      BINDING AFFINITY PREDICTED BY RF-SCORE:    0.00 PKD
ROOT
HETATM    1  C   UNL     1      -9.045  14.059  68.479  1.00  0.00    -0.163 C  
HETATM    2  S   UNL     1      -7.271  13.927  68.266  1.00  0.00    -0.129 SA 
HETATM    3  CG2 UNL     1      -7.009  15.623  67.749  1.00  0.00    -0.158 C  
HETATM    4  CB  UNL     1      -8.043  16.237  66.810  1.00  0.00    -0.299 C  
HETATM    5  O   UNL     1     -11.453  13.431  66.326  1.00  0.00    -0.307 OA 
HETATM    6  CA  UNL     1      -9.298  15.725  66.626  1.00  0.00    -0.258 C  
HETATM    7  N   UNL     1      -9.659  14.566  67.263  1.00  0.00    -0.221 N  
HETATM    8  CA  UNL     1      -9.849  12.734  68.225  1.00  0.00    -0.224 C  
HETATM    9  C   UNL     1     -10.306  16.426  65.728  1.00  0.00    -0.369 C  
HETATM   10  C   UNL     1     -10.576  13.589  67.144  1.00  0.00    -0.264 C  
HETATM   11  OXT UNL     1     -10.297  17.630  65.517  1.00  0.00    -0.627 OA 
HETATM   12  O   UNL     1     -11.274  15.671  65.174  1.00  0.00    -0.340 OA 
ENDROOT
BRANCH   4  13
HETATM   13  CG1 UNL     1      -7.507  17.397  66.071  1.00  0.00    -0.255 C  
HETATM   14  CD1 UNL     1      -7.357  18.654  66.516  1.00  0.00    -0.263 C  
ENDBRANCH   4  13
BRANCH   8  15
HETATM   15  N   UNL     1      -9.127  11.548  67.658  1.00  0.00    -0.164 N  
HETATM   16  H   UNL     1      -8.430  11.686  66.925  1.00  0.00     0.000 HD 
HETATM   17  C   UNL     1      -9.391  10.274  68.114  1.00  0.00    -0.139 C  
HETATM   18  O   UNL     1     -10.281  10.029  68.916  1.00  0.00    -0.175 OA 
BRANCH  17  19
HETATM   19  C   UNL     1      -8.560   9.134  67.520  1.00  0.00    -0.116 C  
BRANCH  19  20
HETATM   20  C   UNL     1      -8.319   7.928  68.309  1.00  0.00    -0.124 A  
HETATM   21  N   UNL     1      -9.234   4.590  68.909  1.00  0.00    -0.124 NA 
HETATM   22  C   UNL     1      -7.358   7.799  69.295  1.00  0.00    -0.087 A  
HETATM   23  N   UNL     1      -9.077   6.774  68.098  1.00  0.00    -0.125 NA 
HETATM   24  C   UNL     1      -8.689   5.815  68.903  1.00  0.00    -0.111 A  
HETATM   25  S   UNL     1      -7.408   6.222  69.967  1.00  0.00    -0.084 SA 
HETATM   26  H2  UNL     1      -8.879   3.887  69.558  1.00  0.00     0.000 HD 
HETATM   27  H1  UNL     1      -9.996   4.348  68.277  1.00  0.00     0.000 HD 
ENDBRANCH  19  20
BRANCH  19  28
HETATM   28  N   UNL     1      -8.003   9.117  66.338  1.00  0.00    -0.099 NA 
HETATM   29  H   UNL     1      -7.042   8.807  66.197  1.00  0.00     0.000 HD 
BRANCH  28  30
HETATM   30  O   UNL     1      -8.805   9.552  65.280  1.00  0.00    -0.159 OA 
BRANCH  30  31
HETATM   31  C   UNL     1      -8.032  10.439  64.465  1.00  0.00    -0.093 C  
HETATM   32  O   UNL     1      -6.064  10.217  63.057  1.00  0.00    -0.131 OA 
HETATM   33  C   UNL     1      -7.151   9.775  63.408  1.00  0.00    -0.117 C  
HETATM   34  O   UNL     1      -7.705   8.684  62.828  1.00  0.00    -0.108 OA 
ENDBRANCH  30  31
ENDBRANCH  28  30
ENDBRANCH  19  28
ENDBRANCH  17  19
ENDBRANCH   8  15
TORSDOF 7
ENDMDL
MODEL      181
REMARK 921   NORMALIZED FREE ENERGY PREDICTED BY IDOCK:   -4.01 KCAL/MOL
REMARK 922        TOTAL FREE ENERGY PREDICTED BY IDOCK:   -7.00 KCAL/MOL
REMARK 923 INTER-LIGAND FREE ENERGY PREDICTED BY IDOCK:   -5.66 KCAL/MOL
REMARK 924 INTRA-LIGAND FREE ENERGY PREDICTED BY IDOCK:   -1.34 KCAL/MOL
REMARK 927      BINDING AFFINITY PREDICTED BY RF-SCORE:    0.00 PKD
ROOT
HETATM    1  C   UNL     1     -10.108   6.927  66.912  1.00  0.00    -0.218 C  
HETATM    2  S   UNL     1      -8.551   6.826  66.029  1.00  0.00    -0.141 SA 
HETATM    3  CG2 UNL     1      -7.982   5.316  66.808  1.00  0.00    -0.104 C  
HETATM    4  CB  UNL     1      -8.248   5.153  68.302  1.00  0.00    -0.093 C  
HETATM    5  O   UNL     1     -10.812   8.494  69.718  1.00  0.00    -0.229 OA 
HETATM    6  CA  UNL     1      -9.172   5.890  68.991  1.00  0.00    -0.124 C  
HETATM    7  N   UNL     1      -9.875   6.874  68.345  1.00  0.00    -0.140 N  
HETATM    8  CA  UNL     1     -10.652   8.381  67.144  1.00  0.00    -0.256 C  
HETATM    9  C   UNL     1      -9.438   5.631  70.466  1.00  0.00    -0.163 C  
HETATM   10  C   UNL     1     -10.578   7.980  68.648  1.00  0.00    -0.109 C  
HETATM   11  OXT UNL     1      -9.268   4.544  71.000  1.00  0.00    -0.126 OA 
HETATM   12  O   UNL     1      -9.920   6.653  71.199  1.00  0.00    -0.182 OA 
ENDROOT
BRANCH   4  13
HETATM   13  CG1 UNL     1      -7.343   4.169  68.926  1.00  0.00    -0.055 C  
HETATM   14  CD1 UNL     1      -6.173   4.405  69.538  1.00  0.00    -0.027 C  
ENDBRANCH   4  13
BRANCH   8  15
HETATM   15  N   UNL     1      -9.772   9.546  66.795  1.00  0.00    -0.183 N  
HETATM   16  H   UNL     1      -8.778   9.392  66.624  1.00  0.00     0.000 HD 
HETATM   17  C   UNL     1     -10.290  10.820  66.702  1.00  0.00    -0.241 C  
HETATM   18  O   UNL     1     -11.448  11.088  66.991  1.00  0.00    -0.415 OA 
BRANCH  17  19
HETATM   19  C   UNL     1      -9.328  11.934  66.279  1.00  0.00    -0.227 C  
BRANCH  19  20
HETATM   20  C   UNL     1      -9.823  13.302  66.141  1.00  0.00    -0.280 A  
HETATM   21  N   UNL     1     -10.545  16.333  67.761  1.00  0.00    -0.306 NA 
HETATM   22  C   UNL     1     -10.229  13.886  64.955  1.00  0.00    -0.358 A  
HETATM   23  N   UNL     1      -9.913  14.144  67.251  1.00  0.00    -0.246 NA 
HETATM   24  C   UNL     1     -10.370  15.321  66.899  1.00  0.00    -0.278 A  
HETATM   25  S   UNL     1     -10.731  15.502  65.233  1.00  0.00    -0.437 SA 
HETATM   26  H2  UNL     1     -10.899  17.227  67.419  1.00  0.00     0.000 HD 
HETATM   27  H1  UNL     1     -10.331  16.225  68.752  1.00  0.00     0.000 HD 
ENDBRANCH  19  20
BRANCH  19  28
HETATM   28  N   UNL     1      -8.059  11.796  66.002  1.00  0.00    -0.360 NA 
HETATM   29  H   UNL     1      -7.347  12.400  66.412  1.00  0.00     0.000 HD 
BRANCH  28  30
HETATM   30  O   UNL     1      -7.738  10.771  65.110  1.00  0.00    -0.048 OA 
BRANCH  30  31
HETATM   31  C   UNL     1      -6.415  10.312  65.410  1.00  0.00    -0.123 C  
HETATM   32  O   UNL     1      -5.150   8.284  64.968  1.00  0.00    -0.034 OA 
HETATM   33  C   UNL     1      -5.900   9.158  64.551  1.00  0.00    -0.069 C  
HETATM   34  O   UNL     1      -6.285   9.216  63.254  1.00  0.00    -0.089 OA 
ENDBRANCH  30  31
ENDBRANCH  28  30
ENDBRANCH  19  28
ENDBRANCH  17  19
ENDBRANCH   8  15
TORSDOF 7
ENDMDL
MODEL      182
REMARK 921   NORMALIZED FREE ENERGY PREDICTED BY IDOCK:   -3.99 KCAL/MOL
REMARK 922        TOTAL FREE ENERGY PREDICTED BY IDOCK:   -6.97 KCAL/MOL
REMARK 923 INTER-LIGAND FREE ENERGY PREDICTED BY IDOCK:   -5.40 KCAL/MOL
REMARK 924 INTRA-LIGAND FREE ENERGY PREDICTED BY IDOCK:   -1.57 KCAL/MOL
REMARK 927      BINDING AFFINITY PREDICTED BY RF-SCORE:    0.00 PKD
ROOT
HETATM    1  C   UNL     1      -8.968  10.302  68.867  1.00  0.00    -0.164 C  
HETATM    2  S   UNL     1      -9.176   9.753  67.174  1.00  0.00    -0.139 SA 
HETATM    3  CG2 UNL     1      -9.940  11.258  66.573  1.00  0.00    -0.212 C  
HETATM    4  CB  UNL     1     -10.949  11.946  67.487  1.00  0.00    -0.299 C  
HETATM    5  O   UNL     1     -10.982   9.921  71.441  1.00  0.00    -0.287 OA 
HETATM    6  CA  UNL     1     -11.044  11.703  68.830  1.00  0.00    -0.230 C  
HETATM    7  N   UNL     1     -10.239  10.754  69.407  1.00  0.00    -0.198 N  
HETATM    8  CA  UNL     1      -9.015   9.165  69.950  1.00  0.00    -0.174 C  
HETATM    9  C   UNL     1     -12.026  12.474  69.698  1.00  0.00    -0.272 C  
HETATM   10  C   UNL     1     -10.205   9.997  70.518  1.00  0.00    -0.092 C  
HETATM   11  OXT UNL     1     -12.413  13.603  69.437  1.00  0.00    -0.233 OA 
HETATM   12  O   UNL     1     -12.454  11.880  70.829  1.00  0.00    -0.349 OA 
ENDROOT
BRANCH   4  13
HETATM   13  CG1 UNL     1     -11.856  12.841  66.743  1.00  0.00    -0.452 C  
HETATM   14  CD1 UNL     1     -11.524  13.785  65.849  1.00  0.00    -0.330 C  
ENDBRANCH   4  13
BRANCH   8  15
HETATM   15  N   UNL     1      -9.408   7.780  69.526  1.00  0.00    -0.150 N  
HETATM   16  H   UNL     1     -10.328   7.622  69.116  1.00  0.00     0.000 HD 
HETATM   17  C   UNL     1      -8.541   6.720  69.684  1.00  0.00    -0.133 C  
HETATM   18  O   UNL     1      -7.466   6.823  70.258  1.00  0.00    -0.085 OA 
BRANCH  17  19
HETATM   19  C   UNL     1      -9.006   5.357  69.165  1.00  0.00    -0.104 C  
BRANCH  19  20
HETATM   20  C   UNL     1      -9.344   4.299  70.115  1.00  0.00    -0.158 A  
HETATM   21  N   UNL     1     -10.580   3.514  73.307  1.00  0.00    -0.175 NA 
HETATM   22  C   UNL     1      -9.224   2.942  69.872  1.00  0.00    -0.145 A  
HETATM   23  N   UNL     1      -9.839   4.609  71.382  1.00  0.00    -0.185 NA 
HETATM   24  C   UNL     1     -10.083   3.515  72.061  1.00  0.00    -0.116 A  
HETATM   25  S   UNL     1      -9.732   2.049  71.245  1.00  0.00    -0.092 SA 
HETATM   26  H2  UNL     1     -10.752   2.625  73.777  1.00  0.00     0.000 HD 
HETATM   27  H1  UNL     1     -10.788   4.386  73.793  1.00  0.00     0.000 HD 
ENDBRANCH  19  20
BRANCH  19  28
HETATM   28  N   UNL     1      -9.129   5.007  67.912  1.00  0.00    -0.111 NA 
HETATM   29  H   UNL     1      -8.889   4.072  67.585  1.00  0.00     0.000 HD 
BRANCH  28  30
HETATM   30  O   UNL     1      -9.609   5.994  67.048  1.00  0.00    -0.124 OA 
BRANCH  30  31
HETATM   31  C   UNL     1      -9.188   5.673  65.718  1.00  0.00    -0.096 C  
HETATM   32  O   UNL     1      -7.899   6.802  63.995  1.00  0.00    -0.112 OA 
HETATM   33  C   UNL     1      -8.019   6.491  65.174  1.00  0.00    -0.123 C  
HETATM   34  O   UNL     1      -7.073   6.790  66.096  1.00  0.00    -0.063 OA 
ENDBRANCH  30  31
ENDBRANCH  28  30
ENDBRANCH  19  28
ENDBRANCH  17  19
ENDBRANCH   8  15
TORSDOF 7
ENDMDL
MODEL      183
REMARK 921   NORMALIZED FREE ENERGY PREDICTED BY IDOCK:   -3.99 KCAL/MOL
REMARK 922        TOTAL FREE ENERGY PREDICTED BY IDOCK:   -6.97 KCAL/MOL
REMARK 923 INTER-LIGAND FREE ENERGY PREDICTED BY IDOCK:   -5.39 KCAL/MOL
REMARK 924 INTRA-LIGAND FREE ENERGY PREDICTED BY IDOCK:   -1.58 KCAL/MOL
REMARK 927      BINDING AFFINITY PREDICTED BY RF-SCORE:    0.00 PKD
ROOT
HETATM    1  C   UNL     1      -8.560   9.194  67.529  1.00  0.00    -0.116 C  
HETATM    2  S   UNL     1     -10.286   8.713  67.532  1.00  0.00    -0.272 SA 
HETATM    3  CG2 UNL     1     -10.880  10.109  66.579  1.00  0.00     0.027 C  
HETATM    4  CB  UNL     1     -10.266  11.474  66.876  1.00  0.00    -0.249 C  
HETATM    5  O   UNL     1      -6.894  10.987  69.728  1.00  0.00    -0.134 OA 
HETATM    6  CA  UNL     1      -9.083  11.643  67.544  1.00  0.00    -0.172 C  
HETATM    7  N   UNL     1      -8.417  10.550  68.032  1.00  0.00    -0.118 N  
HETATM    8  CA  UNL     1      -7.736   8.736  68.785  1.00  0.00    -0.097 C  
HETATM    9  C   UNL     1      -8.490  13.029  67.746  1.00  0.00    -0.188 C  
HETATM   10  C   UNL     1      -7.482  10.265  68.957  1.00  0.00    -0.097 C  
HETATM   11  OXT UNL     1      -8.696  13.967  66.990  1.00  0.00    -0.221 OA 
HETATM   12  O   UNL     1      -7.668  13.204  68.799  1.00  0.00    -0.100 OA 
ENDROOT
BRANCH   4  13
HETATM   13  CG1 UNL     1     -11.129  12.585  66.431  1.00  0.00    -0.332 C  
HETATM   14  CD1 UNL     1     -11.753  12.714  65.250  1.00  0.00    -0.417 C  
ENDBRANCH   4  13
BRANCH   8  15
HETATM   15  N   UNL     1      -8.465   8.121  69.943  1.00  0.00    -0.123 N  
HETATM   16  H   UNL     1      -9.382   8.481  70.208  1.00  0.00     0.000 HD 
HETATM   17  C   UNL     1      -7.913   7.076  70.651  1.00  0.00    -0.109 C  
HETATM   18  O   UNL     1      -6.779   6.664  70.450  1.00  0.00    -0.053 OA 
BRANCH  17  19
HETATM   19  C   UNL     1      -8.759   6.472  71.776  1.00  0.00    -0.131 C  
BRANCH  19  20
HETATM   20  C   UNL     1      -9.103   5.052  71.739  1.00  0.00    -0.137 A  
HETATM   21  N   UNL     1      -9.402   2.161  69.768  1.00  0.00    -0.109 NA 
HETATM   22  C   UNL     1      -9.495   4.299  72.831  1.00  0.00    -0.123 A  
HETATM   23  N   UNL     1      -9.045   4.334  70.543  1.00  0.00    -0.097 NA 
HETATM   24  C   UNL     1      -9.383   3.084  70.741  1.00  0.00    -0.153 A  
HETATM   25  S   UNL     1      -9.799   2.680  72.354  1.00  0.00    -0.163 SA 
HETATM   26  H2  UNL     1      -9.669   1.202  69.991  1.00  0.00     0.000 HD 
HETATM   27  H1  UNL     1      -9.155   2.402  68.808  1.00  0.00     0.000 HD 
ENDBRANCH  19  20
BRANCH  19  28
HETATM   28  N   UNL     1      -9.243   7.111  72.808  1.00  0.00    -0.137 NA 
HETATM   29  H   UNL     1      -9.035   6.829  73.766  1.00  0.00     0.000 HD 
BRANCH  28  30
HETATM   30  O   UNL     1     -10.063   8.204  72.518  1.00  0.00    -0.249 OA 
BRANCH  30  31
HETATM   31  C   UNL     1     -11.425   7.812  72.722  1.00  0.00    -0.359 C  
HETATM   32  O   UNL     1     -13.449   7.839  71.378  1.00  0.00    -0.324 OA 
HETATM   33  C   UNL     1     -12.251   7.594  71.456  1.00  0.00    -0.324 C  
HETATM   34  O   UNL     1     -11.564   7.032  70.434  1.00  0.00    -0.309 OA 
ENDBRANCH  30  31
ENDBRANCH  28  30
ENDBRANCH  19  28
ENDBRANCH  17  19
ENDBRANCH   8  15
TORSDOF 7
ENDMDL
MODEL      184
REMARK 921   NORMALIZED FREE ENERGY PREDICTED BY IDOCK:   -3.94 KCAL/MOL
REMARK 922        TOTAL FREE ENERGY PREDICTED BY IDOCK:   -6.91 KCAL/MOL
REMARK 923 INTER-LIGAND FREE ENERGY PREDICTED BY IDOCK:   -5.39 KCAL/MOL
REMARK 924 INTRA-LIGAND FREE ENERGY PREDICTED BY IDOCK:   -1.52 KCAL/MOL
REMARK 927      BINDING AFFINITY PREDICTED BY RF-SCORE:    0.00 PKD
ROOT
HETATM    1  C   UNL     1     -10.343  17.575  67.541  1.00  0.00    -0.356 C  
HETATM    2  S   UNL     1     -10.331  17.748  69.325  1.00  0.00     0.136 SA 
HETATM    3  CG2 UNL     1      -9.220  19.153  69.377  1.00  0.00     0.101 C  
HETATM    4  CB  UNL     1      -8.042  19.153  68.407  1.00  0.00    -0.378 C  
HETATM    5  O   UNL     1      -8.428  15.717  65.616  1.00  0.00     0.339 OA 
HETATM    6  CA  UNL     1      -7.977  18.359  67.295  1.00  0.00    -0.236 C  
HETATM    7  N   UNL     1      -8.984  17.464  67.039  1.00  0.00    -0.235 N  
HETATM    8  CA  UNL     1     -10.562  16.113  67.013  1.00  0.00    -0.292 C  
HETATM    9  C   UNL     1      -6.806  18.457  66.329  1.00  0.00    -0.233 C  
HETATM   10  C   UNL     1      -9.184  16.343  66.323  1.00  0.00    -0.315 C  
HETATM   11  OXT UNL     1      -6.147  19.474  66.171  1.00  0.00    -0.168 OA 
HETATM   12  O   UNL     1      -6.516  17.368  65.592  1.00  0.00    -0.037 OA 
ENDROOT
BRANCH   4  13
HETATM   13  CG1 UNL     1      -6.954  20.047  68.848  1.00  0.00    -0.293 C  
HETATM   14  CD1 UNL     1      -6.141  19.888  69.904  1.00  0.00    -0.371 C  
ENDBRANCH   4  13
BRANCH   8  15
HETATM   15  N   UNL     1     -10.554  14.980  67.997  1.00  0.00    -0.246 N  
HETATM   16  H   UNL     1     -10.330  15.165  68.975  1.00  0.00     0.000 HD 
HETATM   17  C   UNL     1     -10.844  13.694  67.597  1.00  0.00    -0.256 C  
HETATM   18  O   UNL     1     -11.021  13.388  66.426  1.00  0.00    -0.287 OA 
BRANCH  17  19
HETATM   19  C   UNL     1     -10.871  12.615  68.683  1.00  0.00    -0.249 C  
BRANCH  19  20
HETATM   20  C   UNL     1     -11.682  12.817  69.882  1.00  0.00    -0.251 A  
HETATM   21  N   UNL     1     -12.692  15.056  72.392  1.00  0.00    -0.323 NA 
HETATM   22  C   UNL     1     -12.501  11.864  70.460  1.00  0.00    -0.215 A  
HETATM   23  N   UNL     1     -11.685  14.046  70.543  1.00  0.00    -0.242 NA 
HETATM   24  C   UNL     1     -12.484  14.009  71.581  1.00  0.00    -0.283 A  
HETATM   25  S   UNL     1     -13.277  12.511  71.845  1.00  0.00    -0.283 SA 
HETATM   26  H2  UNL     1     -13.334  14.961  73.179  1.00  0.00     0.000 HD 
HETATM   27  H1  UNL     1     -12.221  15.947  72.235  1.00  0.00     0.000 HD 
ENDBRANCH  19  20
BRANCH  19  28
HETATM   28  N   UNL     1     -10.213  11.486  68.669  1.00  0.00    -0.209 NA 
HETATM   29  H   UNL     1     -10.572  10.656  68.200  1.00  0.00     0.000 HD 
BRANCH  28  30
HETATM   30  O   UNL     1      -8.986  11.488  69.337  1.00  0.00     0.312 OA 
BRANCH  30  31
HETATM   31  C   UNL     1      -8.575  10.130  69.528  1.00  0.00    -0.164 C  
HETATM   32  O   UNL     1      -8.700   8.087  68.217  1.00  0.00    -0.130 OA 
HETATM   33  C   UNL     1      -8.453   9.287  68.260  1.00  0.00    -0.120 C  
HETATM   34  O   UNL     1      -7.974   9.961  67.189  1.00  0.00    -0.108 OA 
ENDBRANCH  30  31
ENDBRANCH  28  30
ENDBRANCH  19  28
ENDBRANCH  17  19
ENDBRANCH   8  15
TORSDOF 7
ENDMDL
MODEL      185
REMARK 921   NORMALIZED FREE ENERGY PREDICTED BY IDOCK:   -3.92 KCAL/MOL
REMARK 922        TOTAL FREE ENERGY PREDICTED BY IDOCK:   -6.87 KCAL/MOL
REMARK 923 INTER-LIGAND FREE ENERGY PREDICTED BY IDOCK:   -5.24 KCAL/MOL
REMARK 924 INTRA-LIGAND FREE ENERGY PREDICTED BY IDOCK:   -1.63 KCAL/MOL
REMARK 927      BINDING AFFINITY PREDICTED BY RF-SCORE:    0.00 PKD
ROOT
HETATM    1  C   UNL     1     -10.527   8.325  66.792  1.00  0.00    -0.243 C  
HETATM    2  S   UNL     1     -10.785   9.376  68.220  1.00  0.00    -0.124 SA 
HETATM    3  CG2 UNL     1     -11.226  10.850  67.302  1.00  0.00    -0.233 C  
HETATM    4  CB  UNL     1     -10.441  11.143  66.027  1.00  0.00    -0.312 C  
HETATM    5  O   UNL     1      -7.755   7.721  65.126  1.00  0.00    -0.088 OA 
HETATM    6  CA  UNL     1      -9.693  10.208  65.366  1.00  0.00    -0.291 C  
HETATM    7  N   UNL     1      -9.578   8.943  65.882  1.00  0.00    -0.249 N  
HETATM    8  CA  UNL     1      -9.465   7.185  66.984  1.00  0.00    -0.155 C  
HETATM    9  C   UNL     1      -8.990  10.547  64.061  1.00  0.00    -0.217 C  
HETATM   10  C   UNL     1      -8.760   7.880  65.780  1.00  0.00    -0.135 C  
HETATM   11  OXT UNL     1      -9.384  11.408  63.288  1.00  0.00    -0.280 OA 
HETATM   12  O   UNL     1      -7.898   9.826  63.738  1.00  0.00    -0.130 OA 
ENDROOT
BRANCH   4  13
HETATM   13  CG1 UNL     1     -10.520  12.564  65.636  1.00  0.00    -0.299 C  
HETATM   14  CD1 UNL     1     -11.623  13.320  65.516  1.00  0.00    -0.351 C  
ENDBRANCH   4  13
BRANCH   8  15
HETATM   15  N   UNL     1      -8.634   7.175  68.234  1.00  0.00    -0.123 N  
HETATM   16  H   UNL     1      -8.005   7.954  68.426  1.00  0.00     0.000 HD 
HETATM   17  C   UNL     1      -8.710   6.126  69.125  1.00  0.00    -0.121 C  
HETATM   18  O   UNL     1      -9.366   5.117  68.907  1.00  0.00    -0.113 OA 
BRANCH  17  19
HETATM   19  C   UNL     1      -7.872   6.233  70.402  1.00  0.00    -0.107 C  
BRANCH  19  20
HETATM   20  C   UNL     1      -8.503   6.671  71.645  1.00  0.00    -0.119 A  
HETATM   21  N   UNL     1     -11.467   7.704  73.221  1.00  0.00    -0.638 NA 
HETATM   22  C   UNL     1      -7.860   6.798  72.863  1.00  0.00    -0.098 A  
HETATM   23  N   UNL     1      -9.860   6.997  71.682  1.00  0.00    -0.164 NA 
HETATM   24  C   UNL     1     -10.215   7.352  72.892  1.00  0.00    -0.261 A  
HETATM   25  S   UNL     1      -8.963   7.333  74.062  1.00  0.00    -0.235 SA 
HETATM   26  H2  UNL     1     -11.677   7.964  74.185  1.00  0.00     0.000 HD 
HETATM   27  H1  UNL     1     -12.212   7.716  72.525  1.00  0.00     0.000 HD 
ENDBRANCH  19  20
BRANCH  19  28
HETATM   28  N   UNL     1      -6.595   5.979  70.513  1.00  0.00    -0.046 NA 
HETATM   29  H   UNL     1      -6.190   5.609  71.372  1.00  0.00     0.000 HD 
BRANCH  28  30
HETATM   30  O   UNL     1      -5.821   6.246  69.382  1.00  0.00    -0.019 OA 
BRANCH  30  31
HETATM   31  C   UNL     1      -5.260   5.013  68.918  1.00  0.00     0.000 C  
HETATM   32  O   UNL     1      -6.061   3.145  67.586  1.00  0.00    -0.026 OA 
HETATM   33  C   UNL     1      -5.976   4.358  67.739  1.00  0.00    -0.027 C  
HETATM   34  O   UNL     1      -6.455   5.233  66.824  1.00  0.00    -0.039 OA 
ENDBRANCH  30  31
ENDBRANCH  28  30
ENDBRANCH  19  28
ENDBRANCH  17  19
ENDBRANCH   8  15
TORSDOF 7
ENDMDL
MODEL      186
REMARK 921   NORMALIZED FREE ENERGY PREDICTED BY IDOCK:   -3.92 KCAL/MOL
REMARK 922        TOTAL FREE ENERGY PREDICTED BY IDOCK:   -6.87 KCAL/MOL
REMARK 923 INTER-LIGAND FREE ENERGY PREDICTED BY IDOCK:   -6.55 KCAL/MOL
REMARK 924 INTRA-LIGAND FREE ENERGY PREDICTED BY IDOCK:   -0.31 KCAL/MOL
REMARK 927      BINDING AFFINITY PREDICTED BY RF-SCORE:    0.00 PKD
ROOT
HETATM    1  C   UNL     1      -9.793   8.401  66.941  1.00  0.00    -0.245 C  
HETATM    2  S   UNL     1      -8.639   9.347  65.950  1.00  0.00    -0.148 SA 
HETATM    3  CG2 UNL     1      -7.312   8.144  65.992  1.00  0.00    -0.076 C  
HETATM    4  CB  UNL     1      -7.069   7.414  67.310  1.00  0.00    -0.084 C  
HETATM    5  O   UNL     1     -10.281   8.461  70.194  1.00  0.00    -0.189 OA 
HETATM    6  CA  UNL     1      -7.986   7.353  68.323  1.00  0.00    -0.124 C  
HETATM    7  N   UNL     1      -9.177   8.021  68.201  1.00  0.00    -0.134 N  
HETATM    8  CA  UNL     1     -10.799   9.254  67.793  1.00  0.00    -0.126 C  
HETATM    9  C   UNL     1      -7.708   6.550  69.584  1.00  0.00    -0.103 C  
HETATM   10  C   UNL     1     -10.159   8.490  68.992  1.00  0.00    -0.199 C  
HETATM   11  OXT UNL     1      -6.970   5.576  69.613  1.00  0.00    -0.058 OA 
HETATM   12  O   UNL     1      -8.346   6.923  70.711  1.00  0.00    -0.124 OA 
ENDROOT
BRANCH   4  13
HETATM   13  CG1 UNL     1      -5.707   6.850  67.392  1.00  0.00    -0.017 C  
HETATM   14  CD1 UNL     1      -5.192   5.844  66.668  1.00  0.00    -0.005 C  
ENDBRANCH   4  13
BRANCH   8  15
HETATM   15  N   UNL     1     -10.606  10.741  67.864  1.00  0.00    -0.204 N  
HETATM   16  H   UNL     1      -9.763  11.158  67.469  1.00  0.00     0.000 HD 
HETATM   17  C   UNL     1     -11.552  11.549  68.457  1.00  0.00    -0.313 C  
HETATM   18  O   UNL     1     -12.533  11.106  69.037  1.00  0.00    -0.439 OA 
BRANCH  17  19
HETATM   19  C   UNL     1     -11.297  13.059  68.426  1.00  0.00    -0.291 C  
BRANCH  19  20
HETATM   20  C   UNL     1     -11.841  13.905  69.486  1.00  0.00    -0.329 A  
HETATM   21  N   UNL     1     -11.427  16.809  71.417  1.00  0.00    -0.397 NA 
HETATM   22  C   UNL     1     -13.027  13.675  70.159  1.00  0.00     0.253 A  
HETATM   23  N   UNL     1     -11.167  15.057  69.896  1.00  0.00    -0.264 NA 
HETATM   24  C   UNL     1     -11.834  15.667  70.845  1.00  0.00    -0.388 A  
HETATM   25  S   UNL     1     -13.298  14.909  71.319  1.00  0.00    -0.443 SA 
HETATM   26  H2  UNL     1     -11.998  17.235  72.148  1.00  0.00     0.000 HD 
HETATM   27  H1  UNL     1     -10.557  17.259  71.136  1.00  0.00     0.000 HD 
ENDBRANCH  19  20
BRANCH  19  28
HETATM   28  N   UNL     1     -10.628  13.712  67.513  1.00  0.00    -0.240 NA 
HETATM   29  H   UNL     1      -9.661  13.485  67.284  1.00  0.00     0.000 HD 
BRANCH  28  30
HETATM   30  O   UNL     1     -11.321  14.740  66.869  1.00  0.00    -0.344 OA 
BRANCH  30  31
HETATM   31  C   UNL     1     -10.392  15.475  66.066  1.00  0.00    -0.326 C  
HETATM   32  O   UNL     1     -10.086  17.814  65.483  1.00  0.00    -0.548 OA 
HETATM   33  C   UNL     1     -10.309  16.974  66.347  1.00  0.00    -0.303 C  
HETATM   34  O   UNL     1     -10.432  17.302  67.655  1.00  0.00    -0.343 OA 
ENDBRANCH  30  31
ENDBRANCH  28  30
ENDBRANCH  19  28
ENDBRANCH  17  19
ENDBRANCH   8  15
TORSDOF 7
ENDMDL
MODEL      187
REMARK 921   NORMALIZED FREE ENERGY PREDICTED BY IDOCK:   -3.91 KCAL/MOL
REMARK 922        TOTAL FREE ENERGY PREDICTED BY IDOCK:   -6.87 KCAL/MOL
REMARK 923 INTER-LIGAND FREE ENERGY PREDICTED BY IDOCK:   -5.09 KCAL/MOL
REMARK 924 INTRA-LIGAND FREE ENERGY PREDICTED BY IDOCK:   -1.78 KCAL/MOL
REMARK 927      BINDING AFFINITY PREDICTED BY RF-SCORE:    0.00 PKD
ROOT
HETATM    1  C   UNL     1     -11.164   6.164  68.672  1.00  0.00    -0.185 C  
HETATM    2  S   UNL     1     -10.030   5.151  69.620  1.00  0.00    -0.262 SA 
HETATM    3  CG2 UNL     1     -10.296   5.975  71.189  1.00  0.00    -0.214 C  
HETATM    4  CB  UNL     1     -10.434   7.494  71.169  1.00  0.00    -0.216 C  
HETATM    5  O   UNL     1     -10.568   8.910  66.960  1.00  0.00    -0.274 OA 
HETATM    6  CA  UNL     1     -10.717   8.214  70.041  1.00  0.00    -0.243 C  
HETATM    7  N   UNL     1     -10.835   7.570  68.836  1.00  0.00    -0.103 N  
HETATM    8  CA  UNL     1     -10.792   6.346  67.157  1.00  0.00    -0.393 C  
HETATM    9  C   UNL     1     -10.911   9.722  70.101  1.00  0.00    -0.291 C  
HETATM   10  C   UNL     1     -10.778   7.861  67.524  1.00  0.00    -0.181 C  
HETATM   11  OXT UNL     1     -11.304  10.310  71.098  1.00  0.00    -0.314 OA 
HETATM   12  O   UNL     1     -10.666  10.424  68.978  1.00  0.00    -0.200 OA 
ENDROOT
BRANCH   4  13
HETATM   13  CG1 UNL     1     -10.152   8.098  72.485  1.00  0.00    -0.370 C  
HETATM   14  CD1 UNL     1      -9.165   7.780  73.338  1.00  0.00    -0.344 C  
ENDBRANCH   4  13
BRANCH   8  15
HETATM   15  N   UNL     1      -9.465   5.839  66.674  1.00  0.00    -0.144 N  
HETATM   16  H   UNL     1      -8.606   6.264  67.023  1.00  0.00     0.000 HD 
HETATM   17  C   UNL     1      -9.392   4.806  65.764  1.00  0.00    -0.161 C  
HETATM   18  O   UNL     1     -10.380   4.321  65.231  1.00  0.00    -0.244 OA 
BRANCH  17  19
HETATM   19  C   UNL     1      -7.994   4.315  65.377  1.00  0.00    -0.097 C  
BRANCH  19  20
HETATM   20  C   UNL     1      -7.325   3.314  66.204  1.00  0.00    -0.072 A  
HETATM   21  N   UNL     1      -7.294   1.588  69.262  1.00  0.00    -0.036 NA 
HETATM   22  C   UNL     1      -6.211   2.586  65.828  1.00  0.00    -0.024 A  
HETATM   23  N   UNL     1      -7.799   3.010  67.481  1.00  0.00    -0.075 NA 
HETATM   24  C   UNL     1      -7.060   2.083  68.038  1.00  0.00    -0.046 A  
HETATM   25  S   UNL     1      -5.750   1.517  67.088  1.00  0.00    -0.019 SA 
HETATM   26  H2  UNL     1      -6.682   0.861  69.634  1.00  0.00     0.000 HD 
HETATM   27  H1  UNL     1      -8.072   1.925  69.828  1.00  0.00     0.000 HD 
ENDBRANCH  19  20
BRANCH  19  28
HETATM   28  N   UNL     1      -7.290   4.716  64.351  1.00  0.00    -0.065 NA 
HETATM   29  H   UNL     1      -6.302   4.486  64.250  1.00  0.00     0.000 HD 
BRANCH  28  30
HETATM   30  O   UNL     1      -7.975   5.479  63.402  1.00  0.00    -0.090 OA 
BRANCH  30  31
HETATM   31  C   UNL     1      -7.145   6.583  63.028  1.00  0.00    -0.050 C  
HETATM   32  O   UNL     1      -7.428   8.994  62.910  1.00  0.00    -0.103 OA 
HETATM   33  C   UNL     1      -7.591   7.953  63.536  1.00  0.00    -0.130 C  
HETATM   34  O   UNL     1      -8.122   7.939  64.781  1.00  0.00    -0.144 OA 
ENDBRANCH  30  31
ENDBRANCH  28  30
ENDBRANCH  19  28
ENDBRANCH  17  19
ENDBRANCH   8  15
TORSDOF 7
ENDMDL
MODEL      188
REMARK 921   NORMALIZED FREE ENERGY PREDICTED BY IDOCK:   -3.85 KCAL/MOL
REMARK 922        TOTAL FREE ENERGY PREDICTED BY IDOCK:   -6.77 KCAL/MOL
REMARK 923 INTER-LIGAND FREE ENERGY PREDICTED BY IDOCK:   -5.78 KCAL/MOL
REMARK 924 INTRA-LIGAND FREE ENERGY PREDICTED BY IDOCK:   -0.99 KCAL/MOL
REMARK 927      BINDING AFFINITY PREDICTED BY RF-SCORE:    0.00 PKD
ROOT
HETATM    1  C   UNL     1      -8.142  10.881  67.802  1.00  0.00    -0.115 C  
HETATM    2  S   UNL     1      -7.657   9.631  66.613  1.00  0.00    -0.098 SA 
HETATM    3  CG2 UNL     1      -8.477  10.372  65.203  1.00  0.00    -0.173 C  
HETATM    4  CB  UNL     1      -9.853  10.988  65.437  1.00  0.00    -0.301 C  
HETATM    5  O   UNL     1     -10.766  10.962  69.784  1.00  0.00    -0.225 OA 
HETATM    6  CA  UNL     1     -10.334  11.322  66.673  1.00  0.00    -0.237 C  
HETATM    7  N   UNL     1      -9.585  11.051  67.789  1.00  0.00    -0.167 N  
HETATM    8  CA  UNL     1      -8.304  10.373  69.278  1.00  0.00    -0.155 C  
HETATM    9  C   UNL     1     -11.687  11.999  66.831  1.00  0.00    -0.266 C  
HETATM   10  C   UNL     1      -9.761  10.902  69.114  1.00  0.00    -0.122 C  
HETATM   11  OXT UNL     1     -12.194  12.700  65.968  1.00  0.00    -0.564 OA 
HETATM   12  O   UNL     1     -12.330  11.835  68.003  1.00  0.00    -0.391 OA 
ENDROOT
BRANCH   4  13
HETATM   13  CG1 UNL     1     -10.630  11.110  64.188  1.00  0.00    -0.436 C  
HETATM   14  CD1 UNL     1     -10.470  12.013  63.209  1.00  0.00    -0.403 C  
ENDBRANCH   4  13
BRANCH   8  15
HETATM   15  N   UNL     1      -8.233   8.898  69.547  1.00  0.00    -0.104 N  
HETATM   16  H   UNL     1      -8.135   8.249  68.766  1.00  0.00     0.000 HD 
HETATM   17  C   UNL     1      -8.299   8.410  70.834  1.00  0.00    -0.135 C  
HETATM   18  O   UNL     1      -8.517   9.124  71.803  1.00  0.00    -0.340 OA 
BRANCH  17  19
HETATM   19  C   UNL     1      -8.156   6.896  71.014  1.00  0.00    -0.106 C  
BRANCH  19  20
HETATM   20  C   UNL     1      -8.713   6.254  72.202  1.00  0.00    -0.133 A  
HETATM   21  N   UNL     1     -11.610   5.109  73.825  1.00  0.00    -0.308 NA 
HETATM   22  C   UNL     1      -7.978   5.798  73.281  1.00  0.00    -0.110 A  
HETATM   23  N   UNL     1     -10.089   6.043  72.321  1.00  0.00    -0.179 NA 
HETATM   24  C   UNL     1     -10.367   5.447  73.454  1.00  0.00    -0.216 A  
HETATM   25  S   UNL     1      -9.018   5.105  74.455  1.00  0.00    -0.114 SA 
HETATM   26  H2  UNL     1     -11.756   4.640  74.719  1.00  0.00     0.000 HD 
HETATM   27  H1  UNL     1     -12.412   5.313  73.230  1.00  0.00     0.000 HD 
ENDBRANCH  19  20
BRANCH  19  28
HETATM   28  N   UNL     1      -7.552   6.074  70.197  1.00  0.00    -0.092 NA 
HETATM   29  H   UNL     1      -6.550   6.125  70.020  1.00  0.00     0.000 HD 
BRANCH  28  30
HETATM   30  O   UNL     1      -8.367   5.121  69.580  1.00  0.00    -0.091 OA 
BRANCH  30  31
HETATM   31  C   UNL     1      -7.670   3.871  69.574  1.00  0.00    -0.052 C  
HETATM   32  O   UNL     1      -7.862   1.781  70.801  1.00  0.00    -0.039 OA 
HETATM   33  C   UNL     1      -8.416   2.690  70.194  1.00  0.00    -0.046 C  
HETATM   34  O   UNL     1      -9.749   2.688  69.955  1.00  0.00    -0.062 OA 
ENDBRANCH  30  31
ENDBRANCH  28  30
ENDBRANCH  19  28
ENDBRANCH  17  19
ENDBRANCH   8  15
TORSDOF 7
ENDMDL
MODEL      189
REMARK 921   NORMALIZED FREE ENERGY PREDICTED BY IDOCK:   -3.83 KCAL/MOL
REMARK 922        TOTAL FREE ENERGY PREDICTED BY IDOCK:   -6.75 KCAL/MOL
REMARK 923 INTER-LIGAND FREE ENERGY PREDICTED BY IDOCK:   -5.83 KCAL/MOL
REMARK 924 INTRA-LIGAND FREE ENERGY PREDICTED BY IDOCK:   -0.92 KCAL/MOL
REMARK 927      BINDING AFFINITY PREDICTED BY RF-SCORE:    0.00 PKD
ROOT
HETATM    1  C   UNL     1      -6.591  15.044  67.331  1.00  0.00    -0.030 C  
HETATM    2  S   UNL     1      -8.101  15.771  66.697  1.00  0.00    -0.190 SA 
HETATM    3  CG2 UNL     1      -7.713  17.459  67.156  1.00  0.00    -0.204 C  
HETATM    4  CB  UNL     1      -7.036  17.682  68.506  1.00  0.00    -0.231 C  
HETATM    5  O   UNL     1      -5.987  13.754  70.297  1.00  0.00    -0.138 OA 
HETATM    6  CA  UNL     1      -6.403  16.693  69.208  1.00  0.00    -0.202 C  
HETATM    7  N   UNL     1      -6.406  15.409  68.725  1.00  0.00    -0.099 N  
HETATM    8  CA  UNL     1      -6.721  13.561  67.830  1.00  0.00    -0.168 C  
HETATM    9  C   UNL     1      -5.687  16.995  70.515  1.00  0.00    -0.033 C  
HETATM   10  C   UNL     1      -6.225  14.157  69.182  1.00  0.00    -0.101 C  
HETATM   11  OXT UNL     1      -5.209  18.088  70.783  1.00  0.00    -0.256 OA 
HETATM   12  O   UNL     1      -5.550  15.985  71.396  1.00  0.00     0.152 OA 
ENDROOT
BRANCH   4  13
HETATM   13  CG1 UNL     1      -7.210  19.062  68.997  1.00  0.00    -0.351 C  
HETATM   14  CD1 UNL     1      -6.757  20.194  68.437  1.00  0.00    -0.337 C  
ENDBRANCH   4  13
BRANCH   8  15
HETATM   15  N   UNL     1      -8.087  12.945  67.916  1.00  0.00    -0.147 N  
HETATM   16  H   UNL     1      -8.754  13.296  68.603  1.00  0.00     0.000 HD 
HETATM   17  C   UNL     1      -8.451  11.912  67.080  1.00  0.00    -0.173 C  
HETATM   18  O   UNL     1      -7.669  11.378  66.306  1.00  0.00    -0.108 OA 
BRANCH  17  19
HETATM   19  C   UNL     1      -9.885  11.390  67.200  1.00  0.00    -0.190 C  
BRANCH  19  20
HETATM   20  C   UNL     1     -10.120   9.965  67.426  1.00  0.00    -0.205 A  
HETATM   21  N   UNL     1     -10.642   7.421  69.790  1.00  0.00    -0.233 NA 
HETATM   22  C   UNL     1     -10.241   9.011  66.432  1.00  0.00    -0.227 A  
HETATM   23  N   UNL     1     -10.251   9.459  68.720  1.00  0.00    -0.197 NA 
HETATM   24  C   UNL     1     -10.464   8.167  68.690  1.00  0.00    -0.165 A  
HETATM   25  S   UNL     1     -10.516   7.467  67.125  1.00  0.00    -0.346 SA 
HETATM   26  H2  UNL     1     -10.811   6.420  69.694  1.00  0.00     0.000 HD 
HETATM   27  H1  UNL     1     -10.611   7.838  70.720  1.00  0.00     0.000 HD 
ENDBRANCH  19  20
BRANCH  19  28
HETATM   28  N   UNL     1     -10.978  12.102  67.107  1.00  0.00    -0.254 NA 
HETATM   29  H   UNL     1     -11.350  12.407  66.209  1.00  0.00     0.000 HD 
BRANCH  28  30
HETATM   30  O   UNL     1     -11.603  12.418  68.316  1.00  0.00    -0.289 OA 
BRANCH  30  31
HETATM   31  C   UNL     1     -11.135  13.703  68.741  1.00  0.00    -0.270 C  
HETATM   32  O   UNL     1     -12.186  15.780  69.438  1.00  0.00    -0.313 OA 
HETATM   33  C   UNL     1     -12.142  14.557  69.509  1.00  0.00    -0.306 C  
HETATM   34  O   UNL     1     -12.946  13.855  70.341  1.00  0.00    -0.212 OA 
ENDBRANCH  30  31
ENDBRANCH  28  30
ENDBRANCH  19  28
ENDBRANCH  17  19
ENDBRANCH   8  15
TORSDOF 7
ENDMDL
MODEL      190
REMARK 921   NORMALIZED FREE ENERGY PREDICTED BY IDOCK:   -3.76 KCAL/MOL
REMARK 922        TOTAL FREE ENERGY PREDICTED BY IDOCK:   -6.64 KCAL/MOL
REMARK 923 INTER-LIGAND FREE ENERGY PREDICTED BY IDOCK:   -5.71 KCAL/MOL
REMARK 924 INTRA-LIGAND FREE ENERGY PREDICTED BY IDOCK:   -0.93 KCAL/MOL
REMARK 927      BINDING AFFINITY PREDICTED BY RF-SCORE:    0.00 PKD
ROOT
HETATM    1  C   UNL     1     -10.289  17.548  67.567  1.00  0.00    -0.356 C  
HETATM    2  S   UNL     1     -10.217  17.675  69.353  1.00  0.00     0.138 SA 
HETATM    3  CG2 UNL     1      -9.251  19.182  69.404  1.00  0.00     0.101 C  
HETATM    4  CB  UNL     1      -8.122  19.327  68.387  1.00  0.00    -0.378 C  
HETATM    5  O   UNL     1      -8.283  15.945  65.511  1.00  0.00     0.843 OA 
HETATM    6  CA  UNL     1      -8.026  18.573  67.250  1.00  0.00    -0.236 C  
HETATM    7  N   UNL     1      -8.949  17.588  67.008  1.00  0.00    -0.234 N  
HETATM    8  CA  UNL     1     -10.384  16.086  67.003  1.00  0.00    -0.292 C  
HETATM    9  C   UNL     1      -6.913  18.814  66.241  1.00  0.00    -0.235 C  
HETATM   10  C   UNL     1      -9.066  16.472  66.266  1.00  0.00    -0.313 C  
HETATM   11  OXT UNL     1      -6.367  19.897  66.089  1.00  0.00    -0.181 OA 
HETATM   12  O   UNL     1      -6.548  17.779  65.460  1.00  0.00    -0.240 OA 
ENDROOT
BRANCH   4  13
HETATM   13  CG1 UNL     1      -7.111  20.314  68.812  1.00  0.00    -0.139 C  
HETATM   14  CD1 UNL     1      -6.242  20.211  69.829  1.00  0.00    -0.381 C  
ENDBRANCH   4  13
BRANCH   8  15
HETATM   15  N   UNL     1     -10.220  14.934  67.951  1.00  0.00    -0.227 N  
HETATM   16  H   UNL     1      -9.939  15.113  68.916  1.00  0.00     0.000 HD 
HETATM   17  C   UNL     1     -10.444  13.639  67.536  1.00  0.00    -0.241 C  
HETATM   18  O   UNL     1     -10.684  13.348  66.372  1.00  0.00    -0.283 OA 
BRANCH  17  19
HETATM   19  C   UNL     1     -10.312  12.536  68.590  1.00  0.00    -0.177 C  
BRANCH  19  20
HETATM   20  C   UNL     1      -9.387  11.428  68.365  1.00  0.00    -0.194 A  
HETATM   21  N   UNL     1      -8.207   9.009  66.108  1.00  0.00    -0.113 NA 
HETATM   22  C   UNL     1      -8.471  10.955  69.287  1.00  0.00     0.007 A  
HETATM   23  N   UNL     1      -9.364  10.754  67.143  1.00  0.00    -0.155 NA 
HETATM   24  C   UNL     1      -8.457   9.808  67.156  1.00  0.00    -0.125 A  
HETATM   25  S   UNL     1      -7.579   9.651  68.620  1.00  0.00    -0.080 SA 
HETATM   26  H2  UNL     1      -7.482   8.296  66.183  1.00  0.00     0.000 HD 
HETATM   27  H1  UNL     1      -8.730   9.102  65.237  1.00  0.00     0.000 HD 
ENDBRANCH  19  20
BRANCH  19  28
HETATM   28  N   UNL     1     -10.972  12.459  69.715  1.00  0.00    -0.422 NA 
HETATM   29  H   UNL     1     -10.660  12.938  70.560  1.00  0.00     0.000 HD 
BRANCH  28  30
HETATM   30  O   UNL     1     -12.131  11.681  69.690  1.00  0.00    -0.304 OA 
BRANCH  30  31
HETATM   31  C   UNL     1     -12.519  11.406  71.040  1.00  0.00    -0.383 C  
HETATM   32  O   UNL     1     -13.087   9.408  72.302  1.00  0.00    -0.415 OA 
HETATM   33  C   UNL     1     -12.339   9.962  71.504  1.00  0.00    -0.412 C  
HETATM   34  O   UNL     1     -11.233   9.354  71.014  1.00  0.00    -0.283 OA 
ENDBRANCH  30  31
ENDBRANCH  28  30
ENDBRANCH  19  28
ENDBRANCH  17  19
ENDBRANCH   8  15
TORSDOF 7
ENDMDL
MODEL      191
REMARK 921   NORMALIZED FREE ENERGY PREDICTED BY IDOCK:   -3.72 KCAL/MOL
REMARK 922        TOTAL FREE ENERGY PREDICTED BY IDOCK:   -6.60 KCAL/MOL
REMARK 923 INTER-LIGAND FREE ENERGY PREDICTED BY IDOCK:   -6.13 KCAL/MOL
REMARK 924 INTRA-LIGAND FREE ENERGY PREDICTED BY IDOCK:   -0.46 KCAL/MOL
REMARK 927      BINDING AFFINITY PREDICTED BY RF-SCORE:    0.00 PKD
ROOT
HETATM    1  C   UNL     1      -8.089   8.879  71.104  1.00  0.00    -0.160 C  
HETATM    2  S   UNL     1      -9.737   8.792  71.802  1.00  0.00    -0.301 SA 
HETATM    3  CG2 UNL     1      -9.681   7.051  72.222  1.00  0.00    -0.153 C  
HETATM    4  CB  UNL     1      -9.013   6.110  71.224  1.00  0.00    -0.140 C  
HETATM    5  O   UNL     1      -7.126   8.490  67.982  1.00  0.00    -0.082 OA 
HETATM    6  CA  UNL     1      -8.167   6.531  70.234  1.00  0.00    -0.126 C  
HETATM    7  N   UNL     1      -7.929   7.871  70.069  1.00  0.00    -0.109 N  
HETATM    8  CA  UNL     1      -7.898   9.947  69.969  1.00  0.00    -0.180 C  
HETATM    9  C   UNL     1      -7.479   5.534  69.315  1.00  0.00    -0.078 C  
HETATM   10  C   UNL     1      -7.482   8.709  69.117  1.00  0.00    -0.083 C  
HETATM   11  OXT UNL     1      -7.222   4.384  69.642  1.00  0.00    -0.049 OA 
HETATM   12  O   UNL     1      -7.108   5.968  68.095  1.00  0.00    -0.073 OA 
ENDROOT
BRANCH   4  13
HETATM   13  CG1 UNL     1      -9.444   4.710  71.402  1.00  0.00    -0.217 C  
HETATM   14  CD1 UNL     1      -9.753   4.088  72.551  1.00  0.00    -0.206 C  
ENDBRANCH   4  13
BRANCH   8  15
HETATM   15  N   UNL     1      -9.107  10.657  69.435  1.00  0.00    -0.393 N  
HETATM   16  H   UNL     1     -10.038  10.315  69.675  1.00  0.00     0.000 HD 
HETATM   17  C   UNL     1      -8.976  11.765  68.626  1.00  0.00    -0.066 C  
HETATM   18  O   UNL     1      -7.894  12.166  68.221  1.00  0.00    -0.137 OA 
BRANCH  17  19
HETATM   19  C   UNL     1     -10.266  12.461  68.182  1.00  0.00    -0.225 C  
BRANCH  19  20
HETATM   20  C   UNL     1     -10.582  13.793  68.693  1.00  0.00    -0.253 A  
HETATM   21  N   UNL     1     -12.679  15.719  70.748  1.00  0.00    -0.479 NA 
HETATM   22  C   UNL     1      -9.887  14.949  68.389  1.00  0.00    -0.216 A  
HETATM   23  N   UNL     1     -11.652  13.986  69.568  1.00  0.00    -0.278 NA 
HETATM   24  C   UNL     1     -11.749  15.248  69.906  1.00  0.00    -0.323 A  
HETATM   25  S   UNL     1     -10.583  16.289  69.201  1.00  0.00    -0.315 SA 
HETATM   26  H2  UNL     1     -12.694  16.713  70.974  1.00  0.00     0.000 HD 
HETATM   27  H1  UNL     1     -13.373  15.100  71.167  1.00  0.00     0.000 HD 
ENDBRANCH  19  20
BRANCH  19  28
HETATM   28  N   UNL     1     -11.166  11.974  67.369  1.00  0.00    -0.286 NA 
HETATM   29  H   UNL     1     -11.260  10.972  67.203  1.00  0.00     0.000 HD 
BRANCH  28  30
HETATM   30  O   UNL     1     -11.992  12.910  66.744  1.00  0.00    -0.391 OA 
BRANCH  30  31
HETATM   31  C   UNL     1     -11.536  13.085  65.398  1.00  0.00    -0.341 C  
HETATM   32  O   UNL     1      -9.792  12.096  64.024  1.00  0.00    -0.267 OA 
HETATM   33  C   UNL     1     -10.709  11.937  64.822  1.00  0.00    -0.307 C  
HETATM   34  O   UNL     1     -11.119  10.707  65.209  1.00  0.00     0.100 OA 
ENDBRANCH  30  31
ENDBRANCH  28  30
ENDBRANCH  19  28
ENDBRANCH  17  19
ENDBRANCH   8  15
TORSDOF 7
ENDMDL
MODEL      192
REMARK 921   NORMALIZED FREE ENERGY PREDICTED BY IDOCK:   -3.64 KCAL/MOL
REMARK 922        TOTAL FREE ENERGY PREDICTED BY IDOCK:   -6.48 KCAL/MOL
REMARK 923 INTER-LIGAND FREE ENERGY PREDICTED BY IDOCK:   -4.95 KCAL/MOL
REMARK 924 INTRA-LIGAND FREE ENERGY PREDICTED BY IDOCK:   -1.53 KCAL/MOL
REMARK 927      BINDING AFFINITY PREDICTED BY RF-SCORE:    0.00 PKD
ROOT
HETATM    1  C   UNL     1      -8.365   8.302  67.710  1.00  0.00    -0.128 C  
HETATM    2  S   UNL     1      -9.937   7.854  68.443  1.00  0.00    -0.185 SA 
HETATM    3  CG2 UNL     1     -10.895   9.149  67.658  1.00  0.00    -0.089 C  
HETATM    4  CB  UNL     1     -10.251  10.527  67.542  1.00  0.00    -0.245 C  
HETATM    5  O   UNL     1      -6.018  10.294  68.871  1.00  0.00    -0.041 OA 
HETATM    6  CA  UNL     1      -8.906  10.747  67.668  1.00  0.00    -0.132 C  
HETATM    7  N   UNL     1      -8.072   9.701  67.969  1.00  0.00    -0.105 N  
HETATM    8  CA  UNL     1      -7.102   7.969  68.581  1.00  0.00    -0.072 C  
HETATM    9  C   UNL     1      -8.318  12.136  67.472  1.00  0.00    -0.166 C  
HETATM   10  C   UNL     1      -6.842   9.502  68.475  1.00  0.00    -0.061 C  
HETATM   11  OXT UNL     1      -8.831  12.990  66.763  1.00  0.00    -0.207 OA 
HETATM   12  O   UNL     1      -7.154  12.410  68.091  1.00  0.00    -0.080 OA 
ENDROOT
BRANCH   4  13
HETATM   13  CG1 UNL     1     -11.250  11.597  67.357  1.00  0.00    -0.358 C  
HETATM   14  CD1 UNL     1     -11.690  12.115  66.200  1.00  0.00    -0.384 C  
ENDBRANCH   4  13
BRANCH   8  15
HETATM   15  N   UNL     1      -7.301   7.495  69.991  1.00  0.00    -0.079 N  
HETATM   16  H   UNL     1      -7.441   8.178  70.735  1.00  0.00     0.000 HD 
HETATM   17  C   UNL     1      -7.296   6.151  70.292  1.00  0.00    -0.088 C  
HETATM   18  O   UNL     1      -7.034   5.287  69.466  1.00  0.00    -0.051 OA 
BRANCH  17  19
HETATM   19  C   UNL     1      -7.570   5.761  71.747  1.00  0.00    -0.096 C  
BRANCH  19  20
HETATM   20  C   UNL     1      -8.941   5.506  72.182  1.00  0.00    -0.137 A  
HETATM   21  N   UNL     1     -12.287   6.571  72.093  1.00  0.00    -0.516 NA 
HETATM   22  C   UNL     1      -9.346   4.436  72.959  1.00  0.00    -0.121 A  
HETATM   23  N   UNL     1      -9.978   6.366  71.813  1.00  0.00    -0.177 NA 
HETATM   24  C   UNL     1     -11.120   5.945  72.301  1.00  0.00    -0.280 A  
HETATM   25  S   UNL     1     -11.036   4.510  73.235  1.00  0.00    -0.295 SA 
HETATM   26  H2  UNL     1     -13.141   6.186  72.497  1.00  0.00     0.000 HD 
HETATM   27  H1  UNL     1     -12.337   7.425  71.538  1.00  0.00     0.000 HD 
ENDBRANCH  19  20
BRANCH  19  28
HETATM   28  N   UNL     1      -6.679   5.636  72.695  1.00  0.00    -0.070 NA 
HETATM   29  H   UNL     1      -6.688   4.851  73.346  1.00  0.00     0.000 HD 
BRANCH  28  30
HETATM   30  O   UNL     1      -5.714   6.644  72.761  1.00  0.00    -0.038 OA 
BRANCH  30  31
HETATM   31  C   UNL     1      -5.904   7.370  73.980  1.00  0.00    -0.060 C  
HETATM   32  O   UNL     1      -6.301   9.697  74.559  1.00  0.00    -0.343 OA 
HETATM   33  C   UNL     1      -6.567   8.739  73.842  1.00  0.00     0.022 C  
HETATM   34  O   UNL     1      -7.537   8.795  72.899  1.00  0.00    -0.365 OA 
ENDBRANCH  30  31
ENDBRANCH  28  30
ENDBRANCH  19  28
ENDBRANCH  17  19
ENDBRANCH   8  15
TORSDOF 7
ENDMDL
MODEL      193
REMARK 921   NORMALIZED FREE ENERGY PREDICTED BY IDOCK:   -3.59 KCAL/MOL
REMARK 922        TOTAL FREE ENERGY PREDICTED BY IDOCK:   -6.41 KCAL/MOL
REMARK 923 INTER-LIGAND FREE ENERGY PREDICTED BY IDOCK:   -5.12 KCAL/MOL
REMARK 924 INTRA-LIGAND FREE ENERGY PREDICTED BY IDOCK:   -1.29 KCAL/MOL
REMARK 927      BINDING AFFINITY PREDICTED BY RF-SCORE:    0.00 PKD
ROOT
HETATM    1  C   UNL     1     -10.563   8.992  68.034  1.00  0.00    -0.186 C  
HETATM    2  S   UNL     1      -9.913   9.850  69.467  1.00  0.00    -0.235 SA 
HETATM    3  CG2 UNL     1      -8.913  11.024  68.555  1.00  0.00    -0.163 C  
HETATM    4  CB  UNL     1      -8.167  10.507  67.329  1.00  0.00    -0.119 C  
HETATM    5  O   UNL     1      -9.403   6.320  66.504  1.00  0.00    -0.147 OA 
HETATM    6  CA  UNL     1      -8.478   9.338  66.690  1.00  0.00    -0.126 C  
HETATM    7  N   UNL     1      -9.474   8.537  67.186  1.00  0.00    -0.153 N  
HETATM    8  CA  UNL     1     -10.902   7.475  68.260  1.00  0.00     0.008 C  
HETATM    9  C   UNL     1      -7.740   8.914  65.430  1.00  0.00    -0.092 C  
HETATM   10  C   UNL     1      -9.875   7.256  67.107  1.00  0.00    -0.185 C  
HETATM   11  OXT UNL     1      -7.223   9.704  64.654  1.00  0.00    -0.111 OA 
HETATM   12  O   UNL     1      -7.694   7.597  65.151  1.00  0.00    -0.095 OA 
ENDROOT
BRANCH   4  13
HETATM   13  CG1 UNL     1      -7.029  11.372  66.962  1.00  0.00    -0.135 C  
HETATM   14  CD1 UNL     1      -6.076  11.859  67.772  1.00  0.00    -0.067 C  
ENDBRANCH   4  13
BRANCH   8  15
HETATM   15  N   UNL     1     -10.494   6.828  69.551  1.00  0.00    -0.208 N  
HETATM   16  H   UNL     1      -9.515   6.582  69.702  1.00  0.00     0.000 HD 
HETATM   17  C   UNL     1     -11.423   6.562  70.533  1.00  0.00    -0.387 C  
HETATM   18  O   UNL     1     -12.623   6.740  70.376  1.00  0.00    -0.141 OA 
BRANCH  17  19
HETATM   19  C   UNL     1     -10.903   5.958  71.840  1.00  0.00    -0.254 C  
BRANCH  19  20
HETATM   20  C   UNL     1      -9.914   4.883  71.796  1.00  0.00    -0.190 A  
HETATM   21  N   UNL     1      -6.880   3.748  70.439  1.00  0.00    -0.033 NA 
HETATM   22  C   UNL     1      -9.976   3.712  72.529  1.00  0.00    -0.161 A  
HETATM   23  N   UNL     1      -8.788   4.982  70.977  1.00  0.00    -0.129 NA 
HETATM   24  C   UNL     1      -8.034   3.917  71.100  1.00  0.00    -0.063 A  
HETATM   25  S   UNL     1      -8.617   2.725  72.187  1.00  0.00    -0.067 SA 
HETATM   26  H2  UNL     1      -6.338   2.896  70.586  1.00  0.00     0.000 HD 
HETATM   27  H1  UNL     1      -6.534   4.457  69.792  1.00  0.00     0.000 HD 
ENDBRANCH  19  20
BRANCH  19  28
HETATM   28  N   UNL     1     -11.267   6.298  73.048  1.00  0.00    -0.431 NA 
HETATM   29  H   UNL     1     -12.247   6.375  73.317  1.00  0.00     0.000 HD 
BRANCH  28  30
HETATM   30  O   UNL     1     -10.229   6.549  73.949  1.00  0.00    -0.268 OA 
BRANCH  30  31
HETATM   31  C   UNL     1      -9.594   7.776  73.574  1.00  0.00    -0.270 C  
HETATM   32  O   UNL     1      -7.513   8.890  74.149  1.00  0.00    -0.414 OA 
HETATM   33  C   UNL     1      -8.092   7.856  73.837  1.00  0.00    -0.217 C  
HETATM   34  O   UNL     1      -7.428   6.696  73.625  1.00  0.00    -0.084 OA 
ENDBRANCH  30  31
ENDBRANCH  28  30
ENDBRANCH  19  28
ENDBRANCH  17  19
ENDBRANCH   8  15
TORSDOF 7
ENDMDL
MODEL      194
REMARK 921   NORMALIZED FREE ENERGY PREDICTED BY IDOCK:   -3.58 KCAL/MOL
REMARK 922        TOTAL FREE ENERGY PREDICTED BY IDOCK:   -6.39 KCAL/MOL
REMARK 923 INTER-LIGAND FREE ENERGY PREDICTED BY IDOCK:   -5.34 KCAL/MOL
REMARK 924 INTRA-LIGAND FREE ENERGY PREDICTED BY IDOCK:   -1.05 KCAL/MOL
REMARK 927      BINDING AFFINITY PREDICTED BY RF-SCORE:    0.00 PKD
ROOT
HETATM    1  C   UNL     1      -8.607   9.559  70.193  1.00  0.00    -0.224 C  
HETATM    2  S   UNL     1      -8.248   9.090  68.502  1.00  0.00    -0.112 SA 
HETATM    3  CG2 UNL     1      -8.893  10.580  67.744  1.00  0.00    -0.125 C  
HETATM    4  CB  UNL     1     -10.178  11.162  68.324  1.00  0.00    -0.197 C  
HETATM    5  O   UNL     1     -11.281   8.932  72.005  1.00  0.00    -0.353 OA 
HETATM    6  CA  UNL     1     -10.663  10.843  69.563  1.00  0.00    -0.206 C  
HETATM    7  N   UNL     1     -10.010   9.911  70.328  1.00  0.00    -0.247 N  
HETATM    8  CA  UNL     1      -8.905   8.366  71.170  1.00  0.00    -0.164 C  
HETATM    9  C   UNL     1     -11.914  11.512  70.111  1.00  0.00    -0.369 C  
HETATM   10  C   UNL     1     -10.265   9.100  71.370  1.00  0.00    -0.332 C  
HETATM   11  OXT UNL     1     -12.279  12.630  69.781  1.00  0.00    -0.244 OA 
HETATM   12  O   UNL     1     -12.626  10.836  71.034  1.00  0.00    -0.352 OA 
ENDROOT
BRANCH   4  13
HETATM   13  CG1 UNL     1     -10.874  12.044  67.367  1.00  0.00    -0.285 C  
HETATM   14  CD1 UNL     1     -11.356  11.721  66.157  1.00  0.00    -0.342 C  
ENDBRANCH   4  13
BRANCH   8  15
HETATM   15  N   UNL     1      -9.052   6.986  70.599  1.00  0.00    -0.158 N  
HETATM   16  H   UNL     1      -9.979   6.641  70.351  1.00  0.00     0.000 HD 
HETATM   17  C   UNL     1      -7.952   6.179  70.408  1.00  0.00    -0.108 C  
HETATM   18  O   UNL     1      -6.828   6.491  70.776  1.00  0.00    -0.059 OA 
BRANCH  17  19
HETATM   19  C   UNL     1      -8.193   4.811  69.763  1.00  0.00    -0.068 C  
BRANCH  19  20
HETATM   20  C   UNL     1      -8.514   4.730  68.339  1.00  0.00    -0.094 A  
HETATM   21  N   UNL     1      -7.416   3.792  65.138  1.00  0.00    -0.072 NA 
HETATM   22  C   UNL     1      -9.714   5.116  67.769  1.00  0.00    -0.148 A  
HETATM   23  N   UNL     1      -7.587   4.225  67.426  1.00  0.00    -0.076 NA 
HETATM   24  C   UNL     1      -8.083   4.234  66.213  1.00  0.00    -0.102 A  
HETATM   25  S   UNL     1      -9.678   4.850  66.076  1.00  0.00    -0.202 SA 
HETATM   26  H2  UNL     1      -7.864   3.821  64.222  1.00  0.00     0.000 HD 
HETATM   27  H1  UNL     1      -6.467   3.426  65.220  1.00  0.00     0.000 HD 
ENDBRANCH  19  20
BRANCH  19  28
HETATM   28  N   UNL     1      -8.157   3.653  70.368  1.00  0.00    -0.053 NA 
HETATM   29  H   UNL     1      -7.289   3.255  70.722  1.00  0.00     0.000 HD 
BRANCH  28  30
HETATM   30  O   UNL     1      -9.383   2.996  70.498  1.00  0.00    -0.128 OA 
BRANCH  30  31
HETATM   31  C   UNL     1     -10.029   3.479  71.680  1.00  0.00    -0.119 C  
HETATM   32  O   UNL     1     -11.117   2.453  73.596  1.00  0.00    -0.185 OA 
HETATM   33  C   UNL     1     -10.167   2.474  72.822  1.00  0.00    -0.155 C  
HETATM   34  O   UNL     1      -9.109   1.641  72.960  1.00  0.00    -0.062 OA 
ENDBRANCH  30  31
ENDBRANCH  28  30
ENDBRANCH  19  28
ENDBRANCH  17  19
ENDBRANCH   8  15
TORSDOF 7
ENDMDL
MODEL      195
REMARK 921   NORMALIZED FREE ENERGY PREDICTED BY IDOCK:   -3.53 KCAL/MOL
REMARK 922        TOTAL FREE ENERGY PREDICTED BY IDOCK:   -6.32 KCAL/MOL
REMARK 923 INTER-LIGAND FREE ENERGY PREDICTED BY IDOCK:   -5.22 KCAL/MOL
REMARK 924 INTRA-LIGAND FREE ENERGY PREDICTED BY IDOCK:   -1.11 KCAL/MOL
REMARK 927      BINDING AFFINITY PREDICTED BY RF-SCORE:    0.00 PKD
ROOT
HETATM    1  C   UNL     1     -11.010   8.704  67.734  1.00  0.00     0.150 C  
HETATM    2  S   UNL     1     -10.819   9.518  69.319  1.00  0.00    -0.148 SA 
HETATM    3  CG2 UNL     1     -11.353  11.138  68.772  1.00  0.00    -0.277 C  
HETATM    4  CB  UNL     1     -10.887  11.603  67.395  1.00  0.00    -0.298 C  
HETATM    5  O   UNL     1      -8.798   8.265  65.339  1.00  0.00    -0.157 OA 
HETATM    6  CA  UNL     1     -10.406  10.757  66.434  1.00  0.00    -0.248 C  
HETATM    7  N   UNL     1     -10.270   9.421  66.710  1.00  0.00    -0.250 N  
HETATM    8  CA  UNL     1     -10.030   7.504  67.476  1.00  0.00    -0.174 C  
HETATM    9  C   UNL     1     -10.024  11.274  65.055  1.00  0.00    -0.274 C  
HETATM   10  C   UNL     1      -9.592   8.356  66.246  1.00  0.00    -0.216 C  
HETATM   11  OXT UNL     1     -10.525  12.266  64.546  1.00  0.00    -0.280 OA 
HETATM   12  O   UNL     1      -9.109  10.571  64.360  1.00  0.00    -0.196 OA 
ENDROOT
BRANCH   4  13
HETATM   13  CG1 UNL     1     -10.945  13.070  67.252  1.00  0.00    -0.288 C  
HETATM   14  CD1 UNL     1     -12.035  13.853  67.278  1.00  0.00    -0.446 C  
ENDBRANCH   4  13
BRANCH   8  15
HETATM   15  N   UNL     1      -8.919   7.256  68.453  1.00  0.00    -0.127 N  
HETATM   16  H   UNL     1      -8.107   7.873  68.459  1.00  0.00     0.000 HD 
HETATM   17  C   UNL     1      -8.982   6.205  69.343  1.00  0.00    -0.128 C  
HETATM   18  O   UNL     1      -9.876   5.371  69.322  1.00  0.00    -0.152 OA 
BRANCH  17  19
HETATM   19  C   UNL     1      -7.831   6.069  70.343  1.00  0.00    -0.106 C  
BRANCH  19  20
HETATM   20  C   UNL     1      -6.935   4.917  70.262  1.00  0.00    -0.048 A  
HETATM   21  N   UNL     1      -5.957   1.862  71.691  1.00  0.00    -0.013 NA 
HETATM   22  C   UNL     1      -5.986   4.713  69.277  1.00  0.00    -0.018 A  
HETATM   23  N   UNL     1      -6.992   3.900  71.217  1.00  0.00    -0.031 NA 
HETATM   24  C   UNL     1      -6.113   2.966  70.948  1.00  0.00    -0.018 A  
HETATM   25  S   UNL     1      -5.156   3.238  69.551  1.00  0.00    -0.008 SA 
HETATM   26  H2  UNL     1      -5.257   1.170  71.421  1.00  0.00     0.000 HD 
HETATM   27  H1  UNL     1      -6.526   1.700  72.522  1.00  0.00     0.000 HD 
ENDBRANCH  19  20
BRANCH  19  28
HETATM   28  N   UNL     1      -7.549   6.895  71.316  1.00  0.00    -0.086 NA 
HETATM   29  H   UNL     1      -6.804   7.587  71.240  1.00  0.00     0.000 HD 
BRANCH  28  30
HETATM   30  O   UNL     1      -8.332   6.771  72.466  1.00  0.00    -0.112 OA 
BRANCH  30  31
HETATM   31  C   UNL     1      -9.120   7.958  72.604  1.00  0.00    -0.197 C  
HETATM   32  O   UNL     1     -11.499   8.459  72.616  1.00  0.00    -0.380 OA 
HETATM   33  C   UNL     1     -10.580   7.745  73.000  1.00  0.00    -0.379 C  
HETATM   34  O   UNL     1     -10.775   6.735  73.881  1.00  0.00    -0.310 OA 
ENDBRANCH  30  31
ENDBRANCH  28  30
ENDBRANCH  19  28
ENDBRANCH  17  19
ENDBRANCH   8  15
TORSDOF 7
ENDMDL
MODEL      196
REMARK 921   NORMALIZED FREE ENERGY PREDICTED BY IDOCK:   -3.51 KCAL/MOL
REMARK 922        TOTAL FREE ENERGY PREDICTED BY IDOCK:   -6.30 KCAL/MOL
REMARK 923 INTER-LIGAND FREE ENERGY PREDICTED BY IDOCK:   -4.87 KCAL/MOL
REMARK 924 INTRA-LIGAND FREE ENERGY PREDICTED BY IDOCK:   -1.43 KCAL/MOL
REMARK 927      BINDING AFFINITY PREDICTED BY RF-SCORE:    0.00 PKD
ROOT
HETATM    1  C   UNL     1     -11.190   6.458  68.610  1.00  0.00    -0.248 C  
HETATM    2  S   UNL     1     -10.261   5.271  69.578  1.00  0.00    -0.260 SA 
HETATM    3  CG2 UNL     1     -10.800   5.861  71.182  1.00  0.00    -0.269 C  
HETATM    4  CB  UNL     1     -10.915   7.371  71.371  1.00  0.00    -0.258 C  
HETATM    5  O   UNL     1     -10.260   9.403  67.475  1.00  0.00    -0.200 OA 
HETATM    6  CA  UNL     1     -10.978   8.262  70.335  1.00  0.00    -0.239 C  
HETATM    7  N   UNL     1     -10.881   7.810  69.044  1.00  0.00    -0.094 N  
HETATM    8  CA  UNL     1     -10.546   6.849  67.233  1.00  0.00    -0.322 C  
HETATM    9  C   UNL     1     -11.163   9.750  70.591  1.00  0.00    -0.334 C  
HETATM   10  C   UNL     1     -10.581   8.290  67.824  1.00  0.00    -0.168 C  
HETATM   11  OXT UNL     1     -11.724  10.198  71.580  1.00  0.00    -0.343 OA 
HETATM   12  O   UNL     1     -10.709  10.602  69.652  1.00  0.00    -0.243 OA 
ENDROOT
BRANCH   4  13
HETATM   13  CG1 UNL     1     -10.871   7.760  72.794  1.00  0.00    -0.438 C  
HETATM   14  CD1 UNL     1     -10.211   7.150  73.790  1.00  0.00    -0.395 C  
ENDBRANCH   4  13
BRANCH   8  15
HETATM   15  N   UNL     1      -9.158   6.368  66.922  1.00  0.00    -0.129 N  
HETATM   16  H   UNL     1      -8.355   6.889  67.274  1.00  0.00     0.000 HD 
HETATM   17  C   UNL     1      -8.956   5.232  66.168  1.00  0.00    -0.139 C  
HETATM   18  O   UNL     1      -9.870   4.620  65.634  1.00  0.00    -0.181 OA 
BRANCH  17  19
HETATM   19  C   UNL     1      -7.507   4.784  65.956  1.00  0.00    -0.078 C  
BRANCH  19  20
HETATM   20  C   UNL     1      -7.118   4.172  64.688  1.00  0.00    -0.058 A  
HETATM   21  N   UNL     1      -7.568   1.483  62.474  1.00  0.00    -0.040 NA 
HETATM   22  C   UNL     1      -6.206   4.702  63.794  1.00  0.00    -0.022 A  
HETATM   23  N   UNL     1      -7.677   2.960  64.279  1.00  0.00    -0.076 NA 
HETATM   24  C   UNL     1      -7.196   2.600  63.114  1.00  0.00    -0.047 A  
HETATM   25  S   UNL     1      -6.044   3.671  62.433  1.00  0.00    -0.014 SA 
HETATM   26  H2  UNL     1      -7.159   1.265  61.566  1.00  0.00     0.000 HD 
HETATM   27  H1  UNL     1      -8.253   0.845  62.880  1.00  0.00     0.000 HD 
ENDBRANCH  19  20
BRANCH  19  28
HETATM   28  N   UNL     1      -6.534   4.879  66.823  1.00  0.00    -0.040 NA 
HETATM   29  H   UNL     1      -5.916   4.095  67.031  1.00  0.00     0.000 HD 
BRANCH  28  30
HETATM   30  O   UNL     1      -6.392   6.120  67.447  1.00  0.00    -0.034 OA 
BRANCH  30  31
HETATM   31  C   UNL     1      -6.127   5.898  68.836  1.00  0.00    -0.028 C  
HETATM   32  O   UNL     1      -5.846   7.317  70.789  1.00  0.00    -0.030 OA 
HETATM   33  C   UNL     1      -6.479   7.051  69.774  1.00  0.00    -0.043 C  
HETATM   34  O   UNL     1      -7.604   7.722  69.432  1.00  0.00    -0.095 OA 
ENDBRANCH  30  31
ENDBRANCH  28  30
ENDBRANCH  19  28
ENDBRANCH  17  19
ENDBRANCH   8  15
TORSDOF 7
ENDMDL
MODEL      197
REMARK 921   NORMALIZED FREE ENERGY PREDICTED BY IDOCK:   -3.50 KCAL/MOL
REMARK 922        TOTAL FREE ENERGY PREDICTED BY IDOCK:   -6.29 KCAL/MOL
REMARK 923 INTER-LIGAND FREE ENERGY PREDICTED BY IDOCK:   -5.53 KCAL/MOL
REMARK 924 INTRA-LIGAND FREE ENERGY PREDICTED BY IDOCK:   -0.76 KCAL/MOL
REMARK 927      BINDING AFFINITY PREDICTED BY RF-SCORE:    0.00 PKD
ROOT
HETATM    1  C   UNL     1      -9.398  18.693  66.651  1.00  0.00    -0.315 C  
HETATM    2  S   UNL     1     -10.092  18.172  68.219  1.00  0.00    -0.401 SA 
HETATM    3  CG2 UNL     1      -9.287  19.425  69.215  1.00  0.00    -0.116 C  
HETATM    4  CB  UNL     1      -7.839  19.768  68.875  1.00  0.00    -0.230 C  
HETATM    5  O   UNL     1      -6.660  17.669  65.142  1.00  0.00     0.031 OA 
HETATM    6  CA  UNL     1      -7.247  19.458  67.681  1.00  0.00    -0.233 C  
HETATM    7  N   UNL     1      -7.949  18.752  66.739  1.00  0.00    -0.247 N  
HETATM    8  CA  UNL     1      -9.199  17.549  65.594  1.00  0.00     0.488 C  
HETATM    9  C   UNL     1      -5.821  19.891  67.378  1.00  0.00    -0.179 C  
HETATM   10  C   UNL     1      -7.706  17.994  65.654  1.00  0.00     0.205 C  
HETATM   11  OXT UNL     1      -5.297  20.876  67.876  1.00  0.00    -0.222 OA 
HETATM   12  O   UNL     1      -5.127  19.159  66.485  1.00  0.00    -0.147 OA 
ENDROOT
BRANCH   4  13
HETATM   13  CG1 UNL     1      -7.135  20.401  70.007  1.00  0.00     0.440 C  
HETATM   14  CD1 UNL     1      -6.102  19.908  70.708  1.00  0.00    -0.280 C  
ENDBRANCH   4  13
BRANCH   8  15
HETATM   15  N   UNL     1      -9.413  16.127  66.021  1.00  0.00    -0.327 N  
HETATM   16  H   UNL     1      -8.625  15.583  66.373  1.00  0.00     0.000 HD 
HETATM   17  C   UNL     1     -10.660  15.545  65.943  1.00  0.00    -0.339 C  
HETATM   18  O   UNL     1     -11.623  16.106  65.438  1.00  0.00     0.198 OA 
BRANCH  17  19
HETATM   19  C   UNL     1     -10.794  14.110  66.459  1.00  0.00    -0.298 C  
BRANCH  19  20
HETATM   20  C   UNL     1     -11.153  13.875  67.856  1.00  0.00    -0.258 A  
HETATM   21  N   UNL     1     -11.941  11.497  70.317  1.00  0.00    -0.355 NA 
HETATM   22  C   UNL     1     -11.286  14.857  68.821  1.00  0.00    -0.287 A  
HETATM   23  N   UNL     1     -11.387  12.581  68.325  1.00  0.00    -0.263 NA 
HETATM   24  C   UNL     1     -11.683  12.601  69.601  1.00  0.00    -0.303 A  
HETATM   25  S   UNL     1     -11.712  14.154  70.326  1.00  0.00    -0.223 SA 
HETATM   26  H2  UNL     1     -12.159  11.582  71.310  1.00  0.00     0.000 HD 
HETATM   27  H1  UNL     1     -11.925  10.572  69.886  1.00  0.00     0.000 HD 
ENDBRANCH  19  20
BRANCH  19  28
HETATM   28  N   UNL     1     -10.603  13.018  65.767  1.00  0.00    -0.273 NA 
HETATM   29  H   UNL     1     -10.850  12.098  66.129  1.00  0.00     0.000 HD 
BRANCH  28  30
HETATM   30  O   UNL     1     -10.041  13.190  64.500  1.00  0.00    -0.321 OA 
BRANCH  30  31
HETATM   31  C   UNL     1     -10.507  12.134  63.653  1.00  0.00    -0.460 C  
HETATM   32  O   UNL     1      -9.636   9.980  62.941  1.00  0.00    -0.267 OA 
HETATM   33  C   UNL     1      -9.835  10.777  63.851  1.00  0.00    -0.332 C  
HETATM   34  O   UNL     1      -9.536  10.486  65.139  1.00  0.00    -0.217 OA 
ENDBRANCH  30  31
ENDBRANCH  28  30
ENDBRANCH  19  28
ENDBRANCH  17  19
ENDBRANCH   8  15
TORSDOF 7
ENDMDL
MODEL      198
REMARK 921   NORMALIZED FREE ENERGY PREDICTED BY IDOCK:   -3.48 KCAL/MOL
REMARK 922        TOTAL FREE ENERGY PREDICTED BY IDOCK:   -6.25 KCAL/MOL
REMARK 923 INTER-LIGAND FREE ENERGY PREDICTED BY IDOCK:   -5.44 KCAL/MOL
REMARK 924 INTRA-LIGAND FREE ENERGY PREDICTED BY IDOCK:   -0.81 KCAL/MOL
REMARK 927      BINDING AFFINITY PREDICTED BY RF-SCORE:    0.00 PKD
ROOT
HETATM    1  C   UNL     1      -6.429  14.891  67.155  1.00  0.00     0.459 C  
HETATM    2  S   UNL     1      -7.934  15.602  66.491  1.00  0.00     0.096 SA 
HETATM    3  CG2 UNL     1      -7.609  17.281  67.026  1.00  0.00    -0.197 C  
HETATM    4  CB  UNL     1      -6.989  17.470  68.407  1.00  0.00    -0.211 C  
HETATM    5  O   UNL     1      -5.898  13.507  70.092  1.00  0.00    -0.127 OA 
HETATM    6  CA  UNL     1      -6.355  16.472  69.096  1.00  0.00    -0.185 C  
HETATM    7  N   UNL     1      -6.305  15.208  68.567  1.00  0.00    -0.088 N  
HETATM    8  CA  UNL     1      -6.536  13.387  67.593  1.00  0.00    -0.162 C  
HETATM    9  C   UNL     1      -5.696  16.744  70.439  1.00  0.00    -0.115 C  
HETATM   10  C   UNL     1      -6.107  13.945  68.984  1.00  0.00    -0.089 C  
HETATM   11  OXT UNL     1      -5.259  17.838  70.765  1.00  0.00    -0.260 OA 
HETATM   12  O   UNL     1      -5.564  15.706  71.287  1.00  0.00     0.036 OA 
ENDROOT
BRANCH   4  13
HETATM   13  CG1 UNL     1      -7.219  18.826  68.942  1.00  0.00    -0.333 C  
HETATM   14  CD1 UNL     1      -6.483  19.927  68.727  1.00  0.00    -0.339 C  
ENDBRANCH   4  13
BRANCH   8  15
HETATM   15  N   UNL     1      -7.886  12.733  67.606  1.00  0.00    -0.152 N  
HETATM   16  H   UNL     1      -8.629  13.124  68.186  1.00  0.00     0.000 HD 
HETATM   17  C   UNL     1      -8.136  11.612  66.845  1.00  0.00    -0.164 C  
HETATM   18  O   UNL     1      -7.265  11.036  66.207  1.00  0.00    -0.138 OA 
BRANCH  17  19
HETATM   19  C   UNL     1      -9.561  11.052  66.874  1.00  0.00    -0.182 C  
BRANCH  19  20
HETATM   20  C   UNL     1     -10.587  11.642  66.017  1.00  0.00    -0.258 A  
HETATM   21  N   UNL     1     -12.123  11.638  62.859  1.00  0.00    -0.796 NA 
HETATM   22  C   UNL     1     -11.467  12.639  66.398  1.00  0.00    -0.356 A  
HETATM   23  N   UNL     1     -10.755  11.207  64.701  1.00  0.00    -0.312 NA 
HETATM   24  C   UNL     1     -11.732  11.861  64.122  1.00  0.00    -0.340 A  
HETATM   25  S   UNL     1     -12.509  13.039  65.096  1.00  0.00    -0.469 SA 
HETATM   26  H2  UNL     1     -12.896  12.179  62.470  1.00  0.00     0.000 HD 
HETATM   27  H1  UNL     1     -11.661  10.938  62.279  1.00  0.00     0.000 HD 
ENDBRANCH  19  20
BRANCH  19  28
HETATM   28  N   UNL     1      -9.991  10.069  67.621  1.00  0.00    -0.169 NA 
HETATM   29  H   UNL     1     -10.639  10.220  68.393  1.00  0.00     0.000 HD 
BRANCH  28  30
HETATM   30  O   UNL     1      -9.507   8.800  67.295  1.00  0.00    -0.149 OA 
BRANCH  30  31
HETATM   31  C   UNL     1      -9.233   8.097  68.512  1.00  0.00    -0.136 C  
HETATM   32  O   UNL     1      -8.084   6.036  69.094  1.00  0.00    -0.108 OA 
HETATM   33  C   UNL     1      -8.096   7.079  68.451  1.00  0.00    -0.124 C  
HETATM   34  O   UNL     1      -7.052   7.457  67.675  1.00  0.00    -0.079 OA 
ENDBRANCH  30  31
ENDBRANCH  28  30
ENDBRANCH  19  28
ENDBRANCH  17  19
ENDBRANCH   8  15
TORSDOF 7
ENDMDL
MODEL      199
REMARK 921   NORMALIZED FREE ENERGY PREDICTED BY IDOCK:   -3.47 KCAL/MOL
REMARK 922        TOTAL FREE ENERGY PREDICTED BY IDOCK:   -6.24 KCAL/MOL
REMARK 923 INTER-LIGAND FREE ENERGY PREDICTED BY IDOCK:   -6.88 KCAL/MOL
REMARK 924 INTRA-LIGAND FREE ENERGY PREDICTED BY IDOCK:    0.64 KCAL/MOL
REMARK 927      BINDING AFFINITY PREDICTED BY RF-SCORE:    0.00 PKD
ROOT
HETATM    1  C   UNL     1      -7.104   8.821  67.406  1.00  0.00    -0.079 C  
HETATM    2  S   UNL     1      -7.601   7.302  68.215  1.00  0.00    -0.121 SA 
HETATM    3  CG2 UNL     1      -7.425   6.247  66.776  1.00  0.00    -0.087 C  
HETATM    4  CB  UNL     1      -7.881   6.811  65.434  1.00  0.00    -0.115 C  
HETATM    5  O   UNL     1      -8.961  11.093  65.918  1.00  0.00    -0.194 OA 
HETATM    6  CA  UNL     1      -8.075   8.144  65.198  1.00  0.00    -0.139 C  
HETATM    7  N   UNL     1      -7.912   9.045  66.220  1.00  0.00    -0.102 N  
HETATM    8  CA  UNL     1      -7.751  10.130  67.984  1.00  0.00    -0.089 C  
HETATM    9  C   UNL     1      -8.462   8.648  63.816  1.00  0.00    -0.055 C  
HETATM   10  C   UNL     1      -8.282  10.301  66.529  1.00  0.00    -0.127 C  
HETATM   11  OXT UNL     1      -8.170   8.066  62.782  1.00  0.00    -0.167 OA 
HETATM   12  O   UNL     1      -9.129   9.816  63.746  1.00  0.00    -0.243 OA 
ENDROOT
BRANCH   4  13
HETATM   13  CG1 UNL     1      -8.160   5.749  64.448  1.00  0.00    -0.133 C  
HETATM   14  CD1 UNL     1      -9.036   4.738  64.559  1.00  0.00    -0.128 C  
ENDBRANCH   4  13
BRANCH   8  15
HETATM   15  N   UNL     1      -8.843  10.005  69.006  1.00  0.00    -0.149 N  
HETATM   16  H   UNL     1      -8.605   9.990  69.998  1.00  0.00     0.000 HD 
HETATM   17  C   UNL     1     -10.163   9.910  68.621  1.00  0.00    -0.178 C  
HETATM   18  O   UNL     1     -10.508   9.821  67.451  1.00  0.00    -0.227 OA 
BRANCH  17  19
HETATM   19  C   UNL     1     -11.212   9.849  69.735  1.00  0.00    -0.235 C  
BRANCH  19  20
HETATM   20  C   UNL     1     -11.797  11.087  70.245  1.00  0.00    -0.367 A  
HETATM   21  N   UNL     1     -13.709  12.599  72.773  1.00  0.00    -0.654 NA 
HETATM   22  C   UNL     1     -11.666  12.332  69.656  1.00  0.00    -0.316 A  
HETATM   23  N   UNL     1     -12.554  11.089  71.418  1.00  0.00    -0.399 NA 
HETATM   24  C   UNL     1     -12.971  12.300  71.694  1.00  0.00    -0.311 A  
HETATM   25  S   UNL     1     -12.502  13.513  70.577  1.00  0.00    -0.262 SA 
HETATM   26  H2  UNL     1     -13.996  13.565  72.933  1.00  0.00     0.000 HD 
HETATM   27  H1  UNL     1     -13.989  11.878  73.438  1.00  0.00     0.000 HD 
ENDBRANCH  19  20
BRANCH  19  28
HETATM   28  N   UNL     1     -11.656   8.769  70.321  1.00  0.00    -0.462 NA 
HETATM   29  H   UNL     1     -12.529   8.760  70.848  1.00  0.00     0.000 HD 
BRANCH  28  30
HETATM   30  O   UNL     1     -10.863   7.629  70.179  1.00  0.00    -0.244 OA 
BRANCH  30  31
HETATM   31  C   UNL     1     -11.576   6.513  70.724  1.00  0.00    -0.377 C  
HETATM   32  O   UNL     1     -11.479   5.247  72.796  1.00  0.00    -0.290 OA 
HETATM   33  C   UNL     1     -11.482   6.339  72.238  1.00  0.00    -0.306 C  
HETATM   34  O   UNL     1     -11.474   7.501  72.933  1.00  0.00    -0.328 OA 
ENDBRANCH  30  31
ENDBRANCH  28  30
ENDBRANCH  19  28
ENDBRANCH  17  19
ENDBRANCH   8  15
TORSDOF 7
ENDMDL
MODEL      200
REMARK 921   NORMALIZED FREE ENERGY PREDICTED BY IDOCK:   -3.45 KCAL/MOL
REMARK 922        TOTAL FREE ENERGY PREDICTED BY IDOCK:   -6.21 KCAL/MOL
REMARK 923 INTER-LIGAND FREE ENERGY PREDICTED BY IDOCK:   -4.84 KCAL/MOL
REMARK 924 INTRA-LIGAND FREE ENERGY PREDICTED BY IDOCK:   -1.37 KCAL/MOL
REMARK 927      BINDING AFFINITY PREDICTED BY RF-SCORE:    0.00 PKD
ROOT
HETATM    1  C   UNL     1      -9.905   7.708  72.325  1.00  0.00    -0.177 C  
HETATM    2  S   UNL     1     -11.459   7.046  71.728  1.00  0.00    -0.281 SA 
HETATM    3  CG2 UNL     1     -11.608   5.754  72.959  1.00  0.00    -0.072 C  
HETATM    4  CB  UNL     1     -10.336   5.006  73.349  1.00  0.00    -0.243 C  
HETATM    5  O   UNL     1      -6.834   6.946  71.423  1.00  0.00    -0.059 OA 
HETATM    6  CA  UNL     1      -9.075   5.475  73.099  1.00  0.00    -0.126 C  
HETATM    7  N   UNL     1      -8.912   6.651  72.413  1.00  0.00    -0.136 N  
HETATM    8  CA  UNL     1      -8.987   8.356  71.228  1.00  0.00    -0.178 C  
HETATM    9  C   UNL     1      -7.848   4.714  73.576  1.00  0.00    -0.095 C  
HETATM   10  C   UNL     1      -7.960   7.284  71.704  1.00  0.00    -0.096 C  
HETATM   11  OXT UNL     1      -7.849   3.980  74.553  1.00  0.00    -0.083 OA 
HETATM   12  O   UNL     1      -6.700   4.899  72.896  1.00  0.00    -0.063 OA 
ENDROOT
BRANCH   4  13
HETATM   13  CG1 UNL     1     -10.624   3.691  73.954  1.00  0.00    -0.286 C  
HETATM   14  CD1 UNL     1     -11.234   2.642  73.381  1.00  0.00    -0.267 C  
ENDBRANCH   4  13
BRANCH   8  15
HETATM   15  N   UNL     1      -9.374   8.209  69.785  1.00  0.00    -0.159 N  
HETATM   16  H   UNL     1     -10.305   7.868  69.546  1.00  0.00     0.000 HD 
HETATM   17  C   UNL     1      -8.487   8.529  68.780  1.00  0.00    -0.123 C  
HETATM   18  O   UNL     1      -7.325   8.845  68.996  1.00  0.00    -0.071 OA 
BRANCH  17  19
HETATM   19  C   UNL     1      -8.991   8.406  67.339  1.00  0.00    -0.134 C  
BRANCH  19  20
HETATM   20  C   UNL     1      -8.519   7.308  66.499  1.00  0.00    -0.125 A  
HETATM   21  N   UNL     1      -8.138   6.075  63.232  1.00  0.00    -0.195 NA 
HETATM   22  C   UNL     1      -7.912   6.155  66.961  1.00  0.00    -0.102 A  
HETATM   23  N   UNL     1      -8.653   7.364  65.110  1.00  0.00    -0.019 NA 
HETATM   24  C   UNL     1      -8.157   6.284  64.556  1.00  0.00    -0.102 A  
HETATM   25  S   UNL     1      -7.509   5.130  65.646  1.00  0.00    -0.082 SA 
HETATM   26  H2  UNL     1      -7.730   5.215  62.866  1.00  0.00     0.000 HD 
HETATM   27  H1  UNL     1      -8.524   6.761  62.584  1.00  0.00     0.000 HD 
ENDBRANCH  19  20
BRANCH  19  28
HETATM   28  N   UNL     1      -9.825   9.215  66.740  1.00  0.00    -0.205 NA 
HETATM   29  H   UNL     1     -10.667   8.877  66.275  1.00  0.00     0.000 HD 
BRANCH  28  30
HETATM   30  O   UNL     1      -9.492  10.571  66.778  1.00  0.00    -0.158 OA 
BRANCH  30  31
HETATM   31  C   UNL     1     -10.687  11.322  67.014  1.00  0.00    -0.260 C  
HETATM   32  O   UNL     1     -12.506  11.212  68.622  1.00  0.00    -0.463 OA 
HETATM   33  C   UNL     1     -11.301  11.176  68.405  1.00  0.00    -0.288 C  
HETATM   34  O   UNL     1     -10.394  11.075  69.405  1.00  0.00    -0.196 OA 
ENDBRANCH  30  31
ENDBRANCH  28  30
ENDBRANCH  19  28
ENDBRANCH  17  19
ENDBRANCH   8  15
TORSDOF 7
ENDMDL
MODEL      201
REMARK 921   NORMALIZED FREE ENERGY PREDICTED BY IDOCK:   -3.42 KCAL/MOL
REMARK 922        TOTAL FREE ENERGY PREDICTED BY IDOCK:   -6.17 KCAL/MOL
REMARK 923 INTER-LIGAND FREE ENERGY PREDICTED BY IDOCK:   -5.22 KCAL/MOL
REMARK 924 INTRA-LIGAND FREE ENERGY PREDICTED BY IDOCK:   -0.95 KCAL/MOL
REMARK 927      BINDING AFFINITY PREDICTED BY RF-SCORE:    0.00 PKD
ROOT
HETATM    1  C   UNL     1      -8.238   8.591  70.637  1.00  0.00    -0.123 C  
HETATM    2  S   UNL     1      -9.504   9.278  71.703  1.00  0.00     0.310 SA 
HETATM    3  CG2 UNL     1     -10.181   7.708  72.240  1.00  0.00    -0.216 C  
HETATM    4  CB  UNL     1     -10.305   6.604  71.194  1.00  0.00    -0.232 C  
HETATM    5  O   UNL     1      -8.366   7.917  67.419  1.00  0.00    -0.121 OA 
HETATM    6  CA  UNL     1      -9.630   6.607  70.004  1.00  0.00    -0.156 C  
HETATM    7  N   UNL     1      -8.833   7.674  69.679  1.00  0.00    -0.140 N  
HETATM    8  CA  UNL     1      -7.845   9.482  69.405  1.00  0.00    -0.097 C  
HETATM    9  C   UNL     1      -9.744   5.441  69.035  1.00  0.00    -0.152 C  
HETATM   10  C   UNL     1      -8.288   8.233  68.583  1.00  0.00    -0.125 C  
HETATM   11  OXT UNL     1      -9.993   4.297  69.386  1.00  0.00    -0.183 OA 
HETATM   12  O   UNL     1      -9.521   5.693  67.731  1.00  0.00    -0.112 OA 
ENDROOT
BRANCH   4  13
HETATM   13  CG1 UNL     1     -11.291   5.577  71.582  1.00  0.00    -0.063 C  
HETATM   14  CD1 UNL     1     -11.472   5.032  72.795  1.00  0.00    -0.243 C  
ENDBRANCH   4  13
BRANCH   8  15
HETATM   15  N   UNL     1      -8.660  10.707  69.110  1.00  0.00    -0.262 N  
HETATM   16  H   UNL     1      -9.619  10.767  69.453  1.00  0.00     0.000 HD 
HETATM   17  C   UNL     1      -8.129  11.751  68.383  1.00  0.00    -0.150 C  
HETATM   18  O   UNL     1      -7.025  11.701  67.860  1.00  0.00    -0.072 OA 
BRANCH  17  19
HETATM   19  C   UNL     1      -9.015  12.985  68.187  1.00  0.00    -0.198 C  
BRANCH  19  20
HETATM   20  C   UNL     1      -8.408  14.313  68.161  1.00  0.00    -0.162 A  
HETATM   21  N   UNL     1      -6.017  16.413  66.674  1.00  0.00    -0.267 NA 
HETATM   22  C   UNL     1      -8.776  15.374  68.968  1.00  0.00    -0.231 A  
HETATM   23  N   UNL     1      -7.373  14.609  67.271  1.00  0.00    -0.162 NA 
HETATM   24  C   UNL     1      -6.987  15.853  67.411  1.00  0.00    -0.200 A  
HETATM   25  S   UNL     1      -7.817  16.750  68.613  1.00  0.00    -0.250 SA 
HETATM   26  H2  UNL     1      -5.769  17.390  66.830  1.00  0.00     0.000 HD 
HETATM   27  H1  UNL     1      -5.523  15.879  65.959  1.00  0.00     0.000 HD 
ENDBRANCH  19  20
BRANCH  19  28
HETATM   28  N   UNL     1     -10.314  12.990  68.045  1.00  0.00    -0.228 NA 
HETATM   29  H   UNL     1     -10.759  13.093  67.133  1.00  0.00     0.000 HD 
BRANCH  28  30
HETATM   30  O   UNL     1     -11.055  12.846  69.220  1.00  0.00    -0.218 OA 
BRANCH  30  31
HETATM   31  C   UNL     1     -12.057  13.868  69.248  1.00  0.00    -0.339 C  
HETATM   32  O   UNL     1     -13.462  14.863  70.964  1.00  0.00    -0.387 OA 
HETATM   33  C   UNL     1     -12.352  14.473  70.619  1.00  0.00    -0.339 C  
HETATM   34  O   UNL     1     -11.262  14.616  71.410  1.00  0.00    -0.105 OA 
ENDBRANCH  30  31
ENDBRANCH  28  30
ENDBRANCH  19  28
ENDBRANCH  17  19
ENDBRANCH   8  15
TORSDOF 7
ENDMDL
MODEL      202
REMARK 921   NORMALIZED FREE ENERGY PREDICTED BY IDOCK:   -3.39 KCAL/MOL
REMARK 922        TOTAL FREE ENERGY PREDICTED BY IDOCK:   -6.13 KCAL/MOL
REMARK 923 INTER-LIGAND FREE ENERGY PREDICTED BY IDOCK:   -4.77 KCAL/MOL
REMARK 924 INTRA-LIGAND FREE ENERGY PREDICTED BY IDOCK:   -1.36 KCAL/MOL
REMARK 927      BINDING AFFINITY PREDICTED BY RF-SCORE:    0.00 PKD
ROOT
HETATM    1  C   UNL     1      -9.006   7.540  67.594  1.00  0.00    -0.127 C  
HETATM    2  S   UNL     1     -10.534   8.259  68.194  1.00  0.00    -0.127 SA 
HETATM    3  CG2 UNL     1     -10.503   9.700  67.131  1.00  0.00    -0.249 C  
HETATM    4  CB  UNL     1      -9.154  10.374  66.901  1.00  0.00    -0.159 C  
HETATM    5  O   UNL     1      -5.942   7.912  68.734  1.00  0.00    -0.033 OA 
HETATM    6  CA  UNL     1      -7.952   9.769  67.151  1.00  0.00    -0.102 C  
HETATM    7  N   UNL     1      -7.926   8.508  67.689  1.00  0.00    -0.106 N  
HETATM    8  CA  UNL     1      -8.212   6.685  68.644  1.00  0.00    -0.119 C  
HETATM    9  C   UNL     1      -6.641  10.471  66.835  1.00  0.00    -0.081 C  
HETATM   10  C   UNL     1      -7.074   7.711  68.358  1.00  0.00    -0.081 C  
HETATM   11  OXT UNL     1      -6.524  11.316  65.960  1.00  0.00    -0.053 OA 
HETATM   12  O   UNL     1      -5.554  10.104  67.541  1.00  0.00    -0.045 OA 
ENDROOT
BRANCH   4  13
HETATM   13  CG1 UNL     1      -9.297  11.773  66.454  1.00  0.00    -0.229 C  
HETATM   14  CD1 UNL     1     -10.062  12.240  65.456  1.00  0.00    -0.279 C  
ENDBRANCH   4  13
BRANCH   8  15
HETATM   15  N   UNL     1      -8.670   6.688  70.073  1.00  0.00    -0.140 N  
HETATM   16  H   UNL     1      -8.911   7.572  70.522  1.00  0.00     0.000 HD 
HETATM   17  C   UNL     1      -8.768   5.513  70.787  1.00  0.00    -0.130 C  
HETATM   18  O   UNL     1      -8.400   4.435  70.342  1.00  0.00    -0.072 OA 
BRANCH  17  19
HETATM   19  C   UNL     1      -9.304   5.608  72.218  1.00  0.00    -0.145 C  
BRANCH  19  20
HETATM   20  C   UNL     1      -9.556   4.386  72.979  1.00  0.00    -0.129 A  
HETATM   21  N   UNL     1     -11.770   1.735  73.613  1.00  0.00    -0.210 NA 
HETATM   22  C   UNL     1      -8.686   3.825  73.896  1.00  0.00    -0.089 A  
HETATM   23  N   UNL     1     -10.744   3.673  72.811  1.00  0.00    -0.105 NA 
HETATM   24  C   UNL     1     -10.756   2.612  73.580  1.00  0.00    -0.181 A  
HETATM   25  S   UNL     1      -9.364   2.396  74.557  1.00  0.00    -0.084 SA 
HETATM   26  H2  UNL     1     -11.712   0.925  74.231  1.00  0.00     0.000 HD 
HETATM   27  H1  UNL     1     -12.598   1.864  73.033  1.00  0.00     0.000 HD 
ENDBRANCH  19  20
BRANCH  19  28
HETATM   28  N   UNL     1      -9.588   6.707  72.866  1.00  0.00    -0.148 NA 
HETATM   29  H   UNL     1      -9.577   6.754  73.884  1.00  0.00     0.000 HD 
BRANCH  28  30
HETATM   30  O   UNL     1      -9.909   7.814  72.076  1.00  0.00    -0.162 OA 
BRANCH  30  31
HETATM   31  C   UNL     1     -11.185   8.310  72.494  1.00  0.00    -0.376 C  
HETATM   32  O   UNL     1     -13.305   8.767  71.395  1.00  0.00    -0.319 OA 
HETATM   33  C   UNL     1     -12.355   8.010  71.559  1.00  0.00    -0.308 C  
HETATM   34  O   UNL     1     -12.298   6.792  70.970  1.00  0.00    -0.378 OA 
ENDBRANCH  30  31
ENDBRANCH  28  30
ENDBRANCH  19  28
ENDBRANCH  17  19
ENDBRANCH   8  15
TORSDOF 7
ENDMDL
MODEL      203
REMARK 921   NORMALIZED FREE ENERGY PREDICTED BY IDOCK:   -3.38 KCAL/MOL
REMARK 922        TOTAL FREE ENERGY PREDICTED BY IDOCK:   -6.12 KCAL/MOL
REMARK 923 INTER-LIGAND FREE ENERGY PREDICTED BY IDOCK:   -4.97 KCAL/MOL
REMARK 924 INTRA-LIGAND FREE ENERGY PREDICTED BY IDOCK:   -1.15 KCAL/MOL
REMARK 927      BINDING AFFINITY PREDICTED BY RF-SCORE:    0.00 PKD
ROOT
HETATM    1  C   UNL     1      -7.796  11.536  66.471  1.00  0.00    -0.071 C  
HETATM    2  S   UNL     1      -9.420  10.905  66.053  1.00  0.00    -0.214 SA 
HETATM    3  CG2 UNL     1     -10.098  12.466  65.492  1.00  0.00    -0.267 C  
HETATM    4  CB  UNL     1      -9.732  13.716  66.287  1.00  0.00    -0.295 C  
HETATM    5  O   UNL     1      -6.684  12.680  69.349  1.00  0.00    -0.097 OA 
HETATM    6  CA  UNL     1      -8.675  13.781  67.153  1.00  0.00    -0.221 C  
HETATM    7  N   UNL     1      -7.915  12.662  67.382  1.00  0.00    -0.170 N  
HETATM    8  CA  UNL     1      -7.066  10.783  67.640  1.00  0.00    -0.091 C  
HETATM    9  C   UNL     1      -8.321  15.079  67.862  1.00  0.00    -0.148 C  
HETATM   10  C   UNL     1      -7.064  12.191  68.310  1.00  0.00    -0.084 C  
HETATM   11  OXT UNL     1      -8.574  16.185  67.407  1.00  0.00    -0.173 OA 
HETATM   12  O   UNL     1      -7.663  14.987  69.034  1.00  0.00    -0.145 OA 
ENDROOT
BRANCH   4  13
HETATM   13  CG1 UNL     1     -10.693  14.816  66.072  1.00  0.00    -0.314 C  
HETATM   14  CD1 UNL     1     -11.685  14.872  65.171  1.00  0.00    -0.295 C  
ENDBRANCH   4  13
BRANCH   8  15
HETATM   15  N   UNL     1      -7.828   9.754  68.423  1.00  0.00    -0.081 N  
HETATM   16  H   UNL     1      -8.417  10.049  69.202  1.00  0.00     0.000 HD 
HETATM   17  C   UNL     1      -7.741   8.416  68.102  1.00  0.00    -0.103 C  
HETATM   18  O   UNL     1      -6.979   7.987  67.248  1.00  0.00    -0.071 OA 
BRANCH  17  19
HETATM   19  C   UNL     1      -8.602   7.447  68.917  1.00  0.00    -0.129 C  
BRANCH  19  20
HETATM   20  C   UNL     1      -8.993   7.799  70.281  1.00  0.00    -0.148 A  
HETATM   21  N   UNL     1      -7.914   8.754  73.483  1.00  0.00    -0.373 NA 
HETATM   22  C   UNL     1     -10.295   7.867  70.744  1.00  0.00    -0.203 A  
HETATM   23  N   UNL     1      -8.030   8.110  71.242  1.00  0.00    -0.091 NA 
HETATM   24  C   UNL     1      -8.599   8.403  72.385  1.00  0.00    -0.193 A  
HETATM   25  S   UNL     1     -10.311   8.319  72.398  1.00  0.00    -0.333 SA 
HETATM   26  H2  UNL     1      -8.420   8.976  74.341  1.00  0.00     0.000 HD 
HETATM   27  H1  UNL     1      -6.895   8.803  73.476  1.00  0.00     0.000 HD 
ENDBRANCH  19  20
BRANCH  19  28
HETATM   28  N   UNL     1      -9.039   6.281  68.522  1.00  0.00    -0.126 NA 
HETATM   29  H   UNL     1      -9.661   6.179  67.720  1.00  0.00     0.000 HD 
BRANCH  28  30
HETATM   30  O   UNL     1      -8.602   5.182  69.265  1.00  0.00    -0.095 OA 
BRANCH  30  31
HETATM   31  C   UNL     1      -9.617   4.174  69.218  1.00  0.00    -0.186 C  
HETATM   32  O   UNL     1      -9.747   1.824  69.826  1.00  0.00    -0.034 OA 
HETATM   33  C   UNL     1      -9.392   2.961  70.119  1.00  0.00    -0.142 C  
HETATM   34  O   UNL     1      -8.828   3.253  71.314  1.00  0.00    -0.078 OA 
ENDBRANCH  30  31
ENDBRANCH  28  30
ENDBRANCH  19  28
ENDBRANCH  17  19
ENDBRANCH   8  15
TORSDOF 7
ENDMDL
MODEL      204
REMARK 921   NORMALIZED FREE ENERGY PREDICTED BY IDOCK:   -3.34 KCAL/MOL
REMARK 922        TOTAL FREE ENERGY PREDICTED BY IDOCK:   -6.06 KCAL/MOL
REMARK 923 INTER-LIGAND FREE ENERGY PREDICTED BY IDOCK:   -4.59 KCAL/MOL
REMARK 924 INTRA-LIGAND FREE ENERGY PREDICTED BY IDOCK:   -1.47 KCAL/MOL
REMARK 927      BINDING AFFINITY PREDICTED BY RF-SCORE:    0.00 PKD
ROOT
HETATM    1  C   UNL     1     -10.889   9.080  67.694  1.00  0.00    -0.063 C  
HETATM    2  S   UNL     1     -10.992   9.989  69.235  1.00  0.00    -0.212 SA 
HETATM    3  CG2 UNL     1     -11.521  11.541  68.512  1.00  0.00    -0.292 C  
HETATM    4  CB  UNL     1     -10.872  11.959  67.196  1.00  0.00    -0.301 C  
HETATM    5  O   UNL     1      -8.310   8.654  65.697  1.00  0.00    -0.127 OA 
HETATM    6  CA  UNL     1     -10.201  11.095  66.374  1.00  0.00    -0.233 C  
HETATM    7  N   UNL     1     -10.038   9.787  66.752  1.00  0.00    -0.218 N  
HETATM    8  CA  UNL     1      -9.818   7.933  67.664  1.00  0.00    -0.165 C  
HETATM    9  C   UNL     1      -9.637  11.561  65.040  1.00  0.00    -0.197 C  
HETATM   10  C   UNL     1      -9.240   8.743  66.464  1.00  0.00    -0.179 C  
HETATM   11  OXT UNL     1     -10.106  12.489  64.399  1.00  0.00    -0.307 OA 
HETATM   12  O   UNL     1      -8.589  10.880  64.538  1.00  0.00    -0.101 OA 
ENDROOT
BRANCH   4  13
HETATM   13  CG1 UNL     1     -10.986  13.410  66.953  1.00  0.00    -0.295 C  
HETATM   14  CD1 UNL     1     -11.135  14.384  67.864  1.00  0.00    -0.288 C  
ENDBRANCH   4  13
BRANCH   8  15
HETATM   15  N   UNL     1      -8.861   7.809  68.813  1.00  0.00    -0.135 N  
HETATM   16  H   UNL     1      -7.988   8.337  68.801  1.00  0.00     0.000 HD 
HETATM   17  C   UNL     1      -9.146   6.990  69.885  1.00  0.00    -0.141 C  
HETATM   18  O   UNL     1     -10.123   6.256  69.917  1.00  0.00    -0.165 OA 
BRANCH  17  19
HETATM   19  C   UNL     1      -8.139   6.976  71.039  1.00  0.00    -0.105 C  
BRANCH  19  20
HETATM   20  C   UNL     1      -7.555   5.709  71.473  1.00  0.00    -0.105 A  
HETATM   21  N   UNL     1      -7.595   3.129  73.855  1.00  0.00    -0.059 NA 
HETATM   22  C   UNL     1      -6.546   5.029  70.814  1.00  0.00    -0.035 A  
HETATM   23  N   UNL     1      -8.008   5.073  72.630  1.00  0.00    -0.097 NA 
HETATM   24  C   UNL     1      -7.356   3.953  72.825  1.00  0.00    -0.063 A  
HETATM   25  S   UNL     1      -6.159   3.585  71.654  1.00  0.00    -0.014 SA 
HETATM   26  H2  UNL     1      -7.055   2.268  73.944  1.00  0.00     0.000 HD 
HETATM   27  H1  UNL     1      -8.307   3.348  74.552  1.00  0.00     0.000 HD 
ENDBRANCH  19  20
BRANCH  19  28
HETATM   28  N   UNL     1      -7.731   8.013  71.722  1.00  0.00    -0.087 NA 
HETATM   29  H   UNL     1      -7.351   7.924  72.664  1.00  0.00     0.000 HD 
BRANCH  28  30
HETATM   30  O   UNL     1      -7.846   9.248  71.082  1.00  0.00    -0.289 OA 
BRANCH  30  31
HETATM   31  C   UNL     1      -6.568   9.596  70.540  1.00  0.00    -0.107 C  
HETATM   32  O   UNL     1      -5.688  10.001  68.311  1.00  0.00    -0.042 OA 
HETATM   33  C   UNL     1      -6.579  10.186  69.131  1.00  0.00    -0.054 C  
HETATM   34  O   UNL     1      -7.630  11.002  68.879  1.00  0.00    -0.117 OA 
ENDBRANCH  30  31
ENDBRANCH  28  30
ENDBRANCH  19  28
ENDBRANCH  17  19
ENDBRANCH   8  15
TORSDOF 7
ENDMDL
MODEL      205
REMARK 921   NORMALIZED FREE ENERGY PREDICTED BY IDOCK:   -3.23 KCAL/MOL
REMARK 922        TOTAL FREE ENERGY PREDICTED BY IDOCK:   -5.91 KCAL/MOL
REMARK 923 INTER-LIGAND FREE ENERGY PREDICTED BY IDOCK:   -4.71 KCAL/MOL
REMARK 924 INTRA-LIGAND FREE ENERGY PREDICTED BY IDOCK:   -1.20 KCAL/MOL
REMARK 927      BINDING AFFINITY PREDICTED BY RF-SCORE:    0.00 PKD
ROOT
HETATM    1  C   UNL     1      -7.266  12.426  67.195  1.00  0.00    -0.080 C  
HETATM    2  S   UNL     1      -8.857  11.659  66.897  1.00  0.00    -0.195 SA 
HETATM    3  CG2 UNL     1      -9.706  13.155  66.396  1.00  0.00    -0.269 C  
HETATM    4  CB  UNL     1      -9.389  14.433  67.168  1.00  0.00    -0.226 C  
HETATM    5  O   UNL     1      -6.043  13.664  69.987  1.00  0.00    -0.135 OA 
HETATM    6  CA  UNL     1      -8.279  14.588  67.952  1.00  0.00    -0.153 C  
HETATM    7  N   UNL     1      -7.412  13.539  68.118  1.00  0.00    -0.118 N  
HETATM    8  CA  UNL     1      -6.389  11.740  68.302  1.00  0.00    -0.050 C  
HETATM    9  C   UNL     1      -7.984  15.913  68.639  1.00  0.00    -0.156 C  
HETATM   10  C   UNL     1      -6.456  13.143  68.978  1.00  0.00    -0.103 C  
HETATM   11  OXT UNL     1      -8.364  16.993  68.210  1.00  0.00    -0.212 OA 
HETATM   12  O   UNL     1      -7.235  15.879  69.758  1.00  0.00    -0.154 OA 
ENDROOT
BRANCH   4  13
HETATM   13  CG1 UNL     1     -10.453  15.446  67.031  1.00  0.00    -0.295 C  
HETATM   14  CD1 UNL     1     -11.747  15.324  67.364  1.00  0.00    -0.120 C  
ENDBRANCH   4  13
BRANCH   8  15
HETATM   15  N   UNL     1      -6.999  10.650  69.134  1.00  0.00    -0.075 N  
HETATM   16  H   UNL     1      -7.435  10.883  70.027  1.00  0.00     0.000 HD 
HETATM   17  C   UNL     1      -6.979   9.340  68.708  1.00  0.00    -0.061 C  
HETATM   18  O   UNL     1      -6.388   8.980  67.700  1.00  0.00    -0.055 OA 
BRANCH  17  19
HETATM   19  C   UNL     1      -7.681   8.307  69.594  1.00  0.00    -0.100 C  
BRANCH  19  20
HETATM   20  C   UNL     1      -7.555   6.884  69.285  1.00  0.00    -0.096 A  
HETATM   21  N   UNL     1      -8.987   4.090  67.712  1.00  0.00    -0.116 NA 
HETATM   22  C   UNL     1      -6.492   6.080  69.654  1.00  0.00    -0.042 A  
HETATM   23  N   UNL     1      -8.544   6.221  68.557  1.00  0.00    -0.114 NA 
HETATM   24  C   UNL     1      -8.225   4.961  68.388  1.00  0.00    -0.084 A  
HETATM   25  S   UNL     1      -6.736   4.480  69.088  1.00  0.00    -0.046 SA 
HETATM   26  H2  UNL     1      -8.676   3.124  67.612  1.00  0.00     0.000 HD 
HETATM   27  H1  UNL     1      -9.873   4.376  67.295  1.00  0.00     0.000 HD 
ENDBRANCH  19  20
BRANCH  19  28
HETATM   28  N   UNL     1      -8.427   8.562  70.637  1.00  0.00    -0.134 NA 
HETATM   29  H   UNL     1      -8.332   8.044  71.510  1.00  0.00     0.000 HD 
BRANCH  28  30
HETATM   30  O   UNL     1      -9.363   9.587  70.481  1.00  0.00    -0.252 OA 
BRANCH  30  31
HETATM   31  C   UNL     1     -10.522   9.260  71.255  1.00  0.00    -0.338 C  
HETATM   32  O   UNL     1     -12.495  10.466  72.002  1.00  0.00    -0.290 OA 
HETATM   33  C   UNL     1     -11.716  10.199  71.095  1.00  0.00    -0.366 C  
HETATM   34  O   UNL     1     -11.892  10.665  69.836  1.00  0.00    -0.274 OA 
ENDBRANCH  30  31
ENDBRANCH  28  30
ENDBRANCH  19  28
ENDBRANCH  17  19
ENDBRANCH   8  15
TORSDOF 7
ENDMDL
MODEL      206
REMARK 921   NORMALIZED FREE ENERGY PREDICTED BY IDOCK:   -3.15 KCAL/MOL
REMARK 922        TOTAL FREE ENERGY PREDICTED BY IDOCK:   -5.79 KCAL/MOL
REMARK 923 INTER-LIGAND FREE ENERGY PREDICTED BY IDOCK:   -5.25 KCAL/MOL
REMARK 924 INTRA-LIGAND FREE ENERGY PREDICTED BY IDOCK:   -0.54 KCAL/MOL
REMARK 927      BINDING AFFINITY PREDICTED BY RF-SCORE:    0.00 PKD
ROOT
HETATM    1  C   UNL     1     -10.045  13.108  68.547  1.00  0.00    -0.200 C  
HETATM    2  S   UNL     1      -8.458  13.812  68.104  1.00  0.00    -0.180 SA 
HETATM    3  CG2 UNL     1      -9.109  15.174  67.139  1.00  0.00    -0.211 C  
HETATM    4  CB  UNL     1     -10.313  14.888  66.246  1.00  0.00    -0.302 C  
HETATM    5  O   UNL     1     -11.785  10.769  67.022  1.00  0.00    -0.237 OA 
HETATM    6  CA  UNL     1     -11.124  13.796  66.393  1.00  0.00    -0.308 C  
HETATM    7  N   UNL     1     -10.834  12.860  67.352  1.00  0.00    -0.247 N  
HETATM    8  CA  UNL     1     -10.051  11.554  68.766  1.00  0.00    -0.179 C  
HETATM    9  C   UNL     1     -12.350  13.606  65.514  1.00  0.00    -0.482 C  
HETATM   10  C   UNL     1     -11.116  11.574  67.628  1.00  0.00    -0.266 C  
HETATM   11  OXT UNL     1     -12.963  14.533  65.005  1.00  0.00    -0.564 OA 
HETATM   12  O   UNL     1     -12.789  12.347  65.325  1.00  0.00    -0.557 OA 
ENDROOT
BRANCH   4  13
HETATM   13  CG1 UNL     1     -10.453  15.881  65.163  1.00  0.00    -0.363 C  
HETATM   14  CD1 UNL     1     -10.888  17.146  65.263  1.00  0.00    -0.043 C  
ENDBRANCH   4  13
BRANCH   8  15
HETATM   15  N   UNL     1      -8.820  10.770  68.414  1.00  0.00    -0.139 N  
HETATM   16  H   UNL     1      -8.473  10.783  67.455  1.00  0.00     0.000 HD 
HETATM   17  C   UNL     1      -8.153  10.035  69.370  1.00  0.00    -0.149 C  
HETATM   18  O   UNL     1      -8.571   9.897  70.511  1.00  0.00    -0.127 OA 
BRANCH  17  19
HETATM   19  C   UNL     1      -6.872   9.320  68.932  1.00  0.00    -0.056 C  
BRANCH  19  20
HETATM   20  C   UNL     1      -6.315   9.582  67.607  1.00  0.00    -0.058 A  
HETATM   21  N   UNL     1      -5.240   8.211  64.557  1.00  0.00    -0.036 NA 
HETATM   22  C   UNL     1      -6.009  10.834  67.104  1.00  0.00    -0.062 A  
HETATM   23  N   UNL     1      -6.053   8.534  66.722  1.00  0.00    -0.053 NA 
HETATM   24  C   UNL     1      -5.569   8.994  65.594  1.00  0.00    -0.049 A  
HETATM   25  S   UNL     1      -5.384  10.697  65.513  1.00  0.00    -0.143 SA 
HETATM   26  H2  UNL     1      -4.874   8.634  63.705  1.00  0.00     0.000 HD 
HETATM   27  H1  UNL     1      -5.350   7.198  64.606  1.00  0.00     0.000 HD 
ENDBRANCH  19  20
BRANCH  19  28
HETATM   28  N   UNL     1      -6.193   8.451  69.633  1.00  0.00    -0.035 NA 
HETATM   29  H   UNL     1      -5.224   8.614  69.905  1.00  0.00     0.000 HD 
BRANCH  28  30
HETATM   30  O   UNL     1      -6.877   7.285  69.986  1.00  0.00    -0.053 OA 
BRANCH  30  31
HETATM   31  C   UNL     1      -6.489   6.245  69.082  1.00  0.00    -0.043 C  
HETATM   32  O   UNL     1      -5.872   3.905  69.306  1.00  0.00    -0.020 OA 
HETATM   33  C   UNL     1      -6.630   4.818  69.610  1.00  0.00    -0.036 C  
HETATM   34  O   UNL     1      -7.716   4.620  70.394  1.00  0.00    -0.053 OA 
ENDBRANCH  30  31
ENDBRANCH  28  30
ENDBRANCH  19  28
ENDBRANCH  17  19
ENDBRANCH   8  15
TORSDOF 7
ENDMDL
MODEL      207
REMARK 921   NORMALIZED FREE ENERGY PREDICTED BY IDOCK:   -3.11 KCAL/MOL
REMARK 922        TOTAL FREE ENERGY PREDICTED BY IDOCK:   -5.73 KCAL/MOL
REMARK 923 INTER-LIGAND FREE ENERGY PREDICTED BY IDOCK:   -5.94 KCAL/MOL
REMARK 924 INTRA-LIGAND FREE ENERGY PREDICTED BY IDOCK:    0.21 KCAL/MOL
REMARK 927      BINDING AFFINITY PREDICTED BY RF-SCORE:    0.00 PKD
ROOT
HETATM    1  C   UNL     1      -8.771   9.915  70.169  1.00  0.00    -0.103 C  
HETATM    2  S   UNL     1     -10.157  10.457  69.173  1.00  0.00    -0.231 SA 
HETATM    3  CG2 UNL     1     -11.381  10.374  70.479  1.00  0.00    -0.341 C  
HETATM    4  CB  UNL     1     -11.299   9.195  71.444  1.00  0.00    -0.414 C  
HETATM    5  O   UNL     1      -7.599   6.875  70.629  1.00  0.00    -0.090 OA 
HETATM    6  CA  UNL     1     -10.183   8.418  71.596  1.00  0.00    -0.241 C  
HETATM    7  N   UNL     1      -9.081   8.651  70.815  1.00  0.00    -0.163 N  
HETATM    8  CA  UNL     1      -7.649   9.140  69.390  1.00  0.00    -0.079 C  
HETATM    9  C   UNL     1     -10.142   7.300  72.627  1.00  0.00    -0.194 C  
HETATM   10  C   UNL     1      -7.977   8.002  70.404  1.00  0.00    -0.103 C  
HETATM   11  OXT UNL     1     -10.807   7.305  73.652  1.00  0.00    -0.356 OA 
HETATM   12  O   UNL     1      -9.297   6.276  72.399  1.00  0.00    -0.143 OA 
ENDROOT
BRANCH   4  13
HETATM   13  CG1 UNL     1     -12.580   8.946  72.132  1.00  0.00    -0.467 C  
HETATM   14  CD1 UNL     1     -13.670   8.337  71.639  1.00  0.00    -0.404 C  
ENDBRANCH   4  13
BRANCH   8  15
HETATM   15  N   UNL     1      -7.898   8.754  67.962  1.00  0.00    -0.102 N  
HETATM   16  H   UNL     1      -7.473   9.300  67.212  1.00  0.00     0.000 HD 
HETATM   17  C   UNL     1      -8.692   7.671  67.650  1.00  0.00    -0.122 C  
HETATM   18  O   UNL     1      -9.310   7.037  68.493  1.00  0.00    -0.137 OA 
BRANCH  17  19
HETATM   19  C   UNL     1      -8.836   7.317  66.167  1.00  0.00    -0.158 C  
BRANCH  19  20
HETATM   20  C   UNL     1      -8.909   8.385  65.172  1.00  0.00    -0.031 A  
HETATM   21  N   UNL     1     -10.228  11.533  64.346  1.00  0.00    -0.278 NA 
HETATM   22  C   UNL     1      -8.246   8.390  63.959  1.00  0.00    -0.113 A  
HETATM   23  N   UNL     1      -9.684   9.523  65.402  1.00  0.00    -0.288 NA 
HETATM   24  C   UNL     1      -9.597  10.351  64.390  1.00  0.00    -0.316 A  
HETATM   25  S   UNL     1      -8.599   9.829  63.097  1.00  0.00    -0.217 SA 
HETATM   26  H2  UNL     1     -10.113  12.133  63.529  1.00  0.00     0.000 HD 
HETATM   27  H1  UNL     1     -10.822  11.843  65.115  1.00  0.00     0.000 HD 
ENDBRANCH  19  20
BRANCH  19  28
HETATM   28  N   UNL     1      -8.919   6.113  65.664  1.00  0.00    -0.315 NA 
HETATM   29  H   UNL     1      -8.117   5.648  65.240  1.00  0.00     0.000 HD 
BRANCH  28  30
HETATM   30  O   UNL     1     -10.174   5.505  65.743  1.00  0.00     0.014 OA 
BRANCH  30  31
HETATM   31  C   UNL     1     -10.011   4.105  65.495  1.00  0.00    -0.203 C  
HETATM   32  O   UNL     1      -8.325   2.440  66.033  1.00  0.00    -0.086 OA 
HETATM   33  C   UNL     1      -9.021   3.378  66.403  1.00  0.00    -0.148 C  
HETATM   34  O   UNL     1      -9.023   3.809  67.686  1.00  0.00    -0.113 OA 
ENDBRANCH  30  31
ENDBRANCH  28  30
ENDBRANCH  19  28
ENDBRANCH  17  19
ENDBRANCH   8  15
TORSDOF 7
ENDMDL
MODEL      208
REMARK 921   NORMALIZED FREE ENERGY PREDICTED BY IDOCK:   -3.01 KCAL/MOL
REMARK 922        TOTAL FREE ENERGY PREDICTED BY IDOCK:   -5.59 KCAL/MOL
REMARK 923 INTER-LIGAND FREE ENERGY PREDICTED BY IDOCK:   -6.48 KCAL/MOL
REMARK 924 INTRA-LIGAND FREE ENERGY PREDICTED BY IDOCK:    0.89 KCAL/MOL
REMARK 927      BINDING AFFINITY PREDICTED BY RF-SCORE:    0.00 PKD
ROOT
HETATM    1  C   UNL     1      -7.657  11.382  67.642  1.00  0.00    -0.108 C  
HETATM    2  S   UNL     1      -7.729   9.893  68.636  1.00  0.00    -0.083 SA 
HETATM    3  CG2 UNL     1      -7.467   8.744  67.287  1.00  0.00    -0.089 C  
HETATM    4  CB  UNL     1      -8.163   9.045  65.963  1.00  0.00    -0.113 C  
HETATM    5  O   UNL     1     -10.103  13.036  66.189  1.00  0.00    -0.274 OA 
HETATM    6  CA  UNL     1      -8.666  10.274  65.634  1.00  0.00    -0.162 C  
HETATM    7  N   UNL     1      -8.606  11.298  66.545  1.00  0.00    -0.166 N  
HETATM    8  CA  UNL     1      -8.515  12.584  68.174  1.00  0.00    -0.180 C  
HETATM    9  C   UNL     1      -9.286  10.528  64.269  1.00  0.00    -0.267 C  
HETATM   10  C   UNL     1      -9.210  12.476  66.783  1.00  0.00    -0.217 C  
HETATM   11  OXT UNL     1      -8.976   9.906  63.263  1.00  0.00    -0.223 OA 
HETATM   12  O   UNL     1     -10.197  11.516  64.174  1.00  0.00    -0.271 OA 
ENDROOT
BRANCH   4  13
HETATM   13  CG1 UNL     1      -8.297   7.844  65.116  1.00  0.00    -0.128 C  
HETATM   14  CD1 UNL     1      -8.514   6.582  65.515  1.00  0.00    -0.139 C  
ENDBRANCH   4  13
BRANCH   8  15
HETATM   15  N   UNL     1      -9.450  12.351  69.325  1.00  0.00     0.037 N  
HETATM   16  H   UNL     1      -9.262  12.796  70.224  1.00  0.00     0.000 HD 
HETATM   17  C   UNL     1     -10.557  11.544  69.184  1.00  0.00    -0.136 C  
HETATM   18  O   UNL     1     -10.785  10.902  68.168  1.00  0.00    -0.186 OA 
BRANCH  17  19
HETATM   19  C   UNL     1     -11.486  11.415  70.395  1.00  0.00    -0.041 C  
BRANCH  19  20
HETATM   20  C   UNL     1     -12.222  12.585  70.868  1.00  0.00    -0.181 A  
HETATM   21  N   UNL     1     -12.661  16.062  70.633  1.00  0.00    -0.534 NA 
HETATM   22  C   UNL     1     -13.244  12.561  71.800  1.00  0.00    -0.344 A  
HETATM   23  N   UNL     1     -11.929  13.860  70.378  1.00  0.00    -0.326 NA 
HETATM   24  C   UNL     1     -12.712  14.755  70.928  1.00  0.00    -0.342 A  
HETATM   25  S   UNL     1     -13.839  14.146  72.068  1.00  0.00    -0.521 SA 
HETATM   26  H2  UNL     1     -13.305  16.706  71.094  1.00  0.00     0.000 HD 
HETATM   27  H1  UNL     1     -11.991  16.424  69.955  1.00  0.00     0.000 HD 
ENDBRANCH  19  20
BRANCH  19  28
HETATM   28  N   UNL     1     -11.697  10.333  71.096  1.00  0.00    -0.361 NA 
HETATM   29  H   UNL     1     -11.164  10.122  71.939  1.00  0.00     0.000 HD 
BRANCH  28  30
HETATM   30  O   UNL     1     -12.699   9.484  70.620  1.00  0.00    -0.125 OA 
BRANCH  30  31
HETATM   31  C   UNL     1     -13.425   8.971  71.741  1.00  0.00    -0.411 C  
HETATM   32  O   UNL     1     -14.297   6.795  72.384  1.00  0.00    -0.035 OA 
HETATM   33  C   UNL     1     -13.369   7.456  71.933  1.00  0.00    -0.231 C  
HETATM   34  O   UNL     1     -12.172   6.901  71.631  1.00  0.00    -0.326 OA 
ENDBRANCH  30  31
ENDBRANCH  28  30
ENDBRANCH  19  28
ENDBRANCH  17  19
ENDBRANCH   8  15
TORSDOF 7
ENDMDL
MODEL      209
REMARK 921   NORMALIZED FREE ENERGY PREDICTED BY IDOCK:   -2.98 KCAL/MOL
REMARK 922        TOTAL FREE ENERGY PREDICTED BY IDOCK:   -5.55 KCAL/MOL
REMARK 923 INTER-LIGAND FREE ENERGY PREDICTED BY IDOCK:   -4.00 KCAL/MOL
REMARK 924 INTRA-LIGAND FREE ENERGY PREDICTED BY IDOCK:   -1.55 KCAL/MOL
REMARK 927      BINDING AFFINITY PREDICTED BY RF-SCORE:    0.00 PKD
ROOT
HETATM    1  C   UNL     1      -8.882   7.043  67.515  1.00  0.00    -0.119 C  
HETATM    2  S   UNL     1     -10.394   7.758  68.158  1.00  0.00    -0.182 SA 
HETATM    3  CG2 UNL     1     -10.393   9.203  67.099  1.00  0.00    -0.267 C  
HETATM    4  CB  UNL     1      -9.050   9.879  66.836  1.00  0.00    -0.162 C  
HETATM    5  O   UNL     1      -5.790   7.413  68.575  1.00  0.00    -0.022 OA 
HETATM    6  CA  UNL     1      -7.842   9.274  67.052  1.00  0.00    -0.098 C  
HETATM    7  N   UNL     1      -7.801   8.011  67.585  1.00  0.00    -0.120 N  
HETATM    8  CA  UNL     1      -8.060   6.185  68.541  1.00  0.00    -0.108 C  
HETATM    9  C   UNL     1      -6.540   9.978  66.704  1.00  0.00    -0.073 C  
HETATM   10  C   UNL     1      -6.931   7.213  68.229  1.00  0.00    -0.076 C  
HETATM   11  OXT UNL     1      -6.446  10.826  65.828  1.00  0.00    -0.125 OA 
HETATM   12  O   UNL     1      -5.435   9.609  67.380  1.00  0.00    -0.036 OA 
ENDROOT
BRANCH   4  13
HETATM   13  CG1 UNL     1      -9.206  11.280  66.398  1.00  0.00    -0.206 C  
HETATM   14  CD1 UNL     1      -9.962  11.743  65.391  1.00  0.00    -0.284 C  
ENDBRANCH   4  13
BRANCH   8  15
HETATM   15  N   UNL     1      -8.480   6.182  69.982  1.00  0.00    -0.127 N  
HETATM   16  H   UNL     1      -8.690   7.066  70.446  1.00  0.00     0.000 HD 
HETATM   17  C   UNL     1      -8.585   5.002  70.686  1.00  0.00    -0.114 C  
HETATM   18  O   UNL     1      -8.252   3.921  70.221  1.00  0.00    -0.057 OA 
BRANCH  17  19
HETATM   19  C   UNL     1      -9.081   5.094  72.131  1.00  0.00    -0.136 C  
BRANCH  19  20
HETATM   20  C   UNL     1      -9.430   3.874  72.855  1.00  0.00    -0.116 A  
HETATM   21  N   UNL     1     -11.958   1.580  73.682  1.00  0.00    -0.206 NA 
HETATM   22  C   UNL     1      -8.549   3.106  73.594  1.00  0.00    -0.074 A  
HETATM   23  N   UNL     1     -10.736   3.380  72.836  1.00  0.00    -0.129 NA 
HETATM   24  C   UNL     1     -10.822   2.278  73.538  1.00  0.00    -0.179 A  
HETATM   25  S   UNL     1      -9.363   1.759  74.275  1.00  0.00    -0.068 SA 
HETATM   26  H2  UNL     1     -11.954   0.725  74.238  1.00  0.00     0.000 HD 
HETATM   27  H1  UNL     1     -12.826   1.888  73.244  1.00  0.00     0.000 HD 
ENDBRANCH  19  20
BRANCH  19  28
HETATM   28  N   UNL     1      -9.250   6.190  72.823  1.00  0.00    -0.139 NA 
HETATM   29  H   UNL     1      -9.984   6.862  72.602  1.00  0.00     0.000 HD 
BRANCH  28  30
HETATM   30  O   UNL     1      -8.361   6.384  73.884  1.00  0.00    -0.114 OA 
BRANCH  30  31
HETATM   31  C   UNL     1      -8.141   7.790  74.035  1.00  0.00    -0.207 C  
HETATM   32  O   UNL     1      -6.308   9.312  73.558  1.00  0.00    -0.321 OA 
HETATM   33  C   UNL     1      -7.016   8.383  73.189  1.00  0.00    -0.076 C  
HETATM   34  O   UNL     1      -6.908   7.842  71.952  1.00  0.00    -0.057 OA 
ENDBRANCH  30  31
ENDBRANCH  28  30
ENDBRANCH  19  28
ENDBRANCH  17  19
ENDBRANCH   8  15
TORSDOF 7
ENDMDL
MODEL      210
REMARK 921   NORMALIZED FREE ENERGY PREDICTED BY IDOCK:   -2.96 KCAL/MOL
REMARK 922        TOTAL FREE ENERGY PREDICTED BY IDOCK:   -5.52 KCAL/MOL
REMARK 923 INTER-LIGAND FREE ENERGY PREDICTED BY IDOCK:   -6.21 KCAL/MOL
REMARK 924 INTRA-LIGAND FREE ENERGY PREDICTED BY IDOCK:    0.68 KCAL/MOL
REMARK 927      BINDING AFFINITY PREDICTED BY RF-SCORE:    0.00 PKD
ROOT
HETATM    1  C   UNL     1      -7.275  16.634  68.826  1.00  0.00    -0.206 C  
HETATM    2  S   UNL     1      -5.867  16.074  67.870  1.00  0.00    -0.145 SA 
HETATM    3  CG2 UNL     1      -5.755  17.522  66.820  1.00  0.00    -0.173 C  
HETATM    4  CB  UNL     1      -7.063  18.135  66.329  1.00  0.00    -0.298 C  
HETATM    5  O   UNL     1     -10.482  16.107  68.314  1.00  0.00    -0.255 OA 
HETATM    6  CA  UNL     1      -8.280  17.883  66.902  1.00  0.00    -0.237 C  
HETATM    7  N   UNL     1      -8.370  16.994  67.942  1.00  0.00    -0.197 N  
HETATM    8  CA  UNL     1      -8.208  15.495  69.372  1.00  0.00    -0.247 C  
HETATM    9  C   UNL     1      -9.538  18.581  66.408  1.00  0.00    -0.316 C  
HETATM   10  C   UNL     1      -9.303  16.239  68.550  1.00  0.00    -0.213 C  
HETATM   11  OXT UNL     1      -9.532  19.681  65.875  1.00  0.00    -0.378 OA 
HETATM   12  O   UNL     1     -10.714  17.956  66.610  1.00  0.00    -0.268 OA 
ENDROOT
BRANCH   4  13
HETATM   13  CG1 UNL     1      -6.874  18.964  65.123  1.00  0.00     0.002 C  
HETATM   14  CD1 UNL     1      -6.172  20.103  65.015  1.00  0.00    -0.310 C  
ENDBRANCH   4  13
BRANCH   8  15
HETATM   15  N   UNL     1      -7.974  14.086  68.911  1.00  0.00    -0.299 N  
HETATM   16  H   UNL     1      -7.511  13.424  69.535  1.00  0.00     0.000 HD 
HETATM   17  C   UNL     1      -8.375  13.676  67.659  1.00  0.00    -0.182 C  
HETATM   18  O   UNL     1      -8.843  14.443  66.828  1.00  0.00    -0.239 OA 
BRANCH  17  19
HETATM   19  C   UNL     1      -8.150  12.204  67.301  1.00  0.00    -0.176 C  
BRANCH  19  20
HETATM   20  C   UNL     1      -8.078  11.205  68.365  1.00  0.00    -0.141 A  
HETATM   21  N   UNL     1      -6.009   9.415  70.568  1.00  0.00    -0.049 NA 
HETATM   22  C   UNL     1      -9.164  10.552  68.920  1.00  0.00    -0.183 A  
HETATM   23  N   UNL     1      -6.850  10.837  68.917  1.00  0.00    -0.063 NA 
HETATM   24  C   UNL     1      -7.018   9.939  69.857  1.00  0.00    -0.105 A  
HETATM   25  S   UNL     1      -8.642   9.466  70.139  1.00  0.00    -0.227 SA 
HETATM   26  H2  UNL     1      -6.211   8.724  71.290  1.00  0.00     0.000 HD 
HETATM   27  H1  UNL     1      -5.043   9.696  70.399  1.00  0.00     0.000 HD 
ENDBRANCH  19  20
BRANCH  19  28
HETATM   28  N   UNL     1      -7.993  11.715  66.099  1.00  0.00    -0.377 NA 
HETATM   29  H   UNL     1      -7.082  11.678  65.645  1.00  0.00     0.000 HD 
BRANCH  28  30
HETATM   30  O   UNL     1      -9.153  11.247  65.477  1.00  0.00    -0.209 OA 
BRANCH  30  31
HETATM   31  C   UNL     1      -8.800  10.136  64.646  1.00  0.00    -0.196 C  
HETATM   32  O   UNL     1      -8.228   7.805  65.029  1.00  0.00    -0.137 OA 
HETATM   33  C   UNL     1      -8.963   8.755  65.277  1.00  0.00    -0.133 C  
HETATM   34  O   UNL     1     -10.041   8.637  66.087  1.00  0.00    -0.250 OA 
ENDBRANCH  30  31
ENDBRANCH  28  30
ENDBRANCH  19  28
ENDBRANCH  17  19
ENDBRANCH   8  15
TORSDOF 7
ENDMDL
MODEL      211
REMARK 921   NORMALIZED FREE ENERGY PREDICTED BY IDOCK:   -2.94 KCAL/MOL
REMARK 922        TOTAL FREE ENERGY PREDICTED BY IDOCK:   -5.49 KCAL/MOL
REMARK 923 INTER-LIGAND FREE ENERGY PREDICTED BY IDOCK:   -4.12 KCAL/MOL
REMARK 924 INTRA-LIGAND FREE ENERGY PREDICTED BY IDOCK:   -1.37 KCAL/MOL
REMARK 927      BINDING AFFINITY PREDICTED BY RF-SCORE:    0.00 PKD
ROOT
HETATM    1  C   UNL     1      -9.451  10.882  69.475  1.00  0.00     0.188 C  
HETATM    2  S   UNL     1      -7.670  10.964  69.294  1.00  0.00    -0.053 SA 
HETATM    3  CG2 UNL     1      -7.594  12.709  68.895  1.00  0.00     0.055 C  
HETATM    4  CB  UNL     1      -8.676  13.267  67.976  1.00  0.00    -0.186 C  
HETATM    5  O   UNL     1     -11.740  10.137  67.233  1.00  0.00     0.178 OA 
HETATM    6  CA  UNL     1      -9.863  12.632  67.730  1.00  0.00    -0.212 C  
HETATM    7  N   UNL     1     -10.100  11.399  68.282  1.00  0.00    -0.189 N  
HETATM    8  CA  UNL     1     -10.097   9.497  69.118  1.00  0.00    -0.195 C  
HETATM    9  C   UNL     1     -10.930  13.275  66.859  1.00  0.00    -0.283 C  
HETATM   10  C   UNL     1     -10.900  10.337  68.079  1.00  0.00    -0.275 C  
HETATM   11  OXT UNL     1     -11.053  14.484  66.727  1.00  0.00    -0.309 OA 
HETATM   12  O   UNL     1     -11.798  12.456  66.234  1.00  0.00    -0.473 OA 
ENDROOT
BRANCH   4  13
HETATM   13  CG1 UNL     1      -8.263  14.526  67.327  1.00  0.00    -0.230 C  
HETATM   14  CD1 UNL     1      -7.112  15.195  67.495  1.00  0.00    -0.225 C  
ENDBRANCH   4  13
BRANCH   8  15
HETATM   15  N   UNL     1      -9.237   8.439  68.490  1.00  0.00    -0.136 N  
HETATM   16  H   UNL     1      -9.014   8.497  67.496  1.00  0.00     0.000 HD 
HETATM   17  C   UNL     1      -8.745   7.392  69.238  1.00  0.00    -0.137 C  
HETATM   18  O   UNL     1      -9.055   7.209  70.407  1.00  0.00    -0.154 OA 
BRANCH  17  19
HETATM   19  C   UNL     1      -7.826   6.396  68.525  1.00  0.00    -0.105 C  
BRANCH  19  20
HETATM   20  C   UNL     1      -8.407   5.305  67.746  1.00  0.00    -0.098 A  
HETATM   21  N   UNL     1     -10.462   4.409  65.043  1.00  0.00    -0.493 NA 
HETATM   22  C   UNL     1      -8.187   3.959  67.972  1.00  0.00    -0.091 A  
HETATM   23  N   UNL     1      -9.255   5.571  66.669  1.00  0.00    -0.131 NA 
HETATM   24  C   UNL     1      -9.651   4.454  66.109  1.00  0.00    -0.190 A  
HETATM   25  S   UNL     1      -9.053   3.018  66.829  1.00  0.00    -0.143 SA 
HETATM   26  H2  UNL     1     -10.728   3.505  64.652  1.00  0.00     0.000 HD 
HETATM   27  H1  UNL     1     -10.819   5.263  64.615  1.00  0.00     0.000 HD 
ENDBRANCH  19  20
BRANCH  19  28
HETATM   28  N   UNL     1      -6.519   6.400  68.543  1.00  0.00    -0.047 NA 
HETATM   29  H   UNL     1      -5.967   6.652  67.723  1.00  0.00     0.000 HD 
BRANCH  28  30
HETATM   30  O   UNL     1      -5.925   6.039  69.754  1.00  0.00    -0.023 OA 
BRANCH  30  31
HETATM   31  C   UNL     1      -5.215   7.173  70.264  1.00  0.00    -0.023 C  
HETATM   32  O   UNL     1      -5.744   9.009  71.766  1.00  0.00    -0.054 OA 
HETATM   33  C   UNL     1      -5.794   7.808  71.527  1.00  0.00    -0.035 C  
HETATM   34  O   UNL     1      -6.309   6.921  72.409  1.00  0.00    -0.052 OA 
ENDBRANCH  30  31
ENDBRANCH  28  30
ENDBRANCH  19  28
ENDBRANCH  17  19
ENDBRANCH   8  15
TORSDOF 7
ENDMDL
MODEL      212
REMARK 921   NORMALIZED FREE ENERGY PREDICTED BY IDOCK:   -2.93 KCAL/MOL
REMARK 922        TOTAL FREE ENERGY PREDICTED BY IDOCK:   -5.49 KCAL/MOL
REMARK 923 INTER-LIGAND FREE ENERGY PREDICTED BY IDOCK:   -5.71 KCAL/MOL
REMARK 924 INTRA-LIGAND FREE ENERGY PREDICTED BY IDOCK:    0.23 KCAL/MOL
REMARK 927      BINDING AFFINITY PREDICTED BY RF-SCORE:    0.00 PKD
ROOT
HETATM    1  C   UNL     1     -10.867  12.815  68.019  1.00  0.00    -0.233 C  
HETATM    2  S   UNL     1     -12.117  13.684  67.073  1.00  0.00    -0.340 SA 
HETATM    3  CG2 UNL     1     -12.314  12.430  65.809  1.00  0.00    -0.028 C  
HETATM    4  CB  UNL     1     -11.053  11.730  65.313  1.00  0.00    -0.333 C  
HETATM    5  O   UNL     1      -7.590  12.990  67.794  1.00  0.00    -0.122 OA 
HETATM    6  CA  UNL     1      -9.865  11.736  65.992  1.00  0.00    -0.232 C  
HETATM    7  N   UNL     1      -9.755  12.447  67.159  1.00  0.00    -0.204 N  
HETATM    8  CA  UNL     1      -9.853  13.732  68.789  1.00  0.00    -0.088 C  
HETATM    9  C   UNL     1      -8.664  10.959  65.477  1.00  0.00    -0.171 C  
HETATM   10  C   UNL     1      -8.791  12.978  67.933  1.00  0.00    -0.193 C  
HETATM   11  OXT UNL     1      -8.757   9.958  64.782  1.00  0.00    -0.160 OA 
HETATM   12  O   UNL     1      -7.442  11.390  65.845  1.00  0.00     0.095 OA 
ENDROOT
BRANCH   4  13
HETATM   13  CG1 UNL     1     -11.241  11.114  63.985  1.00  0.00    -0.057 C  
HETATM   14  CD1 UNL     1     -10.370  11.085  62.964  1.00  0.00    -0.162 C  
ENDBRANCH   4  13
BRANCH   8  15
HETATM   15  N   UNL     1      -9.880  15.211  68.536  1.00  0.00    -0.214 N  
HETATM   16  H   UNL     1     -10.613  15.607  67.947  1.00  0.00     0.000 HD 
HETATM   17  C   UNL     1      -8.928  16.040  69.089  1.00  0.00    -0.252 C  
HETATM   18  O   UNL     1      -7.968  15.620  69.720  1.00  0.00    -0.162 OA 
BRANCH  17  19
HETATM   19  C   UNL     1      -9.074  17.542  68.826  1.00  0.00    -0.212 C  
BRANCH  19  20
HETATM   20  C   UNL     1      -7.878  18.370  68.680  1.00  0.00    -0.299 A  
HETATM   21  N   UNL     1      -5.222  19.337  66.597  1.00  0.00    -0.162 NA 
HETATM   22  C   UNL     1      -7.392  19.242  69.637  1.00  0.00     0.021 A  
HETATM   23  N   UNL     1      -7.124  18.334  67.506  1.00  0.00    -0.199 NA 
HETATM   24  C   UNL     1      -6.107  19.157  67.587  1.00  0.00    -0.206 A  
HETATM   25  S   UNL     1      -5.975  20.019  69.063  1.00  0.00    -0.302 SA 
HETATM   26  H2  UNL     1      -4.456  19.999  66.723  1.00  0.00     0.000 HD 
HETATM   27  H1  UNL     1      -5.300  18.823  65.719  1.00  0.00     0.000 HD 
ENDBRANCH  19  20
BRANCH  19  28
HETATM   28  N   UNL     1     -10.196  18.204  68.724  1.00  0.00    -0.374 NA 
HETATM   29  H   UNL     1     -11.099  17.772  68.917  1.00  0.00     0.000 HD 
BRANCH  28  30
HETATM   30  O   UNL     1     -10.082  19.540  68.334  1.00  0.00    -0.401 OA 
BRANCH  30  31
HETATM   31  C   UNL     1     -11.150  19.838  67.430  1.00  0.00    -0.032 C  
HETATM   32  O   UNL     1     -11.309  20.421  65.076  1.00  0.00     0.082 OA 
HETATM   33  C   UNL     1     -10.821  19.707  65.944  1.00  0.00    -0.317 C  
HETATM   34  O   UNL     1      -9.993  18.678  65.647  1.00  0.00    -0.455 OA 
ENDBRANCH  30  31
ENDBRANCH  28  30
ENDBRANCH  19  28
ENDBRANCH  17  19
ENDBRANCH   8  15
TORSDOF 7
ENDMDL
MODEL      213
REMARK 921   NORMALIZED FREE ENERGY PREDICTED BY IDOCK:   -2.85 KCAL/MOL
REMARK 922        TOTAL FREE ENERGY PREDICTED BY IDOCK:   -5.37 KCAL/MOL
REMARK 923 INTER-LIGAND FREE ENERGY PREDICTED BY IDOCK:   -6.25 KCAL/MOL
REMARK 924 INTRA-LIGAND FREE ENERGY PREDICTED BY IDOCK:    0.88 KCAL/MOL
REMARK 927      BINDING AFFINITY PREDICTED BY RF-SCORE:    0.00 PKD
ROOT
HETATM    1  C   UNL     1      -9.569  11.169  69.787  1.00  0.00     0.794 C  
HETATM    2  S   UNL     1     -11.270  11.507  69.335  1.00  0.00    -0.245 SA 
HETATM    3  CG2 UNL     1     -12.017  10.560  70.660  1.00  0.00    -0.357 C  
HETATM    4  CB  UNL     1     -11.369   9.227  71.021  1.00  0.00    -0.390 C  
HETATM    5  O   UNL     1      -7.579   8.763  68.750  1.00  0.00    -0.092 OA 
HETATM    6  CA  UNL     1     -10.095   8.881  70.660  1.00  0.00    -0.212 C  
HETATM    7  N   UNL     1      -9.353   9.736  69.886  1.00  0.00    -0.223 N  
HETATM    8  CA  UNL     1      -8.551  11.150  68.592  1.00  0.00    -0.151 C  
HETATM    9  C   UNL     1      -9.484   7.564  71.112  1.00  0.00    -0.158 C  
HETATM   10  C   UNL     1      -8.280   9.693  69.076  1.00  0.00    -0.113 C  
HETATM   11  OXT UNL     1      -9.814   6.984  72.136  1.00  0.00    -0.156 OA 
HETATM   12  O   UNL     1      -8.503   7.042  70.350  1.00  0.00    -0.137 OA 
ENDROOT
BRANCH   4  13
HETATM   13  CG1 UNL     1     -12.299   8.328  71.732  1.00  0.00    -0.366 C  
HETATM   14  CD1 UNL     1     -13.323   7.633  71.214  1.00  0.00    -0.276 C  
ENDBRANCH   4  13
BRANCH   8  15
HETATM   15  N   UNL     1      -9.081  11.221  67.190  1.00  0.00    -0.156 N  
HETATM   16  H   UNL     1      -8.900  12.051  66.626  1.00  0.00     0.000 HD 
HETATM   17  C   UNL     1      -9.809  10.180  66.656  1.00  0.00    -0.200 C  
HETATM   18  O   UNL     1     -10.147   9.203  67.309  1.00  0.00    -0.198 OA 
BRANCH  17  19
HETATM   19  C   UNL     1     -10.254  10.317  65.197  1.00  0.00    -0.224 C  
BRANCH  19  20
HETATM   20  C   UNL     1     -11.065  11.464  64.793  1.00  0.00    -0.188 A  
HETATM   21  N   UNL     1     -13.314  13.964  65.809  1.00  0.00    -0.579 NA 
HETATM   22  C   UNL     1     -11.127  11.986  63.514  1.00  0.00    -0.443 A  
HETATM   23  N   UNL     1     -11.860  12.139  65.722  1.00  0.00    -0.513 NA 
HETATM   24  C   UNL     1     -12.491  13.135  65.151  1.00  0.00    -0.483 A  
HETATM   25  S   UNL     1     -12.191  13.330  63.474  1.00  0.00    -0.321 SA 
HETATM   26  H2  UNL     1     -13.769  14.724  65.304  1.00  0.00     0.000 HD 
HETATM   27  H1  UNL     1     -13.492  13.847  66.807  1.00  0.00     0.000 HD 
ENDBRANCH  19  20
BRANCH  19  28
HETATM   28  N   UNL     1      -9.992   9.482  64.226  1.00  0.00    -0.216 NA 
HETATM   29  H   UNL     1     -10.603   8.696  64.010  1.00  0.00     0.000 HD 
BRANCH  28  30
HETATM   30  O   UNL     1      -8.823   9.735  63.505  1.00  0.00    -0.210 OA 
BRANCH  30  31
HETATM   31  C   UNL     1      -7.803   8.847  63.975  1.00  0.00    -0.137 C  
HETATM   32  O   UNL     1      -5.576   8.224  63.228  1.00  0.00    -0.065 OA 
HETATM   33  C   UNL     1      -6.395   9.110  63.445  1.00  0.00    -0.090 C  
HETATM   34  O   UNL     1      -6.092  10.421  63.299  1.00  0.00    -0.144 OA 
ENDBRANCH  30  31
ENDBRANCH  28  30
ENDBRANCH  19  28
ENDBRANCH  17  19
ENDBRANCH   8  15
TORSDOF 7
ENDMDL
MODEL      214
REMARK 921   NORMALIZED FREE ENERGY PREDICTED BY IDOCK:   -2.78 KCAL/MOL
REMARK 922        TOTAL FREE ENERGY PREDICTED BY IDOCK:   -5.28 KCAL/MOL
REMARK 923 INTER-LIGAND FREE ENERGY PREDICTED BY IDOCK:   -4.31 KCAL/MOL
REMARK 924 INTRA-LIGAND FREE ENERGY PREDICTED BY IDOCK:   -0.97 KCAL/MOL
REMARK 927      BINDING AFFINITY PREDICTED BY RF-SCORE:    0.00 PKD
ROOT
HETATM    1  C   UNL     1      -8.809  14.017  68.924  1.00  0.00     0.062 C  
HETATM    2  S   UNL     1      -7.047  14.274  69.120  1.00  0.00    -0.096 SA 
HETATM    3  CG2 UNL     1      -7.000  15.897  68.361  1.00  0.00    -0.116 C  
HETATM    4  CB  UNL     1      -7.868  16.119  67.126  1.00  0.00    -0.234 C  
HETATM    5  O   UNL     1     -10.441  12.557  66.469  1.00  0.00    -0.235 OA 
HETATM    6  CA  UNL     1      -8.915  15.309  66.781  1.00  0.00    -0.262 C  
HETATM    7  N   UNL     1      -9.190  14.196  67.534  1.00  0.00    -0.185 N  
HETATM    8  CA  UNL     1      -9.253  12.520  68.760  1.00  0.00     0.152 C  
HETATM    9  C   UNL     1      -9.786  15.626  65.575  1.00  0.00    -0.291 C  
HETATM   10  C   UNL     1      -9.842  13.026  67.409  1.00  0.00    -0.215 C  
HETATM   11  OXT UNL     1      -9.959  16.758  65.149  1.00  0.00    -0.422 OA 
HETATM   12  O   UNL     1     -10.422  14.597  64.981  1.00  0.00    -0.393 OA 
ENDROOT
BRANCH   4  13
HETATM   13  CG1 UNL     1      -7.402  17.259  66.313  1.00  0.00    -0.342 C  
HETATM   14  CD1 UNL     1      -7.750  18.549  66.436  1.00  0.00    -0.291 C  
ENDBRANCH   4  13
BRANCH   8  15
HETATM   15  N   UNL     1      -8.196  11.468  68.592  1.00  0.00    -0.222 N  
HETATM   16  H   UNL     1      -7.446  11.613  67.916  1.00  0.00     0.000 HD 
HETATM   17  C   UNL     1      -8.227  10.309  69.337  1.00  0.00    -0.165 C  
HETATM   18  O   UNL     1      -9.151  10.029  70.089  1.00  0.00    -0.181 OA 
BRANCH  17  19
HETATM   19  C   UNL     1      -7.073   9.323  69.141  1.00  0.00    -0.062 C  
BRANCH  19  20
HETATM   20  C   UNL     1      -6.639   8.486  70.258  1.00  0.00    -0.039 A  
HETATM   21  N   UNL     1      -6.994   5.419  71.931  1.00  0.00    -0.072 NA 
HETATM   22  C   UNL     1      -5.671   8.832  71.183  1.00  0.00    -0.039 A  
HETATM   23  N   UNL     1      -7.197   7.223  70.463  1.00  0.00    -0.065 NA 
HETATM   24  C   UNL     1      -6.658   6.646  71.509  1.00  0.00    -0.054 A  
HETATM   25  S   UNL     1      -5.462   7.567  72.322  1.00  0.00    -0.036 SA 
HETATM   26  H2  UNL     1      -6.530   5.026  72.750  1.00  0.00     0.000 HD 
HETATM   27  H1  UNL     1      -7.706   4.871  71.448  1.00  0.00     0.000 HD 
ENDBRANCH  19  20
BRANCH  19  28
HETATM   28  N   UNL     1      -6.389   9.141  68.042  1.00  0.00    -0.054 NA 
HETATM   29  H   UNL     1      -5.370   9.110  68.038  1.00  0.00     0.000 HD 
BRANCH  28  30
HETATM   30  O   UNL     1      -7.140   8.993  66.874  1.00  0.00    -0.077 OA 
BRANCH  30  31
HETATM   31  C   UNL     1      -7.148   7.607  66.517  1.00  0.00    -0.075 C  
HETATM   32  O   UNL     1      -8.833   6.030  65.753  1.00  0.00    -0.156 OA 
HETATM   33  C   UNL     1      -8.331   7.145  65.668  1.00  0.00    -0.136 C  
HETATM   34  O   UNL     1      -8.742   8.051  64.749  1.00  0.00    -0.006 OA 
ENDBRANCH  30  31
ENDBRANCH  28  30
ENDBRANCH  19  28
ENDBRANCH  17  19
ENDBRANCH   8  15
TORSDOF 7
ENDMDL
MODEL      215
REMARK 921   NORMALIZED FREE ENERGY PREDICTED BY IDOCK:   -2.77 KCAL/MOL
REMARK 922        TOTAL FREE ENERGY PREDICTED BY IDOCK:   -5.26 KCAL/MOL
REMARK 923 INTER-LIGAND FREE ENERGY PREDICTED BY IDOCK:   -4.25 KCAL/MOL
REMARK 924 INTRA-LIGAND FREE ENERGY PREDICTED BY IDOCK:   -1.01 KCAL/MOL
REMARK 927      BINDING AFFINITY PREDICTED BY RF-SCORE:    0.00 PKD
ROOT
HETATM    1  C   UNL     1      -8.724  13.971  69.415  1.00  0.00     0.603 C  
HETATM    2  S   UNL     1      -6.999  13.585  69.708  1.00  0.00     0.394 SA 
HETATM    3  CG2 UNL     1      -6.447  15.280  69.893  1.00  0.00    -0.162 C  
HETATM    4  CB  UNL     1      -7.049  16.320  68.952  1.00  0.00    -0.182 C  
HETATM    5  O   UNL     1     -10.295  14.450  66.564  1.00  0.00    -0.272 OA 
HETATM    6  CA  UNL     1      -8.202  16.123  68.243  1.00  0.00    -0.162 C  
HETATM    7  N   UNL     1      -8.846  14.914  68.316  1.00  0.00    -0.166 N  
HETATM    8  CA  UNL     1      -9.493  12.949  68.505  1.00  0.00    -0.096 C  
HETATM    9  C   UNL     1      -8.787  17.227  67.376  1.00  0.00    -0.218 C  
HETATM   10  C   UNL     1      -9.740  14.200  67.609  1.00  0.00    -0.228 C  
HETATM   11  OXT UNL     1      -8.613  18.417  67.594  1.00  0.00    -0.255 OA 
HETATM   12  O   UNL     1      -9.563  16.857  66.339  1.00  0.00    -0.258 OA 
ENDROOT
BRANCH   4  13
HETATM   13  CG1 UNL     1      -6.206  17.526  68.840  1.00  0.00    -0.201 C  
HETATM   14  CD1 UNL     1      -5.217  17.755  67.963  1.00  0.00    -0.145 C  
ENDBRANCH   4  13
BRANCH   8  15
HETATM   15  N   UNL     1      -8.714  11.868  67.814  1.00  0.00    -0.151 N  
HETATM   16  H   UNL     1      -7.729  12.019  67.596  1.00  0.00     0.000 HD 
HETATM   17  C   UNL     1      -9.312  10.674  67.472  1.00  0.00    -0.146 C  
HETATM   18  O   UNL     1     -10.509  10.468  67.614  1.00  0.00    -0.202 OA 
BRANCH  17  19
HETATM   19  C   UNL     1      -8.421   9.608  66.828  1.00  0.00    -0.127 C  
BRANCH  19  20
HETATM   20  C   UNL     1      -8.769   8.196  66.966  1.00  0.00    -0.131 A  
HETATM   21  N   UNL     1     -11.147   5.690  66.335  1.00  0.00    -0.758 NA 
HETATM   22  C   UNL     1      -7.969   7.232  67.551  1.00  0.00    -0.113 A  
HETATM   23  N   UNL     1      -9.987   7.710  66.486  1.00  0.00    -0.197 NA 
HETATM   24  C   UNL     1     -10.087   6.422  66.705  1.00  0.00    -0.179 A  
HETATM   25  S   UNL     1      -8.749   5.705  67.503  1.00  0.00    -0.105 SA 
HETATM   26  H2  UNL     1     -11.159   4.689  66.531  1.00  0.00     0.000 HD 
HETATM   27  H1  UNL     1     -11.943   6.116  65.861  1.00  0.00     0.000 HD 
ENDBRANCH  19  20
BRANCH  19  28
HETATM   28  N   UNL     1      -7.327   9.823  66.146  1.00  0.00    -0.098 NA 
HETATM   29  H   UNL     1      -6.488   9.259  66.278  1.00  0.00     0.000 HD 
BRANCH  28  30
HETATM   30  O   UNL     1      -7.378  10.873  65.227  1.00  0.00     0.039 OA 
BRANCH  30  31
HETATM   31  C   UNL     1      -7.426  10.316  63.909  1.00  0.00    -0.077 C  
HETATM   32  O   UNL     1      -8.761   8.615  62.800  1.00  0.00    -0.145 OA 
HETATM   33  C   UNL     1      -8.719   9.592  63.538  1.00  0.00    -0.222 C  
HETATM   34  O   UNL     1      -9.839  10.166  64.036  1.00  0.00    -0.290 OA 
ENDBRANCH  30  31
ENDBRANCH  28  30
ENDBRANCH  19  28
ENDBRANCH  17  19
ENDBRANCH   8  15
TORSDOF 7
ENDMDL
MODEL      216
REMARK 921   NORMALIZED FREE ENERGY PREDICTED BY IDOCK:   -2.71 KCAL/MOL
REMARK 922        TOTAL FREE ENERGY PREDICTED BY IDOCK:   -5.17 KCAL/MOL
REMARK 923 INTER-LIGAND FREE ENERGY PREDICTED BY IDOCK:   -4.71 KCAL/MOL
REMARK 924 INTRA-LIGAND FREE ENERGY PREDICTED BY IDOCK:   -0.46 KCAL/MOL
REMARK 927      BINDING AFFINITY PREDICTED BY RF-SCORE:    0.00 PKD
ROOT
HETATM    1  C   UNL     1     -11.022   6.649  68.606  1.00  0.00    -0.251 C  
HETATM    2  S   UNL     1      -9.812   5.413  69.074  1.00  0.00    -0.183 SA 
HETATM    3  CG2 UNL     1     -10.473   5.101  70.710  1.00  0.00    -0.193 C  
HETATM    4  CB  UNL     1     -10.970   6.304  71.506  1.00  0.00    -0.322 C  
HETATM    5  O   UNL     1     -10.888   9.920  68.927  1.00  0.00    -0.218 OA 
HETATM    6  CA  UNL     1     -11.268   7.514  70.943  1.00  0.00    -0.269 C  
HETATM    7  N   UNL     1     -11.068   7.707  69.601  1.00  0.00    -0.131 N  
HETATM    8  CA  UNL     1     -10.510   7.739  67.599  1.00  0.00    -0.239 C  
HETATM    9  C   UNL     1     -11.827   8.653  71.783  1.00  0.00    -0.337 C  
HETATM   10  C   UNL     1     -10.910   8.726  68.737  1.00  0.00     0.013 C  
HETATM   11  OXT UNL     1     -12.478   8.480  72.803  1.00  0.00    -0.320 OA 
HETATM   12  O   UNL     1     -11.615   9.909  71.346  1.00  0.00    -0.374 OA 
ENDROOT
BRANCH   4  13
HETATM   13  CG1 UNL     1     -11.018   6.032  72.956  1.00  0.00    -0.289 C  
HETATM   14  CD1 UNL     1     -10.581   4.939  73.599  1.00  0.00    -0.321 C  
ENDBRANCH   4  13
BRANCH   8  15
HETATM   15  N   UNL     1      -9.048   7.782  67.263  1.00  0.00    -0.129 N  
HETATM   16  H   UNL     1      -8.484   8.574  67.571  1.00  0.00     0.000 HD 
HETATM   17  C   UNL     1      -8.458   6.764  66.544  1.00  0.00    -0.124 C  
HETATM   18  O   UNL     1      -9.094   5.839  66.061  1.00  0.00    -0.156 OA 
BRANCH  17  19
HETATM   19  C   UNL     1      -6.949   6.865  66.304  1.00  0.00    -0.069 C  
BRANCH  19  20
HETATM   20  C   UNL     1      -6.343   8.170  66.050  1.00  0.00    -0.046 A  
HETATM   21  N   UNL     1      -5.716  10.701  63.697  1.00  0.00    -0.329 NA 
HETATM   22  C   UNL     1      -5.689   8.942  66.993  1.00  0.00    -0.045 A  
HETATM   23  N   UNL     1      -6.397   8.748  64.780  1.00  0.00    -0.065 NA 
HETATM   24  C   UNL     1      -5.802   9.916  64.781  1.00  0.00    -0.096 A  
HETATM   25  S   UNL     1      -5.133  10.400  66.283  1.00  0.00    -0.060 SA 
HETATM   26  H2  UNL     1      -5.244  11.603  63.768  1.00  0.00     0.000 HD 
HETATM   27  H1  UNL     1      -6.113  10.413  62.803  1.00  0.00     0.000 HD 
ENDBRANCH  19  20
BRANCH  19  28
HETATM   28  N   UNL     1      -6.101   5.871  66.285  1.00  0.00    -0.028 NA 
HETATM   29  H   UNL     1      -6.009   5.253  65.479  1.00  0.00     0.000 HD 
BRANCH  28  30
HETATM   30  O   UNL     1      -5.328   5.707  67.437  1.00  0.00    -0.004 OA 
BRANCH  30  31
HETATM   31  C   UNL     1      -6.077   4.925  68.373  1.00  0.00    -0.030 C  
HETATM   32  O   UNL     1      -6.345   4.913  70.789  1.00  0.00    -0.018 OA 
HETATM   33  C   UNL     1      -6.291   5.557  69.747  1.00  0.00    -0.033 C  
HETATM   34  O   UNL     1      -6.492   6.896  69.718  1.00  0.00    -0.041 OA 
ENDBRANCH  30  31
ENDBRANCH  28  30
ENDBRANCH  19  28
ENDBRANCH  17  19
ENDBRANCH   8  15
TORSDOF 7
ENDMDL
MODEL      217
REMARK 921   NORMALIZED FREE ENERGY PREDICTED BY IDOCK:   -2.68 KCAL/MOL
REMARK 922        TOTAL FREE ENERGY PREDICTED BY IDOCK:   -5.13 KCAL/MOL
REMARK 923 INTER-LIGAND FREE ENERGY PREDICTED BY IDOCK:   -4.38 KCAL/MOL
REMARK 924 INTRA-LIGAND FREE ENERGY PREDICTED BY IDOCK:   -0.74 KCAL/MOL
REMARK 927      BINDING AFFINITY PREDICTED BY RF-SCORE:    0.00 PKD
ROOT
HETATM    1  C   UNL     1      -6.755   8.783  71.772  1.00  0.00    -0.071 C  
HETATM    2  S   UNL     1      -8.495   8.642  72.177  1.00  0.00    -0.021 SA 
HETATM    3  CG2 UNL     1      -8.445   6.915  72.652  1.00  0.00    -0.116 C  
HETATM    4  CB  UNL     1      -7.579   5.981  71.813  1.00  0.00    -0.096 C  
HETATM    5  O   UNL     1      -5.252   8.366  68.875  1.00  0.00    -0.030 OA 
HETATM    6  CA  UNL     1      -6.591   6.415  70.971  1.00  0.00    -0.053 C  
HETATM    7  N   UNL     1      -6.380   7.761  70.810  1.00  0.00    -0.037 N  
HETATM    8  CA  UNL     1      -6.412   9.832  70.655  1.00  0.00    -0.109 C  
HETATM    9  C   UNL     1      -5.716   5.428  70.215  1.00  0.00    -0.016 C  
HETATM   10  C   UNL     1      -5.807   8.595  69.924  1.00  0.00    -0.028 C  
HETATM   11  OXT UNL     1      -5.475   4.298  70.614  1.00  0.00    -0.010 OA 
HETATM   12  O   UNL     1      -5.156   5.850  69.064  1.00  0.00    -0.003 OA 
ENDROOT
BRANCH   4  13
HETATM   13  CG1 UNL     1      -7.980   4.568  71.955  1.00  0.00    -0.099 C  
HETATM   14  CD1 UNL     1      -9.128   4.090  72.459  1.00  0.00    -0.136 C  
ENDBRANCH   4  13
BRANCH   8  15
HETATM   15  N   UNL     1      -7.536  10.478  69.900  1.00  0.00    -0.334 N  
HETATM   16  H   UNL     1      -8.498  10.326  70.204  1.00  0.00     0.000 HD 
HETATM   17  C   UNL     1      -7.286  11.274  68.803  1.00  0.00    -0.109 C  
HETATM   18  O   UNL     1      -6.168  11.416  68.328  1.00  0.00    -0.046 OA 
BRANCH  17  19
HETATM   19  C   UNL     1      -8.492  11.940  68.136  1.00  0.00    -0.163 C  
BRANCH  19  20
HETATM   20  C   UNL     1      -8.627  13.395  68.173  1.00  0.00    -0.174 A  
HETATM   21  N   UNL     1     -10.541  16.133  69.258  1.00  0.00    -0.258 NA 
HETATM   22  C   UNL     1      -7.729  14.293  67.624  1.00  0.00    -0.177 A  
HETATM   23  N   UNL     1      -9.719  13.995  68.803  1.00  0.00    -0.172 NA 
HETATM   24  C   UNL     1      -9.634  15.301  68.726  1.00  0.00    -0.214 A  
HETATM   25  S   UNL     1      -8.260  15.901  67.894  1.00  0.00    -0.147 SA 
HETATM   26  H2  UNL     1     -10.411  17.140  69.167  1.00  0.00     0.000 HD 
HETATM   27  H1  UNL     1     -11.358  15.776  69.752  1.00  0.00     0.000 HD 
ENDBRANCH  19  20
BRANCH  19  28
HETATM   28  N   UNL     1      -9.469  11.331  67.518  1.00  0.00    -0.168 NA 
HETATM   29  H   UNL     1      -9.987  11.771  66.758  1.00  0.00     0.000 HD 
BRANCH  28  30
HETATM   30  O   UNL     1      -9.760  10.039  67.963  1.00  0.00    -0.138 OA 
BRANCH  30  31
HETATM   31  C   UNL     1     -10.528  10.141  69.167  1.00  0.00    -0.222 C  
HETATM   32  O   UNL     1     -11.849  11.881  70.231  1.00  0.00    -0.331 OA 
HETATM   33  C   UNL     1     -11.553  11.272  69.210  1.00  0.00    -0.322 C  
HETATM   34  O   UNL     1     -12.172  11.506  68.028  1.00  0.00    -0.582 OA 
ENDBRANCH  30  31
ENDBRANCH  28  30
ENDBRANCH  19  28
ENDBRANCH  17  19
ENDBRANCH   8  15
TORSDOF 7
ENDMDL
MODEL      218
REMARK 921   NORMALIZED FREE ENERGY PREDICTED BY IDOCK:   -2.60 KCAL/MOL
REMARK 922        TOTAL FREE ENERGY PREDICTED BY IDOCK:   -5.01 KCAL/MOL
REMARK 923 INTER-LIGAND FREE ENERGY PREDICTED BY IDOCK:   -3.65 KCAL/MOL
REMARK 924 INTRA-LIGAND FREE ENERGY PREDICTED BY IDOCK:   -1.36 KCAL/MOL
REMARK 927      BINDING AFFINITY PREDICTED BY RF-SCORE:    0.00 PKD
ROOT
HETATM    1  C   UNL     1     -10.972   8.660  67.727  1.00  0.00     0.150 C  
HETATM    2  S   UNL     1     -10.899   8.764  69.514  1.00  0.00    -0.076 SA 
HETATM    3  CG2 UNL     1     -11.595  10.410  69.643  1.00  0.00    -0.239 C  
HETATM    4  CB  UNL     1     -11.158  11.440  68.606  1.00  0.00    -0.290 C  
HETATM    5  O   UNL     1      -8.682   9.449  65.500  1.00  0.00    -0.143 OA 
HETATM    6  CA  UNL     1     -10.570  11.113  67.414  1.00  0.00    -0.234 C  
HETATM    7  N   UNL     1     -10.295   9.800  67.131  1.00  0.00    -0.237 N  
HETATM    8  CA  UNL     1      -9.863   7.768  67.063  1.00  0.00    -0.219 C  
HETATM    9  C   UNL     1     -10.221  12.184  66.392  1.00  0.00    -0.220 C  
HETATM   10  C   UNL     1      -9.498   9.086  66.315  1.00  0.00    -0.242 C  
HETATM   11  OXT UNL     1     -10.819  13.246  66.301  1.00  0.00    -0.282 OA 
HETATM   12  O   UNL     1      -9.224  11.916  65.528  1.00  0.00    -0.145 OA 
ENDROOT
BRANCH   4  13
HETATM   13  CG1 UNL     1     -11.372  12.825  69.068  1.00  0.00    -0.346 C  
HETATM   14  CD1 UNL     1     -11.606  13.242  70.322  1.00  0.00    -0.096 C  
ENDBRANCH   4  13
BRANCH   8  15
HETATM   15  N   UNL     1      -8.749   7.243  67.920  1.00  0.00    -0.123 N  
HETATM   16  H   UNL     1      -7.945   7.838  68.121  1.00  0.00     0.000 HD 
HETATM   17  C   UNL     1      -8.798   5.967  68.440  1.00  0.00    -0.112 C  
HETATM   18  O   UNL     1      -9.682   5.170  68.157  1.00  0.00    -0.132 OA 
BRANCH  17  19
HETATM   19  C   UNL     1      -7.646   5.542  69.354  1.00  0.00    -0.078 C  
BRANCH  19  20
HETATM   20  C   UNL     1      -6.968   4.269  69.118  1.00  0.00    -0.050 A  
HETATM   21  N   UNL     1      -5.328   1.514  70.551  1.00  0.00    -0.004 NA 
HETATM   22  C   UNL     1      -6.783   3.682  67.879  1.00  0.00    -0.046 A  
HETATM   23  N   UNL     1      -6.448   3.529  70.181  1.00  0.00    -0.031 NA 
HETATM   24  C   UNL     1      -5.895   2.424  69.746  1.00  0.00    -0.022 A  
HETATM   25  S   UNL     1      -5.948   2.194  68.048  1.00  0.00    -0.024 SA 
HETATM   26  H2  UNL     1      -4.921   0.671  70.147  1.00  0.00     0.000 HD 
HETATM   27  H1  UNL     1      -5.297   1.651  71.562  1.00  0.00     0.000 HD 
ENDBRANCH  19  20
BRANCH  19  28
HETATM   28  N   UNL     1      -7.184   6.210  70.378  1.00  0.00    -0.083 NA 
HETATM   29  H   UNL     1      -6.496   5.813  71.017  1.00  0.00     0.000 HD 
BRANCH  28  30
HETATM   30  O   UNL     1      -7.691   7.501  70.542  1.00  0.00    -0.091 OA 
BRANCH  30  31
HETATM   31  C   UNL     1      -6.617   8.358  70.945  1.00  0.00    -0.041 C  
HETATM   32  O   UNL     1      -5.211  10.001  69.835  1.00  0.00    -0.037 OA 
HETATM   33  C   UNL     1      -6.332   9.544  70.025  1.00  0.00    -0.054 C  
HETATM   34  O   UNL     1      -7.438  10.106  69.484  1.00  0.00    -0.101 OA 
ENDBRANCH  30  31
ENDBRANCH  28  30
ENDBRANCH  19  28
ENDBRANCH  17  19
ENDBRANCH   8  15
TORSDOF 7
ENDMDL
MODEL      219
REMARK 921   NORMALIZED FREE ENERGY PREDICTED BY IDOCK:   -2.54 KCAL/MOL
REMARK 922        TOTAL FREE ENERGY PREDICTED BY IDOCK:   -4.93 KCAL/MOL
REMARK 923 INTER-LIGAND FREE ENERGY PREDICTED BY IDOCK:   -5.99 KCAL/MOL
REMARK 924 INTRA-LIGAND FREE ENERGY PREDICTED BY IDOCK:    1.06 KCAL/MOL
REMARK 927      BINDING AFFINITY PREDICTED BY RF-SCORE:    0.00 PKD
ROOT
HETATM    1  C   UNL     1      -7.189   9.693  68.842  1.00  0.00    -0.072 C  
HETATM    2  S   UNL     1      -8.173   9.952  70.317  1.00  0.00     0.068 SA 
HETATM    3  CG2 UNL     1      -9.045   8.389  70.247  1.00  0.00    -0.148 C  
HETATM    4  CB  UNL     1      -9.490   7.894  68.874  1.00  0.00    -0.150 C  
HETATM    5  O   UNL     1      -7.828  10.560  65.733  1.00  0.00    -0.149 OA 
HETATM    6  CA  UNL     1      -8.976   8.364  67.696  1.00  0.00    -0.135 C  
HETATM    7  N   UNL     1      -8.049   9.374  67.715  1.00  0.00    -0.106 N  
HETATM    8  CA  UNL     1      -6.799  10.998  68.060  1.00  0.00    -0.067 C  
HETATM    9  C   UNL     1      -9.413   7.779  66.362  1.00  0.00    -0.180 C  
HETATM   10  C   UNL     1      -7.553  10.307  66.883  1.00  0.00    -0.105 C  
HETATM   11  OXT UNL     1      -9.815   6.633  66.230  1.00  0.00    -0.088 OA 
HETATM   12  O   UNL     1      -9.310   8.568  65.275  1.00  0.00    -0.012 OA 
ENDROOT
BRANCH   4  13
HETATM   13  CG1 UNL     1     -10.587   6.911  68.963  1.00  0.00    -0.240 C  
HETATM   14  CD1 UNL     1     -10.637   5.807  69.723  1.00  0.00    -0.388 C  
ENDBRANCH   4  13
BRANCH   8  15
HETATM   15  N   UNL     1      -7.414  12.301  68.477  1.00  0.00    -0.111 N  
HETATM   16  H   UNL     1      -7.159  12.713  69.375  1.00  0.00     0.000 HD 
HETATM   17  C   UNL     1      -8.319  12.948  67.664  1.00  0.00    -0.176 C  
HETATM   18  O   UNL     1      -8.742  12.462  66.625  1.00  0.00    -0.193 OA 
BRANCH  17  19
HETATM   19  C   UNL     1      -8.846  14.303  68.146  1.00  0.00    -0.183 C  
BRANCH  19  20
HETATM   20  C   UNL     1     -10.039  14.357  68.987  1.00  0.00    -0.155 A  
HETATM   21  N   UNL     1     -11.883  16.199  71.341  1.00  0.00    -0.582 NA 
HETATM   22  C   UNL     1     -11.022  13.385  69.038  1.00  0.00    -0.224 A  
HETATM   23  N   UNL     1     -10.274  15.449  69.824  1.00  0.00    -0.272 NA 
HETATM   24  C   UNL     1     -11.400  15.295  70.476  1.00  0.00    -0.309 A  
HETATM   25  S   UNL     1     -12.248  13.842  70.147  1.00  0.00    -0.341 SA 
HETATM   26  H2  UNL     1     -12.770  16.019  71.811  1.00  0.00     0.000 HD 
HETATM   27  H1  UNL     1     -11.378  17.063  71.537  1.00  0.00     0.000 HD 
ENDBRANCH  19  20
BRANCH  19  28
HETATM   28  N   UNL     1      -8.335  15.474  67.869  1.00  0.00    -0.141 NA 
HETATM   29  H   UNL     1      -8.323  16.233  68.549  1.00  0.00     0.000 HD 
BRANCH  28  30
HETATM   30  O   UNL     1      -7.808  15.621  66.584  1.00  0.00    -0.221 OA 
BRANCH  30  31
HETATM   31  C   UNL     1      -6.969  16.780  66.572  1.00  0.00    -0.189 C  
HETATM   32  O   UNL     1      -6.872  18.828  65.266  1.00  0.00    -0.488 OA 
HETATM   33  C   UNL     1      -7.549  18.015  65.884  1.00  0.00    -0.136 C  
HETATM   34  O   UNL     1      -8.879  18.183  66.074  1.00  0.00    -0.499 OA 
ENDBRANCH  30  31
ENDBRANCH  28  30
ENDBRANCH  19  28
ENDBRANCH  17  19
ENDBRANCH   8  15
TORSDOF 7
ENDMDL
MODEL      220
REMARK 921   NORMALIZED FREE ENERGY PREDICTED BY IDOCK:   -2.53 KCAL/MOL
REMARK 922        TOTAL FREE ENERGY PREDICTED BY IDOCK:   -4.91 KCAL/MOL
REMARK 923 INTER-LIGAND FREE ENERGY PREDICTED BY IDOCK:   -4.17 KCAL/MOL
REMARK 924 INTRA-LIGAND FREE ENERGY PREDICTED BY IDOCK:   -0.74 KCAL/MOL
REMARK 927      BINDING AFFINITY PREDICTED BY RF-SCORE:    0.00 PKD
ROOT
HETATM    1  C   UNL     1      -9.915   9.427  69.342  1.00  0.00    -0.183 C  
HETATM    2  S   UNL     1      -8.276   9.468  70.065  1.00  0.00    -0.184 SA 
HETATM    3  CG2 UNL     1      -7.742  10.974  69.255  1.00  0.00    -0.068 C  
HETATM    4  CB  UNL     1      -8.151  11.170  67.798  1.00  0.00    -0.117 C  
HETATM    5  O   UNL     1     -10.944   7.930  66.598  1.00  0.00     0.015 OA 
HETATM    6  CA  UNL     1      -9.161  10.472  67.194  1.00  0.00    -0.143 C  
HETATM    7  N   UNL     1      -9.825   9.497  67.893  1.00  0.00    -0.150 N  
HETATM    8  CA  UNL     1     -10.523   7.993  69.145  1.00  0.00    -0.208 C  
HETATM    9  C   UNL     1      -9.566  10.765  65.757  1.00  0.00    -0.208 C  
HETATM   10  C   UNL     1     -10.588   8.417  67.646  1.00  0.00    -0.195 C  
HETATM   11  OXT UNL     1      -9.417  11.855  65.225  1.00  0.00    -0.189 OA 
HETATM   12  O   UNL     1     -10.149   9.770  65.062  1.00  0.00    -0.225 OA 
ENDROOT
BRANCH   4  13
HETATM   13  CG1 UNL     1      -7.284  12.139  67.100  1.00  0.00    -0.117 C  
HETATM   14  CD1 UNL     1      -5.958  12.295  67.232  1.00  0.00    -0.150 C  
ENDBRANCH   4  13
BRANCH   8  15
HETATM   15  N   UNL     1      -9.649   6.797  69.386  1.00  0.00    -0.147 N  
HETATM   16  H   UNL     1      -9.318   6.248  68.593  1.00  0.00     0.000 HD 
HETATM   17  C   UNL     1      -9.287   6.433  70.665  1.00  0.00    -0.162 C  
HETATM   18  O   UNL     1      -9.729   6.987  71.662  1.00  0.00    -0.162 OA 
BRANCH  17  19
HETATM   19  C   UNL     1      -8.342   5.237  70.809  1.00  0.00    -0.115 C  
BRANCH  19  20
HETATM   20  C   UNL     1      -8.806   3.901  70.443  1.00  0.00    -0.084 A  
HETATM   21  N   UNL     1      -9.689   1.718  67.836  1.00  0.00    -0.392 NA 
HETATM   22  C   UNL     1      -9.064   2.875  71.334  1.00  0.00    -0.106 A  
HETATM   23  N   UNL     1      -9.019   3.560  69.106  1.00  0.00    -0.106 NA 
HETATM   24  C   UNL     1      -9.422   2.317  69.006  1.00  0.00    -0.084 A  
HETATM   25  S   UNL     1      -9.583   1.475  70.491  1.00  0.00    -0.016 SA 
HETATM   26  H2  UNL     1      -9.993   0.745  67.829  1.00  0.00     0.000 HD 
HETATM   27  H1  UNL     1      -9.594   2.220  66.953  1.00  0.00     0.000 HD 
ENDBRANCH  19  20
BRANCH  19  28
HETATM   28  N   UNL     1      -7.113   5.271  71.253  1.00  0.00    -0.062 NA 
HETATM   29  H   UNL     1      -6.336   4.871  70.728  1.00  0.00     0.000 HD 
BRANCH  28  30
HETATM   30  O   UNL     1      -6.931   5.889  72.493  1.00  0.00    -0.076 OA 
BRANCH  30  31
HETATM   31  C   UNL     1      -6.043   6.998  72.316  1.00  0.00    -0.041 C  
HETATM   32  O   UNL     1      -6.102   9.363  72.874  1.00  0.00    -0.303 OA 
HETATM   33  C   UNL     1      -6.296   8.203  73.220  1.00  0.00    -0.094 C  
HETATM   34  O   UNL     1      -6.687   7.883  74.476  1.00  0.00    -0.102 OA 
ENDBRANCH  30  31
ENDBRANCH  28  30
ENDBRANCH  19  28
ENDBRANCH  17  19
ENDBRANCH   8  15
TORSDOF 7
ENDMDL
MODEL      221
REMARK 921   NORMALIZED FREE ENERGY PREDICTED BY IDOCK:   -2.44 KCAL/MOL
REMARK 922        TOTAL FREE ENERGY PREDICTED BY IDOCK:   -4.78 KCAL/MOL
REMARK 923 INTER-LIGAND FREE ENERGY PREDICTED BY IDOCK:   -3.48 KCAL/MOL
REMARK 924 INTRA-LIGAND FREE ENERGY PREDICTED BY IDOCK:   -1.31 KCAL/MOL
REMARK 927      BINDING AFFINITY PREDICTED BY RF-SCORE:    0.00 PKD
ROOT
HETATM    1  C   UNL     1      -8.160  11.648  69.050  1.00  0.00     0.083 C  
HETATM    2  S   UNL     1      -6.405  11.842  68.744  1.00  0.00    -0.067 SA 
HETATM    3  CG2 UNL     1      -6.389  13.632  68.820  1.00  0.00    -0.093 C  
HETATM    4  CB  UNL     1      -7.559  14.371  68.179  1.00  0.00    -0.128 C  
HETATM    5  O   UNL     1     -10.637  11.436  66.895  1.00  0.00    -0.229 OA 
HETATM    6  CA  UNL     1      -8.755  13.779  67.876  1.00  0.00    -0.183 C  
HETATM    7  N   UNL     1      -8.924  12.437  68.098  1.00  0.00    -0.193 N  
HETATM    8  CA  UNL     1      -8.817  10.383  68.393  1.00  0.00    -0.136 C  
HETATM    9  C   UNL     1      -9.907  14.589  67.302  1.00  0.00    -0.236 C  
HETATM   10  C   UNL     1      -9.724  11.436  67.688  1.00  0.00    -0.172 C  
HETATM   11  OXT UNL     1     -10.058  15.784  67.508  1.00  0.00    -0.238 OA 
HETATM   12  O   UNL     1     -10.819  13.932  66.559  1.00  0.00    -0.292 OA 
ENDROOT
BRANCH   4  13
HETATM   13  CG1 UNL     1      -7.225  15.772  67.855  1.00  0.00    -0.154 C  
HETATM   14  CD1 UNL     1      -6.073  16.415  68.097  1.00  0.00    -0.125 C  
ENDBRANCH   4  13
BRANCH   8  15
HETATM   15  N   UNL     1      -8.005   9.561  67.435  1.00  0.00    -0.106 N  
HETATM   16  H   UNL     1      -7.640   9.994  66.586  1.00  0.00     0.000 HD 
HETATM   17  C   UNL     1      -7.747   8.231  67.687  1.00  0.00    -0.099 C  
HETATM   18  O   UNL     1      -8.238   7.628  68.631  1.00  0.00    -0.125 OA 
BRANCH  17  19
HETATM   19  C   UNL     1      -6.858   7.492  66.684  1.00  0.00    -0.066 C  
BRANCH  19  20
HETATM   20  C   UNL     1      -7.369   6.304  66.003  1.00  0.00    -0.080 A  
HETATM   21  N   UNL     1      -6.748   2.982  65.045  1.00  0.00    -0.039 NA 
HETATM   22  C   UNL     1      -8.616   6.197  65.415  1.00  0.00    -0.106 A  
HETATM   23  N   UNL     1      -6.594   5.146  65.908  1.00  0.00    -0.047 NA 
HETATM   24  C   UNL     1      -7.246   4.206  65.270  1.00  0.00    -0.071 A  
HETATM   25  S   UNL     1      -8.817   4.636  64.733  1.00  0.00    -0.152 SA 
HETATM   26  H2  UNL     1      -7.312   2.294  64.547  1.00  0.00     0.000 HD 
HETATM   27  H1  UNL     1      -5.813   2.727  65.364  1.00  0.00     0.000 HD 
ENDBRANCH  19  20
BRANCH  19  28
HETATM   28  N   UNL     1      -5.631   7.806  66.359  1.00  0.00    -0.028 NA 
HETATM   29  H   UNL     1      -4.852   7.166  66.507  1.00  0.00     0.000 HD 
BRANCH  28  30
HETATM   30  O   UNL     1      -5.455   9.072  65.797  1.00  0.00    -0.040 OA 
BRANCH  30  31
HETATM   31  C   UNL     1      -5.336   8.922  64.378  1.00  0.00    -0.054 C  
HETATM   32  O   UNL     1      -6.144  10.143  62.438  1.00  0.00    -0.106 OA 
HETATM   33  C   UNL     1      -5.628  10.171  63.549  1.00  0.00    -0.126 C  
HETATM   34  O   UNL     1      -5.201  11.325  64.114  1.00  0.00    -0.067 OA 
ENDBRANCH  30  31
ENDBRANCH  28  30
ENDBRANCH  19  28
ENDBRANCH  17  19
ENDBRANCH   8  15
TORSDOF 7
ENDMDL
MODEL      222
REMARK 921   NORMALIZED FREE ENERGY PREDICTED BY IDOCK:   -2.32 KCAL/MOL
REMARK 922        TOTAL FREE ENERGY PREDICTED BY IDOCK:   -4.62 KCAL/MOL
REMARK 923 INTER-LIGAND FREE ENERGY PREDICTED BY IDOCK:   -4.27 KCAL/MOL
REMARK 924 INTRA-LIGAND FREE ENERGY PREDICTED BY IDOCK:   -0.35 KCAL/MOL
REMARK 927      BINDING AFFINITY PREDICTED BY RF-SCORE:    0.00 PKD
ROOT
HETATM    1  C   UNL     1      -7.239  12.405  67.160  1.00  0.00    -0.080 C  
HETATM    2  S   UNL     1      -8.596  11.292  66.797  1.00  0.00    -0.163 SA 
HETATM    3  CG2 UNL     1      -9.622  12.501  65.963  1.00  0.00    -0.202 C  
HETATM    4  CB  UNL     1      -9.669  13.908  66.552  1.00  0.00    -0.303 C  
HETATM    5  O   UNL     1      -6.704  14.230  69.845  1.00  0.00    -0.132 OA 
HETATM    6  CA  UNL     1      -8.739  14.393  67.430  1.00  0.00    -0.204 C  
HETATM    7  N   UNL     1      -7.727  13.576  67.867  1.00  0.00    -0.136 N  
HETATM    8  CA  UNL     1      -6.427  12.068  68.461  1.00  0.00    -0.058 C  
HETATM    9  C   UNL     1      -8.803  15.829  67.927  1.00  0.00    -0.175 C  
HETATM   10  C   UNL     1      -6.855  13.504  68.889  1.00  0.00    -0.111 C  
HETATM   11  OXT UNL     1      -9.308  16.740  67.287  1.00  0.00    -0.226 OA 
HETATM   12  O   UNL     1      -8.239  16.099  69.119  1.00  0.00    -0.233 OA 
ENDROOT
BRANCH   4  13
HETATM   13  CG1 UNL     1     -10.870  14.652  66.126  1.00  0.00    -0.321 C  
HETATM   14  CD1 UNL     1     -12.154  14.308  66.308  1.00  0.00    -0.433 C  
ENDBRANCH   4  13
BRANCH   8  15
HETATM   15  N   UNL     1      -6.943  10.996  69.377  1.00  0.00    -0.116 N  
HETATM   16  H   UNL     1      -7.564  11.248  70.146  1.00  0.00     0.000 HD 
HETATM   17  C   UNL     1      -6.588   9.678  69.192  1.00  0.00    -0.049 C  
HETATM   18  O   UNL     1      -5.770   9.322  68.354  1.00  0.00    -0.041 OA 
BRANCH  17  19
HETATM   19  C   UNL     1      -7.212   8.648  70.137  1.00  0.00    -0.052 C  
BRANCH  19  20
HETATM   20  C   UNL     1      -6.677   7.290  70.183  1.00  0.00    -0.054 A  
HETATM   21  N   UNL     1      -5.949   4.367  68.377  1.00  0.00    -0.026 NA 
HETATM   22  C   UNL     1      -6.161   6.673  71.308  1.00  0.00    -0.041 A  
HETATM   23  N   UNL     1      -6.644   6.496  69.034  1.00  0.00    -0.046 NA 
HETATM   24  C   UNL     1      -6.118   5.326  69.298  1.00  0.00    -0.025 A  
HETATM   25  S   UNL     1      -5.636   5.086  70.926  1.00  0.00    -0.012 SA 
HETATM   26  H2  UNL     1      -5.526   3.479  68.648  1.00  0.00     0.000 HD 
HETATM   27  H1  UNL     1      -6.236   4.509  67.408  1.00  0.00     0.000 HD 
ENDBRANCH  19  20
BRANCH  19  28
HETATM   28  N   UNL     1      -8.226   8.848  70.938  1.00  0.00    -0.159 NA 
HETATM   29  H   UNL     1      -8.299   9.682  71.521  1.00  0.00     0.000 HD 
BRANCH  28  30
HETATM   30  O   UNL     1      -9.202   7.849  70.946  1.00  0.00    -0.150 OA 
BRANCH  30  31
HETATM   31  C   UNL     1      -9.390   7.415  72.297  1.00  0.00    -0.142 C  
HETATM   32  O   UNL     1     -11.133   6.223  73.501  1.00  0.00    -0.160 OA 
HETATM   33  C   UNL     1     -10.427   6.312  72.503  1.00  0.00    -0.203 C  
HETATM   34  O   UNL     1     -10.456   5.385  71.517  1.00  0.00    -0.217 OA 
ENDBRANCH  30  31
ENDBRANCH  28  30
ENDBRANCH  19  28
ENDBRANCH  17  19
ENDBRANCH   8  15
TORSDOF 7
ENDMDL
MODEL      223
REMARK 921   NORMALIZED FREE ENERGY PREDICTED BY IDOCK:   -2.27 KCAL/MOL
REMARK 922        TOTAL FREE ENERGY PREDICTED BY IDOCK:   -4.55 KCAL/MOL
REMARK 923 INTER-LIGAND FREE ENERGY PREDICTED BY IDOCK:   -5.20 KCAL/MOL
REMARK 924 INTRA-LIGAND FREE ENERGY PREDICTED BY IDOCK:    0.64 KCAL/MOL
REMARK 927      BINDING AFFINITY PREDICTED BY RF-SCORE:    0.00 PKD
ROOT
HETATM    1  C   UNL     1     -11.825   9.927  69.529  1.00  0.00     0.173 C  
HETATM    2  S   UNL     1     -11.842   9.689  71.304  1.00  0.00    -0.407 SA 
HETATM    3  CG2 UNL     1     -12.708  11.208  71.697  1.00  0.00    -0.360 C  
HETATM    4  CB  UNL     1     -12.335  12.455  70.901  1.00  0.00    -0.358 C  
HETATM    5  O   UNL     1      -9.534  11.340  67.638  1.00  0.00    -0.164 OA 
HETATM    6  CA  UNL     1     -11.665  12.420  69.709  1.00  0.00    -0.291 C  
HETATM    7  N   UNL     1     -11.244  11.217  69.201  1.00  0.00    -0.250 N  
HETATM    8  CA  UNL     1     -10.603   9.287  68.779  1.00  0.00    -0.193 C  
HETATM    9  C   UNL     1     -11.384  13.696  68.930  1.00  0.00    -0.290 C  
HETATM   10  C   UNL     1     -10.343  10.753  68.317  1.00  0.00    -0.173 C  
HETATM   11  OXT UNL     1     -12.083  14.696  69.003  1.00  0.00    -0.295 OA 
HETATM   12  O   UNL     1     -10.327  13.694  68.095  1.00  0.00    -0.232 OA 
ENDROOT
BRANCH   4  13
HETATM   13  CG1 UNL     1     -12.710  13.698  71.602  1.00  0.00    -0.396 C  
HETATM   14  CD1 UNL     1     -13.907  14.304  71.609  1.00  0.00    -0.473 C  
ENDBRANCH   4  13
BRANCH   8  15
HETATM   15  N   UNL     1      -9.479   8.711  69.590  1.00  0.00    -0.161 N  
HETATM   16  H   UNL     1      -9.443   7.705  69.755  1.00  0.00     0.000 HD 
HETATM   17  C   UNL     1      -8.497   9.523  70.115  1.00  0.00    -0.205 C  
HETATM   18  O   UNL     1      -8.536  10.743  70.040  1.00  0.00     0.403 OA 
BRANCH  17  19
HETATM   19  C   UNL     1      -7.358   8.838  70.875  1.00  0.00    -0.087 C  
BRANCH  19  20
HETATM   20  C   UNL     1      -7.621   8.233  72.179  1.00  0.00    -0.121 A  
HETATM   21  N   UNL     1     -10.053   7.184  74.485  1.00  0.00    -0.404 NA 
HETATM   22  C   UNL     1      -6.653   7.787  73.060  1.00  0.00    -0.069 A  
HETATM   23  N   UNL     1      -8.929   8.053  72.633  1.00  0.00    -0.194 NA 
HETATM   24  C   UNL     1      -8.933   7.488  73.815  1.00  0.00    -0.248 A  
HETATM   25  S   UNL     1      -7.386   7.141  74.469  1.00  0.00    -0.115 SA 
HETATM   26  H2  UNL     1      -9.985   6.738  75.400  1.00  0.00     0.000 HD 
HETATM   27  H1  UNL     1     -10.973   7.390  74.096  1.00  0.00     0.000 HD 
ENDBRANCH  19  20
BRANCH  19  28
HETATM   28  N   UNL     1      -6.116   8.738  70.482  1.00  0.00    -0.031 NA 
HETATM   29  H   UNL     1      -5.431   8.181  70.991  1.00  0.00     0.000 HD 
BRANCH  28  30
HETATM   30  O   UNL     1      -5.786   9.441  69.321  1.00  0.00    -0.035 OA 
BRANCH  30  31
HETATM   31  C   UNL     1      -5.430   8.494  68.307  1.00  0.00    -0.034 C  
HETATM   32  O   UNL     1      -6.589   7.429  66.456  1.00  0.00    -0.050 OA 
HETATM   33  C   UNL     1      -6.345   8.452  67.085  1.00  0.00    -0.057 C  
HETATM   34  O   UNL     1      -6.816   9.662  66.701  1.00  0.00    -0.081 OA 
ENDBRANCH  30  31
ENDBRANCH  28  30
ENDBRANCH  19  28
ENDBRANCH  17  19
ENDBRANCH   8  15
TORSDOF 7
ENDMDL
MODEL      224
REMARK 921   NORMALIZED FREE ENERGY PREDICTED BY IDOCK:   -2.23 KCAL/MOL
REMARK 922        TOTAL FREE ENERGY PREDICTED BY IDOCK:   -4.49 KCAL/MOL
REMARK 923 INTER-LIGAND FREE ENERGY PREDICTED BY IDOCK:   -3.80 KCAL/MOL
REMARK 924 INTRA-LIGAND FREE ENERGY PREDICTED BY IDOCK:   -0.70 KCAL/MOL
REMARK 927      BINDING AFFINITY PREDICTED BY RF-SCORE:    0.00 PKD
ROOT
HETATM    1  C   UNL     1      -6.776  12.612  67.474  1.00  0.00    -0.156 C  
HETATM    2  S   UNL     1      -8.432  12.385  66.829  1.00  0.00    -0.031 SA 
HETATM    3  CG2 UNL     1      -8.701  14.097  66.372  1.00  0.00     0.181 C  
HETATM    4  CB  UNL     1      -8.184  15.167  67.329  1.00  0.00    -0.234 C  
HETATM    5  O   UNL     1      -5.810  13.244  70.555  1.00  0.00    -0.167 OA 
HETATM    6  CA  UNL     1      -7.249  14.929  68.299  1.00  0.00    -0.113 C  
HETATM    7  N   UNL     1      -6.770  13.657  68.483  1.00  0.00    -0.086 N  
HETATM    8  CA  UNL     1      -6.365  11.624  68.623  1.00  0.00    -0.055 C  
HETATM    9  C   UNL     1      -6.724  16.056  69.175  1.00  0.00    -0.174 C  
HETATM   10  C   UNL     1      -6.154  12.937  69.437  1.00  0.00    -0.109 C  
HETATM   11  OXT UNL     1      -6.686  17.224  68.818  1.00  0.00    -0.182 OA 
HETATM   12  O   UNL     1      -6.247  15.726  70.391  1.00  0.00    -0.074 OA 
ENDROOT
BRANCH   4  13
HETATM   13  CG1 UNL     1      -8.864  16.463  67.137  1.00  0.00    -0.214 C  
HETATM   14  CD1 UNL     1     -10.177  16.682  66.968  1.00  0.00    -0.290 C  
ENDBRANCH   4  13
BRANCH   8  15
HETATM   15  N   UNL     1      -7.411  10.723  69.210  1.00  0.00    -0.130 N  
HETATM   16  H   UNL     1      -8.108  11.110  69.848  1.00  0.00     0.000 HD 
HETATM   17  C   UNL     1      -7.444   9.381  68.900  1.00  0.00    -0.074 C  
HETATM   18  O   UNL     1      -6.582   8.836  68.224  1.00  0.00    -0.059 OA 
BRANCH  17  19
HETATM   19  C   UNL     1      -8.585   8.554  69.497  1.00  0.00    -0.131 C  
BRANCH  19  20
HETATM   20  C   UNL     1      -9.902   9.162  69.676  1.00  0.00    -0.180 A  
HETATM   21  N   UNL     1     -12.707   9.513  71.760  1.00  0.00    -0.373 NA 
HETATM   22  C   UNL     1     -10.512  10.019  68.779  1.00  0.00    -0.208 A  
HETATM   23  N   UNL     1     -10.655   8.909  70.824  1.00  0.00    -0.211 NA 
HETATM   24  C   UNL     1     -11.791   9.560  70.782  1.00  0.00    -0.277 A  
HETATM   25  S   UNL     1     -12.044  10.508  69.375  1.00  0.00     0.005 SA 
HETATM   26  H2  UNL     1     -13.569  10.050  71.667  1.00  0.00     0.000 HD 
HETATM   27  H1  UNL     1     -12.557   8.949  72.597  1.00  0.00     0.000 HD 
ENDBRANCH  19  20
BRANCH  19  28
HETATM   28  N   UNL     1      -8.514   7.311  69.896  1.00  0.00    -0.138 NA 
HETATM   29  H   UNL     1      -9.286   6.657  69.771  1.00  0.00     0.000 HD 
BRANCH  28  30
HETATM   30  O   UNL     1      -7.315   6.936  70.506  1.00  0.00    -0.074 OA 
BRANCH  30  31
HETATM   31  C   UNL     1      -7.506   5.660  71.126  1.00  0.00    -0.090 C  
HETATM   32  O   UNL     1      -6.271   4.319  72.734  1.00  0.00    -0.015 OA 
HETATM   33  C   UNL     1      -6.709   5.416  72.406  1.00  0.00    -0.070 C  
HETATM   34  O   UNL     1      -6.584   6.506  73.199  1.00  0.00    -0.067 OA 
ENDBRANCH  30  31
ENDBRANCH  28  30
ENDBRANCH  19  28
ENDBRANCH  17  19
ENDBRANCH   8  15
TORSDOF 7
ENDMDL
MODEL      225
REMARK 921   NORMALIZED FREE ENERGY PREDICTED BY IDOCK:   -2.21 KCAL/MOL
REMARK 922        TOTAL FREE ENERGY PREDICTED BY IDOCK:   -4.47 KCAL/MOL
REMARK 923 INTER-LIGAND FREE ENERGY PREDICTED BY IDOCK:   -5.28 KCAL/MOL
REMARK 924 INTRA-LIGAND FREE ENERGY PREDICTED BY IDOCK:    0.81 KCAL/MOL
REMARK 927      BINDING AFFINITY PREDICTED BY RF-SCORE:    0.00 PKD
ROOT
HETATM    1  C   UNL     1      -7.596  15.095  69.091  1.00  0.00    -0.188 C  
HETATM    2  S   UNL     1      -6.094  14.616  68.239  1.00  0.00    -0.129 SA 
HETATM    3  CG2 UNL     1      -5.883  16.149  67.335  1.00  0.00    -0.134 C  
HETATM    4  CB  UNL     1      -7.137  16.806  66.768  1.00  0.00    -0.270 C  
HETATM    5  O   UNL     1     -10.730  14.625  68.208  1.00  0.00    -0.232 OA 
HETATM    6  CA  UNL     1      -8.405  16.510  67.189  1.00  0.00    -0.180 C  
HETATM    7  N   UNL     1      -8.596  15.534  68.133  1.00  0.00    -0.151 N  
HETATM    8  CA  UNL     1      -8.574  13.916  69.437  1.00  0.00     0.675 C  
HETATM    9  C   UNL     1      -9.610  17.252  66.631  1.00  0.00    -0.276 C  
HETATM   10  C   UNL     1      -9.583  14.733  68.574  1.00  0.00    -0.218 C  
HETATM   11  OXT UNL     1      -9.555  18.394  66.198  1.00  0.00    -0.452 OA 
HETATM   12  O   UNL     1     -10.797  16.616  66.656  1.00  0.00    -0.184 OA 
ENDROOT
BRANCH   4  13
HETATM   13  CG1 UNL     1      -6.830  17.737  65.664  1.00  0.00    -0.109 C  
HETATM   14  CD1 UNL     1      -6.186  18.912  65.740  1.00  0.00    -0.257 C  
ENDBRANCH   4  13
BRANCH   8  15
HETATM   15  N   UNL     1      -8.285  12.552  68.882  1.00  0.00    -0.340 N  
HETATM   16  H   UNL     1      -7.894  11.834  69.492  1.00  0.00     0.000 HD 
HETATM   17  C   UNL     1      -8.542  12.257  67.561  1.00  0.00    -0.174 C  
HETATM   18  O   UNL     1      -8.916  13.097  66.755  1.00  0.00    -0.226 OA 
BRANCH  17  19
HETATM   19  C   UNL     1      -8.274  10.821  67.102  1.00  0.00    -0.123 C  
BRANCH  19  20
HETATM   20  C   UNL     1      -8.167  10.526  65.675  1.00  0.00    -0.161 A  
HETATM   21  N   UNL     1      -9.826  10.375  62.583  1.00  0.00    -0.692 NA 
HETATM   22  C   UNL     1      -7.011  10.132  65.027  1.00  0.00    -0.135 A  
HETATM   23  N   UNL     1      -9.278  10.639  64.837  1.00  0.00    -0.204 NA 
HETATM   24  C   UNL     1      -8.956  10.339  63.603  1.00  0.00    -0.240 A  
HETATM   25  S   UNL     1      -7.319   9.895  63.357  1.00  0.00    -0.136 SA 
HETATM   26  H2  UNL     1      -9.507  10.135  61.644  1.00  0.00     0.000 HD 
HETATM   27  H1  UNL     1     -10.800  10.639  62.729  1.00  0.00     0.000 HD 
ENDBRANCH  19  20
BRANCH  19  28
HETATM   28  N   UNL     1      -8.136   9.775  67.874  1.00  0.00    -0.112 NA 
HETATM   29  H   UNL     1      -7.325   9.653  68.479  1.00  0.00     0.000 HD 
BRANCH  28  30
HETATM   30  O   UNL     1      -9.169   8.836  67.818  1.00  0.00    -0.134 OA 
BRANCH  30  31
HETATM   31  C   UNL     1      -8.660   7.580  68.279  1.00  0.00    -0.124 C  
HETATM   32  O   UNL     1      -7.474   6.820  70.260  1.00  0.00    -0.085 OA 
HETATM   33  C   UNL     1      -8.385   7.484  69.779  1.00  0.00    -0.134 C  
HETATM   34  O   UNL     1      -9.282   8.140  70.552  1.00  0.00    -0.151 OA 
ENDBRANCH  30  31
ENDBRANCH  28  30
ENDBRANCH  19  28
ENDBRANCH  17  19
ENDBRANCH   8  15
TORSDOF 7
ENDMDL
MODEL      226
REMARK 921   NORMALIZED FREE ENERGY PREDICTED BY IDOCK:   -2.11 KCAL/MOL
REMARK 922        TOTAL FREE ENERGY PREDICTED BY IDOCK:   -4.32 KCAL/MOL
REMARK 923 INTER-LIGAND FREE ENERGY PREDICTED BY IDOCK:   -3.67 KCAL/MOL
REMARK 924 INTRA-LIGAND FREE ENERGY PREDICTED BY IDOCK:   -0.65 KCAL/MOL
REMARK 927      BINDING AFFINITY PREDICTED BY RF-SCORE:    0.00 PKD
ROOT
HETATM    1  C   UNL     1      -9.791  19.590  68.782  1.00  0.00    -0.451 C  
HETATM    2  S   UNL     1      -9.908  19.273  70.542  1.00  0.00     1.836 SA 
HETATM    3  CG2 UNL     1      -8.480  20.248  71.012  1.00  0.00     1.986 C  
HETATM    4  CB  UNL     1      -7.254  20.178  70.106  1.00  0.00     0.330 C  
HETATM    5  O   UNL     1      -8.247  17.853  66.453  1.00  0.00    -0.259 OA 
HETATM    6  CA  UNL     1      -7.290  19.722  68.817  1.00  0.00    -0.304 C  
HETATM    7  N   UNL     1      -8.466  19.243  68.298  1.00  0.00    -0.320 N  
HETATM    8  CA  UNL     1     -10.331  18.441  67.859  1.00  0.00    -0.401 C  
HETATM    9  C   UNL     1      -6.045  19.744  67.943  1.00  0.00    -0.214 C  
HETATM   10  C   UNL     1      -8.879  18.453  67.291  1.00  0.00    -0.259 C  
HETATM   11  OXT UNL     1      -5.132  20.542  68.092  1.00  0.00    -0.192 OA 
HETATM   12  O   UNL     1      -5.979  18.853  66.935  1.00  0.00    -0.162 OA 
ENDROOT
BRANCH   4  13
HETATM   13  CG1 UNL     1      -6.019  20.585  70.804  1.00  0.00    -0.154 C  
HETATM   14  CD1 UNL     1      -5.237  19.830  71.591  1.00  0.00    -0.417 C  
ENDBRANCH   4  13
BRANCH   8  15
HETATM   15  N   UNL     1     -10.714  17.131  68.484  1.00  0.00    -0.349 N  
HETATM   16  H   UNL     1     -10.684  17.031  69.499  1.00  0.00     0.000 HD 
HETATM   17  C   UNL     1     -11.105  16.064  67.705  1.00  0.00    -0.273 C  
HETATM   18  O   UNL     1     -11.067  16.085  66.483  1.00  0.00    -0.156 OA 
BRANCH  17  19
HETATM   19  C   UNL     1     -11.537  14.789  68.435  1.00  0.00    -0.324 C  
BRANCH  19  20
HETATM   20  C   UNL     1     -10.680  13.606  68.393  1.00  0.00    -0.258 A  
HETATM   21  N   UNL     1      -7.396  12.364  68.473  1.00  0.00    -0.101 NA 
HETATM   22  C   UNL     1     -11.127  12.301  68.298  1.00  0.00    -0.240 A  
HETATM   23  N   UNL     1      -9.291  13.728  68.458  1.00  0.00    -0.180 NA 
HETATM   24  C   UNL     1      -8.723  12.548  68.414  1.00  0.00    -0.122 A  
HETATM   25  S   UNL     1      -9.797  11.219  68.284  1.00  0.00    -0.203 SA 
HETATM   26  H2  UNL     1      -7.019  11.417  68.440  1.00  0.00     0.000 HD 
HETATM   27  H1  UNL     1      -6.756  13.155  68.549  1.00  0.00     0.000 HD 
ENDBRANCH  19  20
BRANCH  19  28
HETATM   28  N   UNL     1     -12.642  14.623  69.114  1.00  0.00    -0.543 NA 
HETATM   29  H   UNL     1     -13.496  15.133  68.891  1.00  0.00     0.000 HD 
BRANCH  28  30
HETATM   30  O   UNL     1     -12.579  13.703  70.163  1.00  0.00    -0.262 OA 
BRANCH  30  31
HETATM   31  C   UNL     1     -11.991  14.351  71.296  1.00  0.00    -0.291 C  
HETATM   32  O   UNL     1     -11.887  16.637  72.116  1.00  0.00    -0.437 OA 
HETATM   33  C   UNL     1     -12.558  15.726  71.645  1.00  0.00    -0.459 C  
HETATM   34  O   UNL     1     -13.894  15.839  71.459  1.00  0.00    -0.493 OA 
ENDBRANCH  30  31
ENDBRANCH  28  30
ENDBRANCH  19  28
ENDBRANCH  17  19
ENDBRANCH   8  15
TORSDOF 7
ENDMDL
MODEL      227
REMARK 921   NORMALIZED FREE ENERGY PREDICTED BY IDOCK:   -1.74 KCAL/MOL
REMARK 922        TOTAL FREE ENERGY PREDICTED BY IDOCK:   -3.80 KCAL/MOL
REMARK 923 INTER-LIGAND FREE ENERGY PREDICTED BY IDOCK:   -4.54 KCAL/MOL
REMARK 924 INTRA-LIGAND FREE ENERGY PREDICTED BY IDOCK:    0.74 KCAL/MOL
REMARK 927      BINDING AFFINITY PREDICTED BY RF-SCORE:    0.00 PKD
ROOT
HETATM    1  C   UNL     1      -9.906   9.123  69.754  1.00  0.00    -0.181 C  
HETATM    2  S   UNL     1      -8.386   8.886  70.673  1.00  0.00    -0.184 SA 
HETATM    3  CG2 UNL     1      -7.498  10.259  69.941  1.00  0.00    -0.158 C  
HETATM    4  CB  UNL     1      -7.685  10.498  68.446  1.00  0.00    -0.104 C  
HETATM    5  O   UNL     1     -10.842   7.783  66.898  1.00  0.00    -0.311 OA 
HETATM    6  CA  UNL     1      -8.722   9.979  67.719  1.00  0.00    -0.125 C  
HETATM    7  N   UNL     1      -9.629   9.150  68.328  1.00  0.00    -0.146 N  
HETATM    8  CA  UNL     1     -10.731   7.816  69.477  1.00  0.00    -0.198 C  
HETATM    9  C   UNL     1      -8.890  10.313  66.245  1.00  0.00    -0.146 C  
HETATM   10  C   UNL     1     -10.536   8.219  67.984  1.00  0.00    -0.127 C  
HETATM   11  OXT UNL     1      -8.486  11.350  65.740  1.00  0.00    -0.089 OA 
HETATM   12  O   UNL     1      -9.552   9.425  65.479  1.00  0.00    -0.268 OA 
ENDROOT
BRANCH   4  13
HETATM   13  CG1 UNL     1      -6.581  11.286  67.864  1.00  0.00    -0.059 C  
HETATM   14  CD1 UNL     1      -5.360  10.851  67.516  1.00  0.00    -0.040 C  
ENDBRANCH   4  13
BRANCH   8  15
HETATM   15  N   UNL     1     -10.119   6.489  69.820  1.00  0.00    -0.175 N  
HETATM   16  H   UNL     1     -10.441   5.985  70.647  1.00  0.00     0.000 HD 
HETATM   17  C   UNL     1      -9.129   5.943  69.033  1.00  0.00    -0.121 C  
HETATM   18  O   UNL     1      -8.629   6.538  68.088  1.00  0.00    -0.119 OA 
BRANCH  17  19
HETATM   19  C   UNL     1      -8.610   4.557  69.426  1.00  0.00    -0.081 C  
BRANCH  19  20
HETATM   20  C   UNL     1      -8.351   3.561  68.389  1.00  0.00    -0.082 A  
HETATM   21  N   UNL     1      -9.577   1.914  65.539  1.00  0.00    -0.332 NA 
HETATM   22  C   UNL     1      -7.185   2.830  68.259  1.00  0.00    -0.049 A  
HETATM   23  N   UNL     1      -9.311   3.279  67.415  1.00  0.00    -0.203 NA 
HETATM   24  C   UNL     1      -8.869   2.367  66.584  1.00  0.00    -0.129 A  
HETATM   25  S   UNL     1      -7.292   1.778  66.909  1.00  0.00    -0.056 SA 
HETATM   26  H2  UNL     1      -9.170   1.206  64.927  1.00  0.00     0.000 HD 
HETATM   27  H1  UNL     1     -10.515   2.264  65.346  1.00  0.00     0.000 HD 
ENDBRANCH  19  20
BRANCH  19  28
HETATM   28  N   UNL     1      -8.372   4.136  70.641  1.00  0.00    -0.069 NA 
HETATM   29  H   UNL     1      -7.588   3.521  70.856  1.00  0.00     0.000 HD 
BRANCH  28  30
HETATM   30  O   UNL     1      -9.257   4.582  71.624  1.00  0.00    -0.127 OA 
BRANCH  30  31
HETATM   31  C   UNL     1      -9.946   3.446  72.158  1.00  0.00    -0.160 C  
HETATM   32  O   UNL     1     -11.011   2.910  74.276  1.00  0.00    -0.150 OA 
HETATM   33  C   UNL     1     -10.837   3.715  73.369  1.00  0.00    -0.218 C  
HETATM   34  O   UNL     1     -11.487   4.902  73.327  1.00  0.00    -0.336 OA 
ENDBRANCH  30  31
ENDBRANCH  28  30
ENDBRANCH  19  28
ENDBRANCH  17  19
ENDBRANCH   8  15
TORSDOF 7
ENDMDL
MODEL      228
REMARK 921   NORMALIZED FREE ENERGY PREDICTED BY IDOCK:   -1.66 KCAL/MOL
REMARK 922        TOTAL FREE ENERGY PREDICTED BY IDOCK:   -3.70 KCAL/MOL
REMARK 923 INTER-LIGAND FREE ENERGY PREDICTED BY IDOCK:   -3.92 KCAL/MOL
REMARK 924 INTRA-LIGAND FREE ENERGY PREDICTED BY IDOCK:    0.23 KCAL/MOL
REMARK 927      BINDING AFFINITY PREDICTED BY RF-SCORE:    0.00 PKD
ROOT
HETATM    1  C   UNL     1     -10.535   8.412  68.777  1.00  0.00    -0.178 C  
HETATM    2  S   UNL     1      -9.617   9.336  70.007  1.00  0.00    -0.226 SA 
HETATM    3  CG2 UNL     1      -9.341  10.789  68.994  1.00  0.00    -0.156 C  
HETATM    4  CB  UNL     1      -9.012  10.565  67.521  1.00  0.00    -0.137 C  
HETATM    5  O   UNL     1      -9.442   6.251  66.550  1.00  0.00    -0.152 OA 
HETATM    6  CA  UNL     1      -9.255   9.392  66.860  1.00  0.00    -0.140 C  
HETATM    7  N   UNL     1      -9.772   8.322  67.544  1.00  0.00    -0.156 N  
HETATM    8  CA  UNL     1     -10.397   6.851  68.872  1.00  0.00    -0.189 C  
HETATM    9  C   UNL     1      -8.968   9.257  65.373  1.00  0.00    -0.207 C  
HETATM   10  C   UNL     1      -9.859   6.986  67.415  1.00  0.00    -0.154 C  
HETATM   11  OXT UNL     1      -8.983  10.201  64.596  1.00  0.00    -0.174 OA 
HETATM   12  O   UNL     1      -8.721   8.021  64.898  1.00  0.00    -0.042 OA 
ENDROOT
BRANCH   4  13
HETATM   13  CG1 UNL     1      -8.334  11.729  66.918  1.00  0.00    -0.170 C  
HETATM   14  CD1 UNL     1      -7.333  12.455  67.439  1.00  0.00    -0.149 C  
ENDBRANCH   4  13
BRANCH   8  15
HETATM   15  N   UNL     1      -9.393   6.271  69.825  1.00  0.00    -0.145 N  
HETATM   16  H   UNL     1      -9.715   5.818  70.680  1.00  0.00     0.000 HD 
HETATM   17  C   UNL     1      -8.042   6.344  69.560  1.00  0.00    -0.118 C  
HETATM   18  O   UNL     1      -7.586   6.959  68.606  1.00  0.00    -0.100 OA 
BRANCH  17  19
HETATM   19  C   UNL     1      -7.098   5.670  70.559  1.00  0.00    -0.066 C  
BRANCH  19  20
HETATM   20  C   UNL     1      -6.967   6.213  71.909  1.00  0.00    -0.077 A  
HETATM   21  N   UNL     1      -8.072   8.616  74.219  1.00  0.00    -0.389 NA 
HETATM   22  C   UNL     1      -6.114   5.729  72.884  1.00  0.00    -0.044 A  
HETATM   23  N   UNL     1      -7.739   7.302  72.319  1.00  0.00    -0.091 NA 
HETATM   24  C   UNL     1      -7.468   7.617  73.562  1.00  0.00    -0.112 A  
HETATM   25  S   UNL     1      -6.275   6.648  74.322  1.00  0.00    -0.065 SA 
HETATM   26  H2  UNL     1      -7.819   8.804  75.189  1.00  0.00     0.000 HD 
HETATM   27  H1  UNL     1      -8.782   9.193  73.767  1.00  0.00     0.000 HD 
ENDBRANCH  19  20
BRANCH  19  28
HETATM   28  N   UNL     1      -6.351   4.622  70.331  1.00  0.00    -0.025 NA 
HETATM   29  H   UNL     1      -5.563   4.379  70.931  1.00  0.00     0.000 HD 
BRANCH  28  30
HETATM   30  O   UNL     1      -6.698   3.857  69.216  1.00  0.00    -0.042 OA 
BRANCH  30  31
HETATM   31  C   UNL     1      -7.349   2.666  69.672  1.00  0.00    -0.044 C  
HETATM   32  O   UNL     1      -9.543   2.135  70.572  1.00  0.00    -0.122 OA 
HETATM   33  C   UNL     1      -8.874   2.723  69.730  1.00  0.00    -0.086 C  
HETATM   34  O   UNL     1      -9.443   3.423  68.721  1.00  0.00    -0.166 OA 
ENDBRANCH  30  31
ENDBRANCH  28  30
ENDBRANCH  19  28
ENDBRANCH  17  19
ENDBRANCH   8  15
TORSDOF 7
ENDMDL
MODEL      229
REMARK 921   NORMALIZED FREE ENERGY PREDICTED BY IDOCK:   -1.49 KCAL/MOL
REMARK 922        TOTAL FREE ENERGY PREDICTED BY IDOCK:   -3.45 KCAL/MOL
REMARK 923 INTER-LIGAND FREE ENERGY PREDICTED BY IDOCK:   -2.73 KCAL/MOL
REMARK 924 INTRA-LIGAND FREE ENERGY PREDICTED BY IDOCK:   -0.72 KCAL/MOL
REMARK 927      BINDING AFFINITY PREDICTED BY RF-SCORE:    0.00 PKD
ROOT
HETATM    1  C   UNL     1      -6.752   8.901  71.866  1.00  0.00    -0.011 C  
HETATM    2  S   UNL     1      -8.456   8.678  72.373  1.00  0.00     0.055 SA 
HETATM    3  CG2 UNL     1      -8.283   6.973  72.897  1.00  0.00    -0.106 C  
HETATM    4  CB  UNL     1      -7.413   6.061  72.038  1.00  0.00    -0.095 C  
HETATM    5  O   UNL     1      -5.387   8.471  68.904  1.00  0.00    -0.031 OA 
HETATM    6  CA  UNL     1      -6.498   6.521  71.130  1.00  0.00    -0.049 C  
HETATM    7  N   UNL     1      -6.373   7.869  70.917  1.00  0.00    -0.037 N  
HETATM    8  CA  UNL     1      -6.529   9.930  70.701  1.00  0.00    -0.106 C  
HETATM    9  C   UNL     1      -5.611   5.558  70.355  1.00  0.00    -0.009 C  
HETATM   10  C   UNL     1      -5.897   8.704  69.975  1.00  0.00    -0.027 C  
HETATM   11  OXT UNL     1      -5.286   4.457  70.775  1.00  0.00     0.000 OA 
HETATM   12  O   UNL     1      -5.140   5.971  69.163  1.00  0.00    -0.004 OA 
ENDROOT
BRANCH   4  13
HETATM   13  CG1 UNL     1      -7.725   4.634  72.246  1.00  0.00    -0.089 C  
HETATM   14  CD1 UNL     1      -8.813   4.110  72.832  1.00  0.00    -0.109 C  
ENDBRANCH   4  13
BRANCH   8  15
HETATM   15  N   UNL     1      -7.728  10.488  69.992  1.00  0.00    -0.340 N  
HETATM   16  H   UNL     1      -8.663  10.204  70.284  1.00  0.00     0.000 HD 
HETATM   17  C   UNL     1      -7.582  11.379  68.950  1.00  0.00    -0.114 C  
HETATM   18  O   UNL     1      -6.492  11.683  68.486  1.00  0.00    -0.051 OA 
BRANCH  17  19
HETATM   19  C   UNL     1      -8.863  11.942  68.329  1.00  0.00    -0.174 C  
BRANCH  19  20
HETATM   20  C   UNL     1      -9.255  11.530  66.983  1.00  0.00    -0.176 A  
HETATM   21  N   UNL     1      -8.745   9.265  64.348  1.00  0.00    -0.257 NA 
HETATM   22  C   UNL     1     -10.241  12.130  66.222  1.00  0.00    -0.223 A  
HETATM   23  N   UNL     1      -8.633  10.448  66.358  1.00  0.00    -0.130 NA 
HETATM   24  C   UNL     1      -9.144  10.249  65.168  1.00  0.00    -0.197 A  
HETATM   25  S   UNL     1     -10.387  11.336  64.709  1.00  0.00    -0.324 SA 
HETATM   26  H2  UNL     1      -9.189   9.162  63.436  1.00  0.00     0.000 HD 
HETATM   27  H1  UNL     1      -8.005   8.618  64.621  1.00  0.00     0.000 HD 
ENDBRANCH  19  20
BRANCH  19  28
HETATM   28  N   UNL     1      -9.680  12.798  68.883  1.00  0.00    -0.405 NA 
HETATM   29  H   UNL     1     -10.685  12.776  68.714  1.00  0.00     0.000 HD 
BRANCH  28  30
HETATM   30  O   UNL     1      -9.091  13.747  69.723  1.00  0.00     1.120 OA 
BRANCH  30  31
HETATM   31  C   UNL     1      -8.409  14.707  68.908  1.00  0.00    -0.142 C  
HETATM   32  O   UNL     1      -8.464  15.329  66.560  1.00  0.00    -0.265 OA 
HETATM   33  C   UNL     1      -9.082  15.051  67.581  1.00  0.00    -0.182 C  
HETATM   34  O   UNL     1     -10.434  15.099  67.639  1.00  0.00    -0.246 OA 
ENDBRANCH  30  31
ENDBRANCH  28  30
ENDBRANCH  19  28
ENDBRANCH  17  19
ENDBRANCH   8  15
TORSDOF 7
ENDMDL
MODEL      230
REMARK 921   NORMALIZED FREE ENERGY PREDICTED BY IDOCK:   -1.17 KCAL/MOL
REMARK 922        TOTAL FREE ENERGY PREDICTED BY IDOCK:   -3.00 KCAL/MOL
REMARK 923 INTER-LIGAND FREE ENERGY PREDICTED BY IDOCK:   -3.52 KCAL/MOL
REMARK 924 INTRA-LIGAND FREE ENERGY PREDICTED BY IDOCK:    0.53 KCAL/MOL
REMARK 927      BINDING AFFINITY PREDICTED BY RF-SCORE:    0.00 PKD
ROOT
HETATM    1  C   UNL     1     -10.135   9.094  69.494  1.00  0.00    -0.197 C  
HETATM    2  S   UNL     1      -8.761   8.942  70.635  1.00  0.00    -0.216 SA 
HETATM    3  CG2 UNL     1      -7.710  10.154  69.838  1.00  0.00    -0.160 C  
HETATM    4  CB  UNL     1      -7.689  10.171  68.313  1.00  0.00    -0.088 C  
HETATM    5  O   UNL     1     -10.773   7.374  66.763  1.00  0.00    -0.319 OA 
HETATM    6  CA  UNL     1      -8.653   9.588  67.536  1.00  0.00    -0.126 C  
HETATM    7  N   UNL     1      -9.676   8.896  68.129  1.00  0.00    -0.156 N  
HETATM    8  CA  UNL     1     -10.991   7.793  69.301  1.00  0.00     0.007 C  
HETATM    9  C   UNL     1      -8.611   9.701  66.020  1.00  0.00    -0.132 C  
HETATM   10  C   UNL     1     -10.584   7.957  67.805  1.00  0.00    -0.175 C  
HETATM   11  OXT UNL     1      -8.087  10.634  65.428  1.00  0.00    -0.156 OA 
HETATM   12  O   UNL     1      -9.220   8.733  65.308  1.00  0.00    -0.157 OA 
ENDROOT
BRANCH   4  13
HETATM   13  CG1 UNL     1      -6.477  10.820  67.777  1.00  0.00    -0.059 C  
HETATM   14  CD1 UNL     1      -6.086  12.093  67.946  1.00  0.00    -0.075 C  
ENDBRANCH   4  13
BRANCH   8  15
HETATM   15  N   UNL     1     -10.506   6.511  69.911  1.00  0.00    -0.200 N  
HETATM   16  H   UNL     1     -10.955   6.154  70.755  1.00  0.00     0.000 HD 
HETATM   17  C   UNL     1      -9.461   5.811  69.348  1.00  0.00    -0.130 C  
HETATM   18  O   UNL     1      -8.815   6.233  68.399  1.00  0.00    -0.116 OA 
BRANCH  17  19
HETATM   19  C   UNL     1      -9.077   4.482  70.006  1.00  0.00    -0.102 C  
BRANCH  19  20
HETATM   20  C   UNL     1      -8.808   4.437  71.441  1.00  0.00    -0.114 A  
HETATM   21  N   UNL     1      -9.523   2.884  74.508  1.00  0.00    -0.086 NA 
HETATM   22  C   UNL     1      -7.911   5.251  72.109  1.00  0.00    -0.110 A  
HETATM   23  N   UNL     1      -9.465   3.520  72.263  1.00  0.00    -0.115 NA 
HETATM   24  C   UNL     1      -9.067   3.647  73.505  1.00  0.00    -0.094 A  
HETATM   25  S   UNL     1      -7.895   4.868  73.781  1.00  0.00    -0.099 SA 
HETATM   26  H2  UNL     1      -9.166   3.031  75.453  1.00  0.00     0.000 HD 
HETATM   27  H1  UNL     1     -10.221   2.158  74.345  1.00  0.00     0.000 HD 
ENDBRANCH  19  20
BRANCH  19  28
HETATM   28  N   UNL     1      -8.943   3.331  69.402  1.00  0.00    -0.101 NA 
HETATM   29  H   UNL     1      -9.739   2.833  69.003  1.00  0.00     0.000 HD 
BRANCH  28  30
HETATM   30  O   UNL     1      -7.643   2.824  69.338  1.00  0.00    -0.044 OA 
BRANCH  30  31
HETATM   31  C   UNL     1      -6.907   3.593  68.382  1.00  0.00    -0.046 C  
HETATM   32  O   UNL     1      -6.081   3.213  66.128  1.00  0.00    -0.023 OA 
HETATM   33  C   UNL     1      -7.000   3.119  66.933  1.00  0.00    -0.053 C  
HETATM   34  O   UNL     1      -8.219   2.646  66.580  1.00  0.00    -0.081 OA 
ENDBRANCH  30  31
ENDBRANCH  28  30
ENDBRANCH  19  28
ENDBRANCH  17  19
ENDBRANCH   8  15
TORSDOF 7
ENDMDL
MODEL      231
REMARK 921   NORMALIZED FREE ENERGY PREDICTED BY IDOCK:   -1.05 KCAL/MOL
REMARK 922        TOTAL FREE ENERGY PREDICTED BY IDOCK:   -2.83 KCAL/MOL
REMARK 923 INTER-LIGAND FREE ENERGY PREDICTED BY IDOCK:   -3.52 KCAL/MOL
REMARK 924 INTRA-LIGAND FREE ENERGY PREDICTED BY IDOCK:    0.69 KCAL/MOL
REMARK 927      BINDING AFFINITY PREDICTED BY RF-SCORE:    0.00 PKD
ROOT
HETATM    1  C   UNL     1     -11.073   8.684  68.070  1.00  0.00     0.345 C  
HETATM    2  S   UNL     1     -10.911   9.126  69.799  1.00  0.00    -0.129 SA 
HETATM    3  CG2 UNL     1     -11.116  10.891  69.570  1.00  0.00    -0.268 C  
HETATM    4  CB  UNL     1     -10.447  11.523  68.354  1.00  0.00    -0.226 C  
HETATM    5  O   UNL     1      -8.733   8.330  65.784  1.00  0.00    -0.155 OA 
HETATM    6  CA  UNL     1     -10.015  10.809  67.269  1.00  0.00    -0.187 C  
HETATM    7  N   UNL     1     -10.127   9.442  67.269  1.00  0.00    -0.210 N  
HETATM    8  CA  UNL     1     -10.281   7.402  67.631  1.00  0.00    -0.201 C  
HETATM    9  C   UNL     1      -9.419  11.507  66.058  1.00  0.00    -0.229 C  
HETATM   10  C   UNL     1      -9.589   8.384  66.637  1.00  0.00    -0.229 C  
HETATM   11  OXT UNL     1      -9.699  12.653  65.735  1.00  0.00    -0.247 OA 
HETATM   12  O   UNL     1      -8.566  10.801  65.291  1.00  0.00    -0.183 OA 
ENDROOT
BRANCH   4  13
HETATM   13  CG1 UNL     1     -10.250  12.977  68.516  1.00  0.00    -0.218 C  
HETATM   14  CD1 UNL     1     -11.181  13.903  68.789  1.00  0.00    -0.302 C  
ENDBRANCH   4  13
BRANCH   8  15
HETATM   15  N   UNL     1      -9.328   6.772  68.604  1.00  0.00    -0.132 N  
HETATM   16  H   UNL     1      -9.604   5.926  69.102  1.00  0.00     0.000 HD 
HETATM   17  C   UNL     1      -8.085   7.323  68.834  1.00  0.00    -0.128 C  
HETATM   18  O   UNL     1      -7.732   8.388  68.347  1.00  0.00    -0.101 OA 
BRANCH  17  19
HETATM   19  C   UNL     1      -7.159   6.575  69.797  1.00  0.00    -0.072 C  
BRANCH  19  20
HETATM   20  C   UNL     1      -7.165   6.917  71.217  1.00  0.00    -0.076 A  
HETATM   21  N   UNL     1      -6.160   5.999  74.455  1.00  0.00    -0.063 NA 
HETATM   22  C   UNL     1      -7.743   8.049  71.762  1.00  0.00    -0.094 A  
HETATM   23  N   UNL     1      -6.552   6.084  72.155  1.00  0.00    -0.058 NA 
HETATM   24  C   UNL     1      -6.668   6.583  73.361  1.00  0.00    -0.073 A  
HETATM   25  S   UNL     1      -7.520   8.068  73.462  1.00  0.00    -0.154 SA 
HETATM   26  H2  UNL     1      -6.281   6.446  75.364  1.00  0.00     0.000 HD 
HETATM   27  H1  UNL     1      -5.653   5.116  74.395  1.00  0.00     0.000 HD 
ENDBRANCH  19  20
BRANCH  19  28
HETATM   28  N   UNL     1      -6.313   5.631  69.480  1.00  0.00    -0.035 NA 
HETATM   29  H   UNL     1      -6.099   4.861  70.113  1.00  0.00     0.000 HD 
BRANCH  28  30
HETATM   30  O   UNL     1      -5.720   5.742  68.220  1.00  0.00    -0.011 OA 
BRANCH  30  31
HETATM   31  C   UNL     1      -6.262   4.721  67.376  1.00  0.00    -0.039 C  
HETATM   32  O   UNL     1      -5.536   2.521  66.641  1.00  0.00    -0.015 OA 
HETATM   33  C   UNL     1      -5.672   3.324  67.557  1.00  0.00    -0.022 C  
HETATM   34  O   UNL     1      -5.373   3.009  68.839  1.00  0.00    -0.011 OA 
ENDBRANCH  30  31
ENDBRANCH  28  30
ENDBRANCH  19  28
ENDBRANCH  17  19
ENDBRANCH   8  15
TORSDOF 7
ENDMDL
MODEL      232
REMARK 921   NORMALIZED FREE ENERGY PREDICTED BY IDOCK:   -0.99 KCAL/MOL
REMARK 922        TOTAL FREE ENERGY PREDICTED BY IDOCK:   -2.74 KCAL/MOL
REMARK 923 INTER-LIGAND FREE ENERGY PREDICTED BY IDOCK:   -2.48 KCAL/MOL
REMARK 924 INTRA-LIGAND FREE ENERGY PREDICTED BY IDOCK:   -0.26 KCAL/MOL
REMARK 927      BINDING AFFINITY PREDICTED BY RF-SCORE:    0.00 PKD
ROOT
HETATM    1  C   UNL     1      -6.414   7.297  66.204  1.00  0.00    -0.045 C  
HETATM    2  S   UNL     1      -7.173   6.427  67.575  1.00  0.00    -0.088 SA 
HETATM    3  CG2 UNL     1      -7.622   4.959  66.652  1.00  0.00    -0.088 C  
HETATM    4  CB  UNL     1      -8.149   5.156  65.233  1.00  0.00    -0.120 C  
HETATM    5  O   UNL     1      -7.758   9.432  64.093  1.00  0.00    -0.108 OA 
HETATM    6  CA  UNL     1      -7.973   6.306  64.513  1.00  0.00    -0.121 C  
HETATM    7  N   UNL     1      -7.341   7.378  65.088  1.00  0.00    -0.073 N  
HETATM    8  CA  UNL     1      -6.501   8.863  66.275  1.00  0.00    -0.065 C  
HETATM    9  C   UNL     1      -8.463   6.413  63.077  1.00  0.00     0.199 C  
HETATM   10  C   UNL     1      -7.241   8.708  64.912  1.00  0.00    -0.084 C  
HETATM   11  OXT UNL     1      -8.580   5.451  62.332  1.00  0.00    -0.113 OA 
HETATM   12  O   UNL     1      -8.745   7.644  62.608  1.00  0.00     0.122 OA 
ENDROOT
BRANCH   4  13
HETATM   13  CG1 UNL     1      -8.932   3.998  64.763  1.00  0.00    -0.135 C  
HETATM   14  CD1 UNL     1     -10.256   3.935  64.552  1.00  0.00    -0.231 C  
ENDBRANCH   4  13
BRANCH   8  15
HETATM   15  N   UNL     1      -7.347   9.492  67.342  1.00  0.00    -0.087 N  
HETATM   16  H   UNL     1      -7.954   8.904  67.914  1.00  0.00     0.000 HD 
HETATM   17  C   UNL     1      -7.315  10.852  67.560  1.00  0.00    -0.096 C  
HETATM   18  O   UNL     1      -6.688  11.623  66.847  1.00  0.00    -0.134 OA 
BRANCH  17  19
HETATM   19  C   UNL     1      -8.165  11.395  68.712  1.00  0.00    -0.107 C  
BRANCH  19  20
HETATM   20  C   UNL     1      -8.665  10.479  69.735  1.00  0.00     0.166 A  
HETATM   21  N   UNL     1     -11.370   8.545  70.866  1.00  0.00    -0.266 NA 
HETATM   22  C   UNL     1      -7.937  10.018  70.817  1.00  0.00     0.677 A  
HETATM   23  N   UNL     1      -9.969   9.983  69.675  1.00  0.00    -0.225 NA 
HETATM   24  C   UNL     1     -10.202   9.176  70.680  1.00  0.00    -0.246 A  
HETATM   25  S   UNL     1      -8.894   8.960  71.768  1.00  0.00     0.009 SA 
HETATM   26  H2  UNL     1     -11.483   7.925  71.668  1.00  0.00     0.000 HD 
HETATM   27  H1  UNL     1     -12.148   8.674  70.219  1.00  0.00     0.000 HD 
ENDBRANCH  19  20
BRANCH  19  28
HETATM   28  N   UNL     1      -8.524  12.639  68.890  1.00  0.00    -0.341 NA 
HETATM   29  H   UNL     1      -9.133  12.922  69.656  1.00  0.00     0.000 HD 
BRANCH  28  30
HETATM   30  O   UNL     1      -8.022  13.556  67.964  1.00  0.00    -0.126 OA 
BRANCH  30  31
HETATM   31  C   UNL     1      -8.912  14.676  67.911  1.00  0.00    -0.174 C  
HETATM   32  O   UNL     1      -9.442  16.385  66.267  1.00  0.00    -0.276 OA 
HETATM   33  C   UNL     1      -9.238  15.202  66.515  1.00  0.00    -0.287 C  
HETATM   34  O   UNL     1      -9.359  14.238  65.572  1.00  0.00    -0.017 OA 
ENDBRANCH  30  31
ENDBRANCH  28  30
ENDBRANCH  19  28
ENDBRANCH  17  19
ENDBRANCH   8  15
TORSDOF 7
ENDMDL
MODEL      233
REMARK 921   NORMALIZED FREE ENERGY PREDICTED BY IDOCK:   -0.51 KCAL/MOL
REMARK 922        TOTAL FREE ENERGY PREDICTED BY IDOCK:   -2.07 KCAL/MOL
REMARK 923 INTER-LIGAND FREE ENERGY PREDICTED BY IDOCK:   -1.49 KCAL/MOL
REMARK 924 INTRA-LIGAND FREE ENERGY PREDICTED BY IDOCK:   -0.59 KCAL/MOL
REMARK 927      BINDING AFFINITY PREDICTED BY RF-SCORE:    0.00 PKD
ROOT
HETATM    1  C   UNL     1      -8.346  15.028  69.008  1.00  0.00    -0.194 C  
HETATM    2  S   UNL     1      -9.465  16.260  69.672  1.00  0.00     0.214 SA 
HETATM    3  CG2 UNL     1     -10.716  15.106  70.233  1.00  0.00    -0.204 C  
HETATM    4  CB  UNL     1     -11.029  13.917  69.331  1.00  0.00    -0.169 C  
HETATM    5  O   UNL     1      -8.146  13.829  65.951  1.00  0.00     1.668 OA 
HETATM    6  CA  UNL     1     -10.200  13.487  68.330  1.00  0.00    -0.250 C  
HETATM    7  N   UNL     1      -9.045  14.175  68.062  1.00  0.00    -0.183 N  
HETATM    8  CA  UNL     1      -7.471  15.505  67.795  1.00  0.00    -0.150 C  
HETATM    9  C   UNL     1     -10.537  12.251  67.511  1.00  0.00    -0.218 C  
HETATM   10  C   UNL     1      -8.165  14.321  67.056  1.00  0.00    -0.089 C  
HETATM   11  OXT UNL     1     -11.216  11.327  67.935  1.00  0.00    -0.244 OA 
HETATM   12  O   UNL     1     -10.023  12.170  66.269  1.00  0.00    -0.219 OA 
ENDROOT
BRANCH   4  13
HETATM   13  CG1 UNL     1     -12.356  13.336  69.611  1.00  0.00    -0.154 C  
HETATM   14  CD1 UNL     1     -12.735  12.648  70.700  1.00  0.00    -0.141 C  
ENDBRANCH   4  13
BRANCH   8  15
HETATM   15  N   UNL     1      -7.758  16.842  67.178  1.00  0.00    -0.167 N  
HETATM   16  H   UNL     1      -8.580  16.955  66.584  1.00  0.00     0.000 HD 
HETATM   17  C   UNL     1      -6.927  17.918  67.403  1.00  0.00    -0.186 C  
HETATM   18  O   UNL     1      -5.875  17.825  68.020  1.00  0.00    -0.152 OA 
BRANCH  17  19
HETATM   19  C   UNL     1      -7.335  19.256  66.782  1.00  0.00    -0.217 C  
BRANCH  19  20
HETATM   20  C   UNL     1      -6.797  19.644  65.479  1.00  0.00    -0.294 A  
HETATM   21  N   UNL     1      -5.249  18.573  62.514  1.00  0.00    -0.069 NA 
HETATM   22  C   UNL     1      -6.798  20.928  64.967  1.00  0.00     0.027 A  
HETATM   23  N   UNL     1      -6.229  18.692  64.630  1.00  0.00    -0.404 NA 
HETATM   24  C   UNL     1      -5.822  19.253  63.518  1.00  0.00    -0.039 A  
HETATM   25  S   UNL     1      -6.077  20.945  63.411  1.00  0.00    -0.242 SA 
HETATM   26  H2  UNL     1      -4.961  19.070  61.672  1.00  0.00     0.000 HD 
HETATM   27  H1  UNL     1      -5.097  17.566  62.578  1.00  0.00     0.000 HD 
ENDBRANCH  19  20
BRANCH  19  28
HETATM   28  N   UNL     1      -8.137  20.142  67.311  1.00  0.00    -0.319 NA 
HETATM   29  H   UNL     1      -7.803  20.857  67.956  1.00  0.00     0.000 HD 
BRANCH  28  30
HETATM   30  O   UNL     1      -9.480  20.047  66.938  1.00  0.00    -0.354 OA 
BRANCH  30  31
HETATM   31  C   UNL     1     -10.025  18.856  67.515  1.00  0.00    -0.345 C  
HETATM   32  O   UNL     1     -12.013  17.509  67.142  1.00  0.00     1.728 OA 
HETATM   33  C   UNL     1     -11.062  18.120  66.669  1.00  0.00     0.434 C  
HETATM   34  O   UNL     1     -10.806  18.134  65.340  1.00  0.00    -0.556 OA 
ENDBRANCH  30  31
ENDBRANCH  28  30
ENDBRANCH  19  28
ENDBRANCH  17  19
ENDBRANCH   8  15
TORSDOF 7
ENDMDL
MODEL      234
REMARK 921   NORMALIZED FREE ENERGY PREDICTED BY IDOCK:   -0.13 KCAL/MOL
REMARK 922        TOTAL FREE ENERGY PREDICTED BY IDOCK:   -1.53 KCAL/MOL
REMARK 923 INTER-LIGAND FREE ENERGY PREDICTED BY IDOCK:   -2.04 KCAL/MOL
REMARK 924 INTRA-LIGAND FREE ENERGY PREDICTED BY IDOCK:    0.51 KCAL/MOL
REMARK 927      BINDING AFFINITY PREDICTED BY RF-SCORE:    0.00 PKD
ROOT
HETATM    1  C   UNL     1      -9.087  14.532  70.121  1.00  0.00     1.226 C  
HETATM    2  S   UNL     1      -7.508  13.853  69.616  1.00  0.00     0.531 SA 
HETATM    3  CG2 UNL     1      -6.748  15.418  69.190  1.00  0.00    -0.138 C  
HETATM    4  CB  UNL     1      -7.618  16.450  68.478  1.00  0.00    -0.188 C  
HETATM    5  O   UNL     1     -11.816  15.002  68.344  1.00  0.00    -0.319 OA 
HETATM    6  CA  UNL     1      -8.985  16.405  68.461  1.00  0.00    -0.224 C  
HETATM    7  N   UNL     1      -9.638  15.360  69.061  1.00  0.00    -0.221 N  
HETATM    8  CA  UNL     1     -10.322  13.588  69.904  1.00  0.00     1.123 C  
HETATM    9  C   UNL     1      -9.796  17.504  67.792  1.00  0.00    -0.286 C  
HETATM   10  C   UNL     1     -10.842  14.761  69.020  1.00  0.00    -0.245 C  
HETATM   11  OXT UNL     1      -9.401  18.654  67.671  1.00  0.00    -0.284 OA 
HETATM   12  O   UNL     1     -11.027  17.183  67.346  1.00  0.00    -0.215 OA 
ENDROOT
BRANCH   4  13
HETATM   13  CG1 UNL     1      -6.815  17.451  67.749  1.00  0.00    -0.176 C  
HETATM   14  CD1 UNL     1      -5.902  18.294  68.256  1.00  0.00    -0.177 C  
ENDBRANCH   4  13
BRANCH   8  15
HETATM   15  N   UNL     1     -10.128  12.310  69.142  1.00  0.00    -0.403 N  
HETATM   16  H   UNL     1     -10.133  11.420  69.642  1.00  0.00     0.000 HD 
HETATM   17  C   UNL     1      -9.945  12.321  67.776  1.00  0.00    -0.200 C  
HETATM   18  O   UNL     1      -9.829  13.355  67.132  1.00  0.00    -0.228 OA 
BRANCH  17  19
HETATM   19  C   UNL     1      -9.819  10.965  67.077  1.00  0.00    -0.183 C  
BRANCH  19  20
HETATM   20  C   UNL     1      -9.012  10.848  65.865  1.00  0.00    -0.192 A  
HETATM   21  N   UNL     1      -5.785  10.900  64.479  1.00  0.00    -0.403 NA 
HETATM   22  C   UNL     1      -9.507  10.595  64.599  1.00  0.00    -0.258 A  
HETATM   23  N   UNL     1      -7.623  10.984  65.916  1.00  0.00    -0.056 NA 
HETATM   24  C   UNL     1      -7.102  10.834  64.724  1.00  0.00     0.288 A  
HETATM   25  S   UNL     1      -8.224  10.532  63.463  1.00  0.00    -0.028 SA 
HETATM   26  H2  UNL     1      -5.444  10.768  63.527  1.00  0.00     0.000 HD 
HETATM   27  H1  UNL     1      -5.117  11.081  65.229  1.00  0.00     0.000 HD 
ENDBRANCH  19  20
BRANCH  19  28
HETATM   28  N   UNL     1     -10.387   9.848  67.449  1.00  0.00    -0.229 NA 
HETATM   29  H   UNL     1     -11.250   9.511  67.022  1.00  0.00     0.000 HD 
BRANCH  28  30
HETATM   30  O   UNL     1      -9.738   9.144  68.466  1.00  0.00    -0.150 OA 
BRANCH  30  31
HETATM   31  C   UNL     1      -9.276   7.900  67.929  1.00  0.00    -0.134 C  
HETATM   32  O   UNL     1      -7.410   7.208  66.533  1.00  0.00    -0.080 OA 
HETATM   33  C   UNL     1      -7.816   7.869  67.483  1.00  0.00    -0.122 C  
HETATM   34  O   UNL     1      -6.978   8.581  68.273  1.00  0.00    -0.067 OA 
ENDBRANCH  30  31
ENDBRANCH  28  30
ENDBRANCH  19  28
ENDBRANCH  17  19
ENDBRANCH   8  15
TORSDOF 7
ENDMDL
MODEL      235
REMARK 921   NORMALIZED FREE ENERGY PREDICTED BY IDOCK:    0.93 KCAL/MOL
REMARK 922        TOTAL FREE ENERGY PREDICTED BY IDOCK:   -0.05 KCAL/MOL
REMARK 923 INTER-LIGAND FREE ENERGY PREDICTED BY IDOCK:   -3.23 KCAL/MOL
REMARK 924 INTRA-LIGAND FREE ENERGY PREDICTED BY IDOCK:    3.18 KCAL/MOL
REMARK 927      BINDING AFFINITY PREDICTED BY RF-SCORE:    0.00 PKD
ROOT
HETATM    1  C   UNL     1      -9.686  12.243  67.005  1.00  0.00    -0.205 C  
HETATM    2  S   UNL     1      -8.639  12.057  68.447  1.00  0.00    -0.109 SA 
HETATM    3  CG2 UNL     1      -7.090  11.959  67.552  1.00  0.00    -0.123 C  
HETATM    4  CB  UNL     1      -7.079  11.160  66.253  1.00  0.00    -0.049 C  
HETATM    5  O   UNL     1     -11.227   9.933  65.239  1.00  0.00     1.420 OA 
HETATM    6  CA  UNL     1      -8.211  10.824  65.561  1.00  0.00    -0.104 C  
HETATM    7  N   UNL     1      -9.440  11.162  66.065  1.00  0.00    -0.200 N  
HETATM    8  CA  UNL     1     -11.138  11.663  67.153  1.00  0.00    -0.299 C  
HETATM    9  C   UNL     1      -8.128  10.086  64.233  1.00  0.00    -0.156 C  
HETATM   10  C   UNL     1     -10.726  10.791  65.929  1.00  0.00    -0.073 C  
HETATM   11  OXT UNL     1      -7.168  10.163  63.480  1.00  0.00    -0.136 OA 
HETATM   12  O   UNL     1      -9.190   9.343  63.869  1.00  0.00    -0.153 OA 
ENDROOT
BRANCH   4  13
HETATM   13  CG1 UNL     1      -5.720  10.729  65.873  1.00  0.00    -0.145 C  
HETATM   14  CD1 UNL     1      -5.196   9.497  65.967  1.00  0.00    -0.036 C  
ENDBRANCH   4  13
BRANCH   8  15
HETATM   15  N   UNL     1     -11.472  10.856  68.373  1.00  0.00    -0.300 N  
HETATM   16  H   UNL     1     -11.901   9.936  68.265  1.00  0.00     0.000 HD 
HETATM   17  C   UNL     1     -11.208  11.340  69.636  1.00  0.00    -0.251 C  
HETATM   18  O   UNL     1     -10.790  12.471  69.838  1.00  0.00     0.296 OA 
BRANCH  17  19
HETATM   19  C   UNL     1     -11.526  10.419  70.817  1.00  0.00    -0.332 C  
BRANCH  19  20
HETATM   20  C   UNL     1     -10.620   9.319  71.140  1.00  0.00    -0.332 A  
HETATM   21  N   UNL     1      -9.173   7.364  73.673  1.00  0.00    -0.221 NA 
HETATM   22  C   UNL     1      -9.929   8.557  70.215  1.00  0.00    -0.183 A  
HETATM   23  N   UNL     1     -10.393   8.946  72.466  1.00  0.00    -0.042 NA 
HETATM   24  C   UNL     1      -9.560   7.937  72.525  1.00  0.00    -0.216 A  
HETATM   25  S   UNL     1      -8.984   7.370  71.012  1.00  0.00    -0.152 SA 
HETATM   26  H2  UNL     1      -8.526   6.576  73.647  1.00  0.00     0.000 HD 
HETATM   27  H1  UNL     1      -9.515   7.702  74.573  1.00  0.00     0.000 HD 
ENDBRANCH  19  20
BRANCH  19  28
HETATM   28  N   UNL     1     -12.570  10.497  71.600  1.00  0.00    -0.407 NA 
HETATM   29  H   UNL     1     -12.658  11.220  72.313  1.00  0.00     0.000 HD 
BRANCH  28  30
HETATM   30  O   UNL     1     -13.556   9.529  71.399  1.00  0.00    -0.366 OA 
BRANCH  30  31
HETATM   31  C   UNL     1     -12.965   8.420  70.713  1.00  0.00     0.372 C  
HETATM   32  O   UNL     1     -12.274   6.175  71.335  1.00  0.00    -0.108 OA 
HETATM   33  C   UNL     1     -13.120   7.060  71.390  1.00  0.00    -0.314 C  
HETATM   34  O   UNL     1     -14.312   6.877  72.004  1.00  0.00    -0.310 OA 
ENDBRANCH  30  31
ENDBRANCH  28  30
ENDBRANCH  19  28
ENDBRANCH  17  19
ENDBRANCH   8  15
TORSDOF 7
ENDMDL
MODEL      236
REMARK 921   NORMALIZED FREE ENERGY PREDICTED BY IDOCK:    1.72 KCAL/MOL
REMARK 922        TOTAL FREE ENERGY PREDICTED BY IDOCK:    1.07 KCAL/MOL
REMARK 923 INTER-LIGAND FREE ENERGY PREDICTED BY IDOCK:    1.88 KCAL/MOL
REMARK 924 INTRA-LIGAND FREE ENERGY PREDICTED BY IDOCK:   -0.81 KCAL/MOL
REMARK 927      BINDING AFFINITY PREDICTED BY RF-SCORE:    0.00 PKD
ROOT
HETATM    1  C   UNL     1      -6.153   7.957  66.926  1.00  0.00    -0.053 C  
HETATM    2  S   UNL     1      -6.735   6.774  68.139  1.00  0.00    -0.070 SA 
HETATM    3  CG2 UNL     1      -7.836   5.889  67.036  1.00  0.00    -0.102 C  
HETATM    4  CB  UNL     1      -8.644   6.715  66.040  1.00  0.00    -0.152 C  
HETATM    5  O   UNL     1      -7.317  10.951  66.213  1.00  0.00    -0.138 OA 
HETATM    6  CA  UNL     1      -8.335   8.003  65.696  1.00  0.00    -0.141 C  
HETATM    7  N   UNL     1      -7.279   8.633  66.304  1.00  0.00    -0.078 N  
HETATM    8  CA  UNL     1      -5.745   9.360  67.502  1.00  0.00    -0.041 C  
HETATM    9  C   UNL     1      -9.140   8.748  64.643  1.00  0.00     0.210 C  
HETATM   10  C   UNL     1      -6.838   9.885  66.523  1.00  0.00    -0.085 C  
HETATM   11  OXT UNL     1      -9.737   8.191  63.733  1.00  0.00     2.630 OA 
HETATM   12  O   UNL     1      -9.157  10.093  64.711  1.00  0.00    -0.184 OA 
ENDROOT
BRANCH   4  13
HETATM   13  CG1 UNL     1      -9.835   5.993  65.551  1.00  0.00     0.537 C  
HETATM   14  CD1 UNL     1     -10.331   4.831  66.004  1.00  0.00    -0.328 C  
ENDBRANCH   4  13
BRANCH   8  15
HETATM   15  N   UNL     1      -6.042   9.663  68.942  1.00  0.00    -0.042 N  
HETATM   16  H   UNL     1      -6.544   8.978  69.507  1.00  0.00     0.000 HD 
HETATM   17  C   UNL     1      -5.644  10.854  69.510  1.00  0.00    -0.039 C  
HETATM   18  O   UNL     1      -5.129  11.757  68.865  1.00  0.00    -0.050 OA 
BRANCH  17  19
HETATM   19  C   UNL     1      -5.936  11.048  71.000  1.00  0.00     0.151 C  
BRANCH  19  20
HETATM   20  C   UNL     1      -6.296   9.895  71.822  1.00  0.00     0.466 A  
HETATM   21  N   UNL     1      -8.557   7.257  72.339  1.00  0.00    -0.115 NA 
HETATM   22  C   UNL     1      -5.581   9.442  72.916  1.00  0.00     0.037 A  
HETATM   23  N   UNL     1      -7.434   9.139  71.533  1.00  0.00    -0.333 NA 
HETATM   24  C   UNL     1      -7.560   8.153  72.386  1.00  0.00    -0.119 A  
HETATM   25  S   UNL     1      -6.343   8.062  73.591  1.00  0.00    -0.099 SA 
HETATM   26  H2  UNL     1      -8.592   6.509  73.031  1.00  0.00     0.000 HD 
HETATM   27  H1  UNL     1      -9.281   7.312  71.622  1.00  0.00     0.000 HD 
ENDBRANCH  19  20
BRANCH  19  28
HETATM   28  N   UNL     1      -5.913  12.181  71.652  1.00  0.00     0.080 NA 
HETATM   29  H   UNL     1      -6.331  12.281  72.577  1.00  0.00     0.000 HD 
BRANCH  28  30
HETATM   30  O   UNL     1      -5.279  13.244  71.004  1.00  0.00    -0.134 OA 
BRANCH  30  31
HETATM   31  C   UNL     1      -5.847  14.466  71.485  1.00  0.00    -0.084 C  
HETATM   32  O   UNL     1      -6.319  16.648  70.523  1.00  0.00     0.261 OA 
HETATM   33  C   UNL     1      -6.362  15.427  70.415  1.00  0.00     0.036 C  
HETATM   34  O   UNL     1      -6.944  14.819  69.355  1.00  0.00    -0.144 OA 
ENDBRANCH  30  31
ENDBRANCH  28  30
ENDBRANCH  19  28
ENDBRANCH  17  19
ENDBRANCH   8  15
TORSDOF 7
ENDMDL
MODEL      237
REMARK 921   NORMALIZED FREE ENERGY PREDICTED BY IDOCK:    8.11 KCAL/MOL
REMARK 922        TOTAL FREE ENERGY PREDICTED BY IDOCK:   10.08 KCAL/MOL
REMARK 923 INTER-LIGAND FREE ENERGY PREDICTED BY IDOCK:    7.99 KCAL/MOL
REMARK 924 INTRA-LIGAND FREE ENERGY PREDICTED BY IDOCK:    2.09 KCAL/MOL
REMARK 927      BINDING AFFINITY PREDICTED BY RF-SCORE:    0.00 PKD
ROOT
HETATM    1  C   UNL     1      -9.245  18.612  67.504  1.00  0.00    -0.279 C  
HETATM    2  S   UNL     1     -10.496  18.112  68.685  1.00  0.00    -0.073 SA 
HETATM    3  CG2 UNL     1     -10.157  19.397  69.886  1.00  0.00     0.486 C  
HETATM    4  CB  UNL     1      -8.695  19.758  70.135  1.00  0.00     1.181 C  
HETATM    5  O   UNL     1      -6.126  17.602  67.221  1.00  0.00    -0.136 OA 
HETATM    6  CA  UNL     1      -7.679  19.433  69.279  1.00  0.00    -0.167 C  
HETATM    7  N   UNL     1      -7.948  18.696  68.154  1.00  0.00    -0.280 N  
HETATM    8  CA  UNL     1      -8.637  17.450  66.641  1.00  0.00    -0.255 C  
HETATM    9  C   UNL     1      -6.252  19.883  69.550  1.00  0.00    -0.335 C  
HETATM   10  C   UNL     1      -7.291  17.920  67.272  1.00  0.00    -0.192 C  
HETATM   11  OXT UNL     1      -5.973  20.887  70.189  1.00  0.00    -0.452 OA 
HETATM   12  O   UNL     1      -5.257  19.145  69.022  1.00  0.00    -0.191 OA 
ENDROOT
BRANCH   4  13
HETATM   13  CG1 UNL     1      -8.498  20.425  71.436  1.00  0.00     2.121 C  
HETATM   14  CD1 UNL     1      -7.934  19.915  72.541  1.00  0.00     3.084 C  
ENDBRANCH   4  13
BRANCH   8  15
HETATM   15  N   UNL     1      -8.992  16.033  66.984  1.00  0.00    -0.203 N  
HETATM   16  H   UNL     1      -9.842  15.842  67.514  1.00  0.00     0.000 HD 
HETATM   17  C   UNL     1      -8.184  14.987  66.593  1.00  0.00     0.015 C  
HETATM   18  O   UNL     1      -7.103  15.154  66.046  1.00  0.00     1.984 OA 
BRANCH  17  19
HETATM   19  C   UNL     1      -8.660  13.573  66.935  1.00  0.00    -0.099 C  
BRANCH  19  20
HETATM   20  C   UNL     1      -7.705  12.593  67.450  1.00  0.00    -0.161 A  
HETATM   21  N   UNL     1      -7.243   9.388  68.810  1.00  0.00    -0.072 NA 
HETATM   22  C   UNL     1      -6.336  12.775  67.517  1.00  0.00    -0.162 A  
HETATM   23  N   UNL     1      -8.138  11.352  67.920  1.00  0.00    -0.121 NA 
HETATM   24  C   UNL     1      -7.121  10.632  68.322  1.00  0.00    -0.081 A  
HETATM   25  S   UNL     1      -5.586  11.382  68.179  1.00  0.00    -0.042 SA 
HETATM   26  H2  UNL     1      -6.407   8.880  69.100  1.00  0.00     0.000 HD 
HETATM   27  H1  UNL     1      -8.156   8.942  68.896  1.00  0.00     0.000 HD 
ENDBRANCH  19  20
BRANCH  19  28
HETATM   28  N   UNL     1      -9.876  13.113  66.803  1.00  0.00    -0.245 NA 
HETATM   29  H   UNL     1     -10.678  13.730  66.686  1.00  0.00     0.000 HD 
BRANCH  28  30
HETATM   30  O   UNL     1     -10.007  11.722  66.830  1.00  0.00    -0.196 OA 
BRANCH  30  31
HETATM   31  C   UNL     1     -11.352  11.405  67.205  1.00  0.00    -0.255 C  
HETATM   32  O   UNL     1     -13.311  12.687  67.857  1.00  0.00     3.068 OA 
HETATM   33  C   UNL     1     -12.360  12.547  67.096  1.00  0.00     0.469 C  
HETATM   34  O   UNL     1     -12.162  13.365  66.036  1.00  0.00    -0.420 OA 
ENDBRANCH  30  31
ENDBRANCH  28  30
ENDBRANCH  19  28
ENDBRANCH  17  19
ENDBRANCH   8  15
TORSDOF 7
ENDMDL
MODEL      238
REMARK 921   NORMALIZED FREE ENERGY PREDICTED BY IDOCK:    9.11 KCAL/MOL
REMARK 922        TOTAL FREE ENERGY PREDICTED BY IDOCK:   11.49 KCAL/MOL
REMARK 923 INTER-LIGAND FREE ENERGY PREDICTED BY IDOCK:   11.81 KCAL/MOL
REMARK 924 INTRA-LIGAND FREE ENERGY PREDICTED BY IDOCK:   -0.33 KCAL/MOL
REMARK 927      BINDING AFFINITY PREDICTED BY RF-SCORE:    0.00 PKD
ROOT
HETATM    1  C   UNL     1      -6.758   8.903  71.888  1.00  0.00    -0.011 C  
HETATM    2  S   UNL     1      -8.401   8.599  72.535  1.00  0.00     0.106 SA 
HETATM    3  CG2 UNL     1      -8.109   6.897  73.016  1.00  0.00    -0.106 C  
HETATM    4  CB  UNL     1      -7.277   6.034  72.073  1.00  0.00    -0.092 C  
HETATM    5  O   UNL     1      -5.637   8.569  68.813  1.00  0.00    -0.038 OA 
HETATM    6  CA  UNL     1      -6.465   6.545  71.097  1.00  0.00    -0.049 C  
HETATM    7  N   UNL     1      -6.418   7.900  70.894  1.00  0.00    -0.037 N  
HETATM    8  CA  UNL     1      -6.682   9.954  70.724  1.00  0.00    -0.047 C  
HETATM    9  C   UNL     1      -5.607   5.632  70.235  1.00  0.00    -0.009 C  
HETATM   10  C   UNL     1      -6.062   8.766  69.928  1.00  0.00    -0.034 C  
HETATM   11  OXT UNL     1      -5.199   4.542  70.608  1.00  0.00     0.000 OA 
HETATM   12  O   UNL     1      -5.258   6.080  69.013  1.00  0.00    -0.004 OA 
ENDROOT
BRANCH   4  13
HETATM   13  CG1 UNL     1      -7.507   4.592  72.285  1.00  0.00    -0.083 C  
HETATM   14  CD1 UNL     1      -8.516   4.014  72.955  1.00  0.00    -0.096 C  
ENDBRANCH   4  13
BRANCH   8  15
HETATM   15  N   UNL     1      -7.961  10.466  70.128  1.00  0.00    -0.289 N  
HETATM   16  H   UNL     1      -8.853  10.094  70.456  1.00  0.00     0.000 HD 
HETATM   17  C   UNL     1      -7.946  11.430  69.143  1.00  0.00     0.055 C  
HETATM   18  O   UNL     1      -6.913  11.843  68.636  1.00  0.00    -0.081 OA 
BRANCH  17  19
HETATM   19  C   UNL     1      -9.302  11.934  68.641  1.00  0.00    -0.069 C  
BRANCH  19  20
HETATM   20  C   UNL     1     -10.323  12.342  69.603  1.00  0.00     0.900 A  
HETATM   21  N   UNL     1     -13.590  13.542  70.075  1.00  0.00     1.074 NA 
HETATM   22  C   UNL     1     -10.177  12.319  70.978  1.00  0.00     6.913 A  
HETATM   23  N   UNL     1     -11.572  12.794  69.171  1.00  0.00    -0.301 NA 
HETATM   24  C   UNL     1     -12.332  13.095  70.195  1.00  0.00    -0.213 A  
HETATM   25  S   UNL     1     -11.613  12.872  71.736  1.00  0.00     3.402 SA 
HETATM   26  H2  UNL     1     -14.130  13.752  70.915  1.00  0.00     0.000 HD 
HETATM   27  H1  UNL     1     -14.018  13.675  69.159  1.00  0.00     0.000 HD 
ENDBRANCH  19  20
BRANCH  19  28
HETATM   28  N   UNL     1      -9.675  12.036  67.393  1.00  0.00    -0.181 NA 
HETATM   29  H   UNL     1     -10.330  12.752  67.080  1.00  0.00     0.000 HD 
BRANCH  28  30
HETATM   30  O   UNL     1      -9.121  11.103  66.513  1.00  0.00    -0.171 OA 
BRANCH  30  31
HETATM   31  C   UNL     1      -9.713   9.827  66.779  1.00  0.00    -0.194 C  
HETATM   32  O   UNL     1     -11.645   9.047  68.029  1.00  0.00     0.775 OA 
HETATM   33  C   UNL     1     -11.170   9.852  67.236  1.00  0.00     0.209 C  
HETATM   34  O   UNL     1     -11.926  10.800  66.635  1.00  0.00     0.486 OA 
ENDBRANCH  30  31
ENDBRANCH  28  30
ENDBRANCH  19  28
ENDBRANCH  17  19
ENDBRANCH   8  15
TORSDOF 7
ENDMDL
MODEL      239
REMARK 921   NORMALIZED FREE ENERGY PREDICTED BY IDOCK:   10.14 KCAL/MOL
REMARK 922        TOTAL FREE ENERGY PREDICTED BY IDOCK:   12.94 KCAL/MOL
REMARK 923 INTER-LIGAND FREE ENERGY PREDICTED BY IDOCK:    5.80 KCAL/MOL
REMARK 924 INTRA-LIGAND FREE ENERGY PREDICTED BY IDOCK:    7.14 KCAL/MOL
REMARK 927      BINDING AFFINITY PREDICTED BY RF-SCORE:    0.00 PKD
ROOT
HETATM    1  C   UNL     1     -12.835  10.855  68.467  1.00  0.00     2.474 C  
HETATM    2  S   UNL     1     -11.977   9.282  68.459  1.00  0.00     2.596 SA 
HETATM    3  CG2 UNL     1     -12.387   8.828  70.144  1.00  0.00     0.765 C  
HETATM    4  CB  UNL     1     -12.352   9.932  71.196  1.00  0.00    -0.466 C  
HETATM    5  O   UNL     1     -11.688  13.849  69.207  1.00  0.00    -0.287 OA 
HETATM    6  CA  UNL     1     -12.380  11.266  70.895  1.00  0.00    -0.388 C  
HETATM    7  N   UNL     1     -12.383  11.667  69.584  1.00  0.00    -0.169 N  
HETATM    8  CA  UNL     1     -12.220  11.957  67.533  1.00  0.00     0.497 C  
HETATM    9  C   UNL     1     -12.414  12.317  71.994  1.00  0.00     0.423 C  
HETATM   10  C   UNL     1     -12.095  12.764  68.861  1.00  0.00    -0.135 C  
HETATM   11  OXT UNL     1     -12.887  12.115  73.103  1.00  0.00     1.829 OA 
HETATM   12  O   UNL     1     -11.926  13.538  71.702  1.00  0.00     0.157 OA 
ENDROOT
BRANCH   4  13
HETATM   13  CG1 UNL     1     -12.209   9.396  72.564  1.00  0.00     0.057 C  
HETATM   14  CD1 UNL     1     -12.810   8.316  73.087  1.00  0.00     0.857 C  
ENDBRANCH   4  13
BRANCH   8  15
HETATM   15  N   UNL     1     -10.898  11.690  66.874  1.00  0.00    -0.263 N  
HETATM   16  H   UNL     1     -10.051  11.661  67.440  1.00  0.00     0.000 HD 
HETATM   17  C   UNL     1     -10.816  11.483  65.514  1.00  0.00    -0.254 C  
HETATM   18  O   UNL     1     -11.776  11.603  64.765  1.00  0.00    -0.190 OA 
BRANCH  17  19
HETATM   19  C   UNL     1      -9.434  11.155  64.941  1.00  0.00    -0.219 C  
BRANCH  19  20
HETATM   20  C   UNL     1      -8.540  10.263  65.675  1.00  0.00    -0.161 A  
HETATM   21  N   UNL     1      -5.845  10.008  67.913  1.00  0.00    -0.039 NA 
HETATM   22  C   UNL     1      -8.594   8.881  65.647  1.00  0.00    -0.166 A  
HETATM   23  N   UNL     1      -7.534  10.776  66.495  1.00  0.00    -0.133 NA 
HETATM   24  C   UNL     1      -6.861   9.805  67.062  1.00  0.00    -0.083 A  
HETATM   25  S   UNL     1      -7.372   8.220  66.652  1.00  0.00    -0.082 SA 
HETATM   26  H2  UNL     1      -5.368   9.205  68.324  1.00  0.00     0.000 HD 
HETATM   27  H1  UNL     1      -5.541  10.950  68.156  1.00  0.00     0.000 HD 
ENDBRANCH  19  20
BRANCH  19  28
HETATM   28  N   UNL     1      -8.932  11.613  63.824  1.00  0.00    -0.352 NA 
HETATM   29  H   UNL     1      -9.213  12.510  63.432  1.00  0.00     0.000 HD 
BRANCH  28  30
HETATM   30  O   UNL     1      -7.985  10.796  63.203  1.00  0.00    -0.070 OA 
BRANCH  30  31
HETATM   31  C   UNL     1      -7.249  10.106  64.219  1.00  0.00    -0.108 C  
HETATM   32  O   UNL     1      -5.277   8.685  64.260  1.00  0.00    -0.046 OA 
HETATM   33  C   UNL     1      -5.822   9.704  63.851  1.00  0.00    -0.097 C  
HETATM   34  O   UNL     1      -5.170  10.610  63.084  1.00  0.00    -0.146 OA 
ENDBRANCH  30  31
ENDBRANCH  28  30
ENDBRANCH  19  28
ENDBRANCH  17  19
ENDBRANCH   8  15
TORSDOF 7
ENDMDL
MODEL      240
REMARK 921   NORMALIZED FREE ENERGY PREDICTED BY IDOCK:   15.23 KCAL/MOL
REMARK 922        TOTAL FREE ENERGY PREDICTED BY IDOCK:   20.11 KCAL/MOL
REMARK 923 INTER-LIGAND FREE ENERGY PREDICTED BY IDOCK:   13.84 KCAL/MOL
REMARK 924 INTRA-LIGAND FREE ENERGY PREDICTED BY IDOCK:    6.28 KCAL/MOL
REMARK 927      BINDING AFFINITY PREDICTED BY RF-SCORE:    0.00 PKD
ROOT
HETATM    1  C   UNL     1      -9.175  11.338  66.013  1.00  0.00    -0.208 C  
HETATM    2  S   UNL     1      -7.820  11.059  67.152  1.00  0.00    -0.141 SA 
HETATM    3  CG2 UNL     1      -6.728  10.274  65.968  1.00  0.00    -0.114 C  
HETATM    4  CB  UNL     1      -7.355   9.305  64.970  1.00  0.00    -0.102 C  
HETATM    5  O   UNL     1     -11.778   9.431  65.368  1.00  0.00     4.804 OA 
HETATM    6  CA  UNL     1      -8.694   9.265  64.692  1.00  0.00    -0.192 C  
HETATM    7  N   UNL     1      -9.553  10.091  65.370  1.00  0.00    -0.257 N  
HETATM    8  CA  UNL     1     -10.605  11.333  66.661  1.00  0.00    -0.262 C  
HETATM    9  C   UNL     1      -9.246   8.322  63.634  1.00  0.00     1.483 C  
HETATM   10  C   UNL     1     -10.865  10.170  65.656  1.00  0.00     0.433 C  
HETATM   11  OXT UNL     1      -8.595   7.928  62.678  1.00  0.00    -0.032 OA 
HETATM   12  O   UNL     1     -10.532   7.940  63.754  1.00  0.00     7.659 OA 
ENDROOT
BRANCH   4  13
HETATM   13  CG1 UNL     1      -6.364   8.370  64.402  1.00  0.00    -0.066 C  
HETATM   14  CD1 UNL     1      -5.194   8.671  63.819  1.00  0.00    -0.057 C  
ENDBRANCH   4  13
BRANCH   8  15
HETATM   15  N   UNL     1     -10.746  10.920  68.097  1.00  0.00    -0.198 N  
HETATM   16  H   UNL     1     -11.373  11.440  68.711  1.00  0.00     0.000 HD 
HETATM   17  C   UNL     1     -10.039   9.847  68.597  1.00  0.00    -0.175 C  
HETATM   18  O   UNL     1      -9.198   9.245  67.944  1.00  0.00    -0.130 OA 
BRANCH  17  19
HETATM   19  C   UNL     1     -10.296   9.462  70.057  1.00  0.00    -0.233 C  
BRANCH  19  20
HETATM   20  C   UNL     1     -10.903   8.170  70.368  1.00  0.00    -0.236 A  
HETATM   21  N   UNL     1     -10.552   4.676  70.298  1.00  0.00     0.147 NA 
HETATM   22  C   UNL     1     -12.139   7.993  70.963  1.00  0.00    -0.217 A  
HETATM   23  N   UNL     1     -10.236   6.979  70.076  1.00  0.00    -0.191 NA 
HETATM   24  C   UNL     1     -10.954   5.947  70.445  1.00  0.00    -0.306 A  
HETATM   25  S   UNL     1     -12.470   6.321  71.154  1.00  0.00     0.539 SA 
HETATM   26  H2  UNL     1     -11.158   3.919  70.614  1.00  0.00     0.000 HD 
HETATM   27  H1  UNL     1      -9.650   4.454  69.876  1.00  0.00     0.000 HD 
ENDBRANCH  19  20
BRANCH  19  28
HETATM   28  N   UNL     1     -10.034  10.195  71.107  1.00  0.00     0.117 NA 
HETATM   29  H   UNL     1      -9.133  10.157  71.582  1.00  0.00     0.000 HD 
BRANCH  28  30
HETATM   30  O   UNL     1     -11.066  11.032  71.538  1.00  0.00     1.484 OA 
BRANCH  30  31
HETATM   31  C   UNL     1     -12.295  10.555  70.980  1.00  0.00    -0.399 C  
HETATM   32  O   UNL     1     -14.266   9.433  71.852  1.00  0.00    -0.208 OA 
HETATM   33  C   UNL     1     -13.430  10.320  71.975  1.00  0.00    -0.281 C  
HETATM   34  O   UNL     1     -13.486  11.227  72.979  1.00  0.00     1.176 OA 
ENDBRANCH  30  31
ENDBRANCH  28  30
ENDBRANCH  19  28
ENDBRANCH  17  19
ENDBRANCH   8  15
TORSDOF 7
ENDMDL
MODEL      241
REMARK 921   NORMALIZED FREE ENERGY PREDICTED BY IDOCK:   17.03 KCAL/MOL
REMARK 922        TOTAL FREE ENERGY PREDICTED BY IDOCK:   22.65 KCAL/MOL
REMARK 923 INTER-LIGAND FREE ENERGY PREDICTED BY IDOCK:   21.87 KCAL/MOL
REMARK 924 INTRA-LIGAND FREE ENERGY PREDICTED BY IDOCK:    0.78 KCAL/MOL
REMARK 927      BINDING AFFINITY PREDICTED BY RF-SCORE:    0.00 PKD
ROOT
HETATM    1  C   UNL     1     -10.140  13.106  67.215  1.00  0.00    -0.233 C  
HETATM    2  S   UNL     1      -8.434  12.560  67.151  1.00  0.00    -0.169 SA 
HETATM    3  CG2 UNL     1      -8.069  13.247  65.537  1.00  0.00     3.456 C  
HETATM    4  CB  UNL     1      -9.150  13.136  64.466  1.00  0.00     1.863 C  
HETATM    5  O   UNL     1     -12.869  11.522  66.283  1.00  0.00     2.370 OA 
HETATM    6  CA  UNL     1     -10.466  12.879  64.742  1.00  0.00    -0.350 C  
HETATM    7  N   UNL     1     -10.856  12.649  66.036  1.00  0.00    -0.272 N  
HETATM    8  CA  UNL     1     -11.105  12.188  68.046  1.00  0.00    -0.244 C  
HETATM    9  C   UNL     1     -11.507  12.851  63.634  1.00  0.00    -0.446 C  
HETATM   10  C   UNL     1     -11.878  12.078  66.697  1.00  0.00    -0.159 C  
HETATM   11  OXT UNL     1     -11.400  13.483  62.593  1.00  0.00     1.403 OA 
HETATM   12  O   UNL     1     -12.615  12.113  63.841  1.00  0.00    -0.550 OA 
ENDROOT
BRANCH   4  13
HETATM   13  CG1 UNL     1      -8.601  13.261  63.103  1.00  0.00     8.163 C  
HETATM   14  CD1 UNL     1      -8.004  12.309  62.370  1.00  0.00     3.043 C  
ENDBRANCH   4  13
BRANCH   8  15
HETATM   15  N   UNL     1     -10.594  10.869  68.549  1.00  0.00    -0.179 N  
HETATM   16  H   UNL     1      -9.589  10.722  68.643  1.00  0.00     0.000 HD 
HETATM   17  C   UNL     1     -11.465   9.855  68.884  1.00  0.00     0.080 C  
HETATM   18  O   UNL     1     -12.672   9.930  68.701  1.00  0.00     1.726 OA 
BRANCH  17  19
HETATM   19  C   UNL     1     -10.854   8.569  69.446  1.00  0.00    -0.091 C  
BRANCH  19  20
HETATM   20  C   UNL     1     -11.156   8.164  70.817  1.00  0.00    -0.259 A  
HETATM   21  N   UNL     1     -12.336   9.159  73.972  1.00  0.00     3.916 NA 
HETATM   22  C   UNL     1     -11.006   6.886  71.322  1.00  0.00    -0.243 A  
HETATM   23  N   UNL     1     -11.644   9.088  71.743  1.00  0.00    -0.352 NA 
HETATM   24  C   UNL     1     -11.854   8.512  72.901  1.00  0.00     0.141 A  
HETATM   25  S   UNL     1     -11.477   6.841  72.971  1.00  0.00     0.136 SA 
HETATM   26  H2  UNL     1     -12.482   8.649  74.843  1.00  0.00     0.000 HD 
HETATM   27  H1  UNL     1     -12.560  10.153  73.931  1.00  0.00     0.000 HD 
ENDBRANCH  19  20
BRANCH  19  28
HETATM   28  N   UNL     1     -10.045   7.758  68.817  1.00  0.00    -0.191 NA 
HETATM   29  H   UNL     1     -10.217   7.459  67.857  1.00  0.00     0.000 HD 
BRANCH  28  30
HETATM   30  O   UNL     1      -8.932   7.325  69.541  1.00  0.00    -0.143 OA 
BRANCH  30  31
HETATM   31  C   UNL     1      -8.489   6.082  68.985  1.00  0.00    -0.117 C  
HETATM   32  O   UNL     1      -9.279   3.785  69.045  1.00  0.00    -0.129 OA 
HETATM   33  C   UNL     1      -9.539   4.975  68.910  1.00  0.00    -0.151 C  
HETATM   34  O   UNL     1     -10.784   5.410  68.607  1.00  0.00    -0.154 OA 
ENDBRANCH  30  31
ENDBRANCH  28  30
ENDBRANCH  19  28
ENDBRANCH  17  19
ENDBRANCH   8  15
TORSDOF 7
ENDMDL
MODEL      242
REMARK 921   NORMALIZED FREE ENERGY PREDICTED BY IDOCK:   17.83 KCAL/MOL
REMARK 922        TOTAL FREE ENERGY PREDICTED BY IDOCK:   23.77 KCAL/MOL
REMARK 923 INTER-LIGAND FREE ENERGY PREDICTED BY IDOCK:   20.69 KCAL/MOL
REMARK 924 INTRA-LIGAND FREE ENERGY PREDICTED BY IDOCK:    3.08 KCAL/MOL
REMARK 927      BINDING AFFINITY PREDICTED BY RF-SCORE:    0.00 PKD
ROOT
HETATM    1  C   UNL     1      -9.426  13.484  71.101  1.00  0.00     8.408 C  
HETATM    2  S   UNL     1      -7.889  12.976  70.332  1.00  0.00     4.306 SA 
HETATM    3  CG2 UNL     1      -7.417  14.602  69.746  1.00  0.00     0.032 C  
HETATM    4  CB  UNL     1      -8.520  15.492  69.182  1.00  0.00    -0.248 C  
HETATM    5  O   UNL     1     -12.463  13.552  69.836  1.00  0.00    -0.252 OA 
HETATM    6  CA  UNL     1      -9.853  15.285  69.413  1.00  0.00    -0.252 C  
HETATM    7  N   UNL     1     -10.254  14.195  70.142  1.00  0.00     0.802 N  
HETATM    8  CA  UNL     1     -10.553  12.391  71.128  1.00  0.00     5.784 C  
HETATM    9  C   UNL     1     -10.900  16.251  68.880  1.00  0.00    -0.317 C  
HETATM   10  C   UNL     1     -11.363  13.457  70.330  1.00  0.00     0.253 C  
HETATM   11  OXT UNL     1     -10.678  17.434  68.667  1.00  0.00    -0.335 OA 
HETATM   12  O   UNL     1     -12.140  15.769  68.670  1.00  0.00    -0.269 OA 
ENDROOT
BRANCH   4  13
HETATM   13  CG1 UNL     1      -7.989  16.550  68.301  1.00  0.00    -0.177 C  
HETATM   14  CD1 UNL     1      -7.173  17.562  68.637  1.00  0.00    -0.246 C  
ENDBRANCH   4  13
BRANCH   8  15
HETATM   15  N   UNL     1     -10.340  11.115  70.369  1.00  0.00     0.470 N  
HETATM   16  H   UNL     1     -10.573  10.224  70.808  1.00  0.00     0.000 HD 
HETATM   17  C   UNL     1      -9.836  11.130  69.087  1.00  0.00    -0.053 C  
HETATM   18  O   UNL     1      -9.444  12.152  68.541  1.00  0.00    -0.193 OA 
BRANCH  17  19
HETATM   19  C   UNL     1      -9.712   9.783  68.369  1.00  0.00    -0.149 C  
BRANCH  19  20
HETATM   20  C   UNL     1      -8.478   9.452  67.661  1.00  0.00    -0.119 A  
HETATM   21  N   UNL     1      -5.215   8.176  67.901  1.00  0.00    -0.032 NA 
HETATM   22  C   UNL     1      -8.273   9.606  66.302  1.00  0.00    -0.116 A  
HETATM   23  N   UNL     1      -7.380   8.927  68.345  1.00  0.00    -0.081 NA 
HETATM   24  C   UNL     1      -6.390   8.695  67.519  1.00  0.00    -0.057 A  
HETATM   25  S   UNL     1      -6.692   9.094  65.879  1.00  0.00    -0.081 SA 
HETATM   26  H2  UNL     1      -4.487   8.016  67.205  1.00  0.00     0.000 HD 
HETATM   27  H1  UNL     1      -5.035   7.940  68.877  1.00  0.00     0.000 HD 
ENDBRANCH  19  20
BRANCH  19  28
HETATM   28  N   UNL     1     -10.630   8.855  68.303  1.00  0.00    -0.374 NA 
HETATM   29  H   UNL     1     -11.211   8.727  67.474  1.00  0.00     0.000 HD 
BRANCH  28  30
HETATM   30  O   UNL     1     -10.767   8.051  69.436  1.00  0.00    -0.224 OA 
BRANCH  30  31
HETATM   31  C   UNL     1     -11.014   6.708  69.008  1.00  0.00    -0.279 C  
HETATM   32  O   UNL     1     -12.290   5.673  67.217  1.00  0.00     4.348 OA 
HETATM   33  C   UNL     1     -11.508   6.547  67.571  1.00  0.00     0.256 C  
HETATM   34  O   UNL     1     -10.950   7.413  66.692  1.00  0.00    -0.119 OA 
ENDBRANCH  30  31
ENDBRANCH  28  30
ENDBRANCH  19  28
ENDBRANCH  17  19
ENDBRANCH   8  15
TORSDOF 7
ENDMDL
MODEL      243
REMARK 921   NORMALIZED FREE ENERGY PREDICTED BY IDOCK:   41.08 KCAL/MOL
REMARK 922        TOTAL FREE ENERGY PREDICTED BY IDOCK:   56.53 KCAL/MOL
REMARK 923 INTER-LIGAND FREE ENERGY PREDICTED BY IDOCK:   53.97 KCAL/MOL
REMARK 924 INTRA-LIGAND FREE ENERGY PREDICTED BY IDOCK:    2.56 KCAL/MOL
REMARK 927      BINDING AFFINITY PREDICTED BY RF-SCORE:    0.00 PKD
ROOT
HETATM    1  C   UNL     1      -9.704  18.477  67.734  1.00  0.00    -0.304 C  
HETATM    2  S   UNL     1     -11.435  18.061  67.530  1.00  0.00     1.310 SA 
HETATM    3  CG2 UNL     1     -12.065  19.265  68.699  1.00  0.00     5.187 C  
HETATM    4  CB  UNL     1     -11.275  19.470  69.988  1.00  0.00     3.505 C  
HETATM    5  O   UNL     1      -7.477  17.175  69.775  1.00  0.00     0.287 OA 
HETATM    6  CA  UNL     1      -9.975  19.077  70.151  1.00  0.00     1.042 C  
HETATM    7  N   UNL     1      -9.335  18.410  69.137  1.00  0.00    -0.080 N  
HETATM    8  CA  UNL     1      -8.700  17.292  67.505  1.00  0.00    -0.210 C  
HETATM    9  C   UNL     1      -9.221  19.374  71.438  1.00  0.00     3.798 C  
HETATM   10  C   UNL     1      -8.271  17.604  68.971  1.00  0.00    -0.051 C  
HETATM   11  OXT UNL     1      -9.479  20.322  72.165  1.00  0.00     1.758 OA 
HETATM   12  O   UNL     1      -8.198  18.560  71.760  1.00  0.00     8.096 OA 
ENDROOT
BRANCH   4  13
HETATM   13  CG1 UNL     1     -12.097  20.069  71.057  1.00  0.00    13.094 C  
HETATM   14  CD1 UNL     1     -12.002  21.307  71.567  1.00  0.00    16.128 C  
ENDBRANCH   4  13
BRANCH   8  15
HETATM   15  N   UNL     1      -9.248  15.905  67.329  1.00  0.00    -0.204 N  
HETATM   16  H   UNL     1     -10.245  15.777  67.156  1.00  0.00     0.000 HD 
HETATM   17  C   UNL     1      -8.421  14.805  67.397  1.00  0.00    -0.201 C  
HETATM   18  O   UNL     1      -7.238  14.882  67.700  1.00  0.00    -0.153 OA 
BRANCH  17  19
HETATM   19  C   UNL     1      -9.059  13.437  67.143  1.00  0.00    -0.235 C  
BRANCH  19  20
HETATM   20  C   UNL     1      -8.517  12.252  67.805  1.00  0.00    -0.163 A  
HETATM   21  N   UNL     1      -8.897   8.818  68.435  1.00  0.00    -0.138 NA 
HETATM   22  C   UNL     1      -7.355  12.219  68.554  1.00  0.00    -0.105 A  
HETATM   23  N   UNL     1      -9.168  11.020  67.710  1.00  0.00    -0.152 NA 
HETATM   24  C   UNL     1      -8.508  10.099  68.368  1.00  0.00    -0.118 A  
HETATM   25  S   UNL     1      -7.078  10.635  69.148  1.00  0.00    -0.108 SA 
HETATM   26  H2  UNL     1      -8.332   8.150  68.960  1.00  0.00     0.000 HD 
HETATM   27  H1  UNL     1      -9.747   8.499  67.972  1.00  0.00     0.000 HD 
ENDBRANCH  19  20
BRANCH  19  28
HETATM   28  N   UNL     1     -10.071  13.190  66.354  1.00  0.00    -0.274 NA 
HETATM   29  H   UNL     1     -10.716  13.921  66.056  1.00  0.00     0.000 HD 
BRANCH  28  30
HETATM   30  O   UNL     1     -10.216  11.862  65.946  1.00  0.00    -0.222 OA 
BRANCH  30  31
HETATM   31  C   UNL     1     -11.612  11.590  65.784  1.00  0.00     0.109 C  
HETATM   32  O   UNL     1     -13.672  12.778  66.289  1.00  0.00     2.719 OA 
HETATM   33  C   UNL     1     -12.536  12.806  65.829  1.00  0.00    -0.003 C  
HETATM   34  O   UNL     1     -12.024  13.916  65.247  1.00  0.00    -0.341 OA 
ENDBRANCH  30  31
ENDBRANCH  28  30
ENDBRANCH  19  28
ENDBRANCH  17  19
ENDBRANCH   8  15
TORSDOF 7
ENDMDL
