MODEL        1
REMARK 921   NORMALIZED FREE ENERGY PREDICTED BY IDOCK:   -7.70 KCAL/MOL
REMARK 922        TOTAL FREE ENERGY PREDICTED BY IDOCK:  -12.46 KCAL/MOL
REMARK 923 INTER-LIGAND FREE ENERGY PREDICTED BY IDOCK:  -11.31 KCAL/MOL
REMARK 924 INTRA-LIGAND FREE ENERGY PREDICTED BY IDOCK:   -1.16 KCAL/MOL
REMARK 927      BINDING AFFINITY PREDICTED BY RF-SCORE:    0.00 PKD
ROOT
HETATM    1  C   UNL     1      -9.143  15.502  66.250  1.00  0.00    -0.334 C  
HETATM    2  S   UNL     1      -8.531  14.823  67.769  1.00  0.00    -0.176 SA 
HETATM    3  C   UNL     1      -9.826  13.655  68.255  1.00  0.00    -0.232 C  
HETATM    4  C   UNL     1     -10.959  13.386  67.292  1.00  0.00    -0.286 C  
HETATM    5  O   UNL     1     -11.461  16.577  64.277  1.00  0.00    -1.000 OA 
HETATM    6  CA  UNL     1     -11.227  14.111  66.178  1.00  0.00    -0.326 C  
HETATM    7  CA  UNL     1      -9.476  17.019  65.854  1.00  0.00    -0.082 C  
HETATM    8  N   UNL     1     -10.497  15.216  65.882  1.00  0.00    -0.316 N  
HETATM    9  C   UNL     1     -12.395  13.726  65.311  1.00  0.00    -0.464 C  
HETATM   10  OXT UNL     1     -12.769  12.566  65.202  1.00  0.00    -0.659 OA 
HETATM   11  C   UNL     1     -10.611  16.288  65.065  1.00  0.00    -0.233 C  
HETATM   12  O   UNL     1     -13.029  14.698  64.638  1.00  0.00    -0.486 OA 
ENDROOT
BRANCH   4  13
HETATM   13  C   UNL     1     -11.884  12.286  67.832  1.00  0.00    -0.293 C  
BRANCH  13  14
HETATM   14  S   UNL     1     -11.231  11.714  69.426  1.00  0.00    -0.222 SA 
BRANCH  14  15
HETATM   15  C   UNL     1     -12.231  12.579  70.529  1.00  0.00    -0.297 A  
HETATM   16  N   UNL     1     -12.340  13.881  70.652  1.00  0.00    -0.360 NA 
HETATM   17  C   UNL     1     -13.183  10.586  71.764  1.00  0.00    -0.417 C  
HETATM   18  N   UNL     1     -13.134  14.082  71.762  1.00  0.00    -0.350 NA 
HETATM   19  N   UNL     1     -12.962  11.982  71.511  1.00  0.00    -0.369 NA 
HETATM   20  N   UNL     1     -13.514  12.927  72.296  1.00  0.00    -0.576 NA 
ENDBRANCH  14  15
ENDBRANCH  13  14
ENDBRANCH   4  13
BRANCH   7  21
HETATM   21  N   UNL     1     -10.060  18.225  66.603  1.00  0.00    -0.354 N  
HETATM   22  H   UNL     1     -11.079  18.198  66.638  1.00  0.00     0.000 HD 
HETATM   23  O   UNL     1     -10.334  20.126  67.797  1.00  0.00    -0.382 OA 
HETATM   24  C   UNL     1      -9.535  19.361  67.256  1.00  0.00    -0.318 C  
BRANCH  24  25
HETATM   25  C   UNL     1      -8.076  19.805  67.158  1.00  0.00    -0.292 C  
BRANCH  25  26
HETATM   26  C   UNL     1      -7.053  19.357  68.133  1.00  0.00    -0.275 A  
HETATM   27  H2  UNL     1      -5.294  16.563  70.826  1.00  0.00     0.000 HD 
HETATM   28  H1  UNL     1      -5.969  15.788  69.394  1.00  0.00     0.000 HD 
HETATM   29  C   UNL     1      -6.527  20.182  69.123  1.00  0.00    -0.306 A  
HETATM   30  N   UNL     1      -6.699  18.021  68.297  1.00  0.00    -0.201 NA 
HETATM   31  N   UNL     1      -5.754  16.637  69.918  1.00  0.00    -0.203 NA 
HETATM   32  S   UNL     1      -5.705  19.268  70.311  1.00  0.00    -0.230 SA 
HETATM   33  C   UNL     1      -6.065  17.846  69.433  1.00  0.00    -0.243 A  
ENDBRANCH  25  26
BRANCH  25  34
HETATM   34  N   UNL     1      -7.605  20.754  66.395  1.00  0.00    -0.521 NA 
HETATM   35  H   UNL     1      -8.178  21.592  66.287  1.00  0.00     0.000 HD 
BRANCH  34  36
HETATM   36  O   UNL     1      -6.383  20.723  65.710  1.00  0.00    -0.231 OA 
HETATM   37  C   UNL     1      -6.215  19.851  64.623  1.00  0.00    -0.270 C  
ENDBRANCH  34  36
ENDBRANCH  25  34
ENDBRANCH  24  25
ENDBRANCH   7  21
TORSDOF 8
ENDMDL
MODEL        2
REMARK 921   NORMALIZED FREE ENERGY PREDICTED BY IDOCK:   -7.36 KCAL/MOL
REMARK 922        TOTAL FREE ENERGY PREDICTED BY IDOCK:  -11.96 KCAL/MOL
REMARK 923 INTER-LIGAND FREE ENERGY PREDICTED BY IDOCK:  -10.78 KCAL/MOL
REMARK 924 INTRA-LIGAND FREE ENERGY PREDICTED BY IDOCK:   -1.18 KCAL/MOL
REMARK 927      BINDING AFFINITY PREDICTED BY RF-SCORE:    0.00 PKD
ROOT
HETATM    1  C   UNL     1     -11.433  11.088  67.625  1.00  0.00    -0.224 C  
HETATM    2  S   UNL     1     -10.552   9.551  67.616  1.00  0.00    -0.242 SA 
HETATM    3  C   UNL     1     -10.533   9.070  69.361  1.00  0.00    -0.222 C  
HETATM    4  C   UNL     1     -11.335   9.888  70.347  1.00  0.00    -0.376 C  
HETATM    5  O   UNL     1     -12.270  13.946  68.872  1.00  0.00    -0.354 OA 
HETATM    6  CA  UNL     1     -11.895  11.095  70.089  1.00  0.00    -0.365 C  
HETATM    7  CA  UNL     1     -10.975  12.547  67.144  1.00  0.00    -0.263 C  
HETATM    8  N   UNL     1     -11.702  11.703  68.890  1.00  0.00    -0.309 N  
HETATM    9  C   UNL     1     -12.666  11.796  71.173  1.00  0.00    -0.305 C  
HETATM   10  OXT UNL     1     -13.283  11.183  72.034  1.00  0.00    -0.493 OA 
HETATM   11  C   UNL     1     -11.856  12.942  68.373  1.00  0.00    -0.318 C  
HETATM   12  O   UNL     1     -12.674  13.138  71.175  1.00  0.00    -0.355 OA 
ENDROOT
BRANCH   4  13
HETATM   13  C   UNL     1     -11.289   9.254  71.745  1.00  0.00    -0.367 C  
BRANCH  13  14
HETATM   14  S   UNL     1      -9.715   8.367  71.926  1.00  0.00    -0.290 SA 
BRANCH  14  15
HETATM   15  C   UNL     1     -10.229   6.931  72.724  1.00  0.00    -0.192 A  
HETATM   16  N   UNL     1     -10.309   6.723  74.017  1.00  0.00    -0.373 NA 
HETATM   17  C   UNL     1     -10.587   5.506  70.664  1.00  0.00    -0.259 C  
HETATM   18  N   UNL     1     -10.616   5.386  74.159  1.00  0.00    -0.276 NA 
HETATM   19  N   UNL     1     -10.511   5.767  72.074  1.00  0.00    -0.211 NA 
HETATM   20  N   UNL     1     -10.736   4.794  72.976  1.00  0.00    -0.219 NA 
ENDBRANCH  14  15
ENDBRANCH  13  14
ENDBRANCH   4  13
BRANCH   7  21
HETATM   21  N   UNL     1      -9.654  13.328  67.180  1.00  0.00    -0.232 N  
HETATM   22  H   UNL     1      -8.981  12.915  67.825  1.00  0.00     0.000 HD 
HETATM   23  O   UNL     1      -7.981  14.803  66.800  1.00  0.00    -0.084 OA 
HETATM   24  C   UNL     1      -9.141  14.478  66.541  1.00  0.00    -0.219 C  
BRANCH  24  25
HETATM   25  C   UNL     1      -9.987  15.449  65.720  1.00  0.00    -0.362 C  
BRANCH  25  26
HETATM   26  C   UNL     1     -10.368  16.786  66.235  1.00  0.00    -0.310 A  
HETATM   27  H2  UNL     1     -10.463  21.044  66.133  1.00  0.00     0.000 HD 
HETATM   28  H1  UNL     1     -10.581  20.327  64.527  1.00  0.00     0.000 HD 
HETATM   29  C   UNL     1     -10.346  17.120  67.586  1.00  0.00    -0.344 A  
HETATM   30  N   UNL     1     -10.559  17.888  65.407  1.00  0.00    -0.599 NA 
HETATM   31  N   UNL     1     -10.525  20.216  65.539  1.00  0.00    -0.293 NA 
HETATM   32  S   UNL     1     -10.434  18.814  67.800  1.00  0.00    -0.401 SA 
HETATM   33  C   UNL     1     -10.530  19.001  66.103  1.00  0.00    -0.467 A  
ENDBRANCH  25  26
BRANCH  25  34
HETATM   34  N   UNL     1     -10.640  15.171  64.624  1.00  0.00    -0.573 NA 
HETATM   35  H   UNL     1     -10.202  15.438  63.741  1.00  0.00     0.000 HD 
BRANCH  34  36
HETATM   36  O   UNL     1     -11.888  14.538  64.552  1.00  0.00    -0.430 OA 
HETATM   37  C   UNL     1     -12.059  13.423  63.716  1.00  0.00    -0.456 C  
ENDBRANCH  34  36
ENDBRANCH  25  34
ENDBRANCH  24  25
ENDBRANCH   7  21
TORSDOF 8
ENDMDL
MODEL        3
REMARK 921   NORMALIZED FREE ENERGY PREDICTED BY IDOCK:   -7.31 KCAL/MOL
REMARK 922        TOTAL FREE ENERGY PREDICTED BY IDOCK:  -11.88 KCAL/MOL
REMARK 923 INTER-LIGAND FREE ENERGY PREDICTED BY IDOCK:  -10.59 KCAL/MOL
REMARK 924 INTRA-LIGAND FREE ENERGY PREDICTED BY IDOCK:   -1.29 KCAL/MOL
REMARK 927      BINDING AFFINITY PREDICTED BY RF-SCORE:    0.00 PKD
ROOT
HETATM    1  C   UNL     1     -11.927  14.017  68.798  1.00  0.00    -0.347 C  
HETATM    2  S   UNL     1     -11.486  12.471  68.051  1.00  0.00    -0.338 SA 
HETATM    3  C   UNL     1     -11.798  11.268  69.368  1.00  0.00    -0.355 C  
HETATM    4  C   UNL     1     -12.466  11.740  70.638  1.00  0.00    -0.364 C  
HETATM    5  O   UNL     1     -12.124  16.102  71.255  1.00  0.00    -0.414 OA 
HETATM    6  CA  UNL     1     -12.655  13.037  70.988  1.00  0.00    -0.299 C  
HETATM    7  CA  UNL     1     -11.050  15.335  69.046  1.00  0.00    -0.260 C  
HETATM    8  N   UNL     1     -12.171  14.038  70.209  1.00  0.00    -0.341 N  
HETATM    9  C   UNL     1     -13.336  13.357  72.290  1.00  0.00    -0.544 C  
HETATM   10  OXT UNL     1     -14.188  12.625  72.776  1.00  0.00    -0.208 OA 
HETATM   11  C   UNL     1     -11.933  15.363  70.336  1.00  0.00    -0.354 C  
HETATM   12  O   UNL     1     -12.991  14.490  72.920  1.00  0.00    -0.450 OA 
ENDROOT
BRANCH   4  13
HETATM   13  C   UNL     1     -12.751  10.558  71.576  1.00  0.00    -0.452 C  
BRANCH  13  14
HETATM   14  S   UNL     1     -12.180   9.033  70.773  1.00  0.00     0.015 SA 
BRANCH  14  15
HETATM   15  C   UNL     1     -10.852   8.601  71.780  1.00  0.00    -0.325 A  
HETATM   16  N   UNL     1     -10.898   8.010  72.951  1.00  0.00    -0.372 NA 
HETATM   17  C   UNL     1      -9.007   9.569  70.344  1.00  0.00    -0.243 C  
HETATM   18  N   UNL     1      -9.602   8.023  73.423  1.00  0.00    -0.261 NA 
HETATM   19  N   UNL     1      -9.561   8.942  71.511  1.00  0.00    -0.283 NA 
HETATM   20  N   UNL     1      -8.780   8.595  72.552  1.00  0.00    -0.405 NA 
ENDBRANCH  14  15
ENDBRANCH  13  14
ENDBRANCH   4  13
BRANCH   7  21
HETATM   21  N   UNL     1      -9.584  15.599  69.416  1.00  0.00    -0.274 N  
HETATM   22  H   UNL     1      -9.425  15.539  70.422  1.00  0.00     0.000 HD 
HETATM   23  O   UNL     1      -7.361  16.017  69.359  1.00  0.00    -0.223 OA 
HETATM   24  C   UNL     1      -8.401  15.904  68.709  1.00  0.00    -0.206 C  
BRANCH  24  25
HETATM   25  C   UNL     1      -8.366  16.303  67.234  1.00  0.00    -0.180 C  
BRANCH  25  26
HETATM   26  C   UNL     1      -8.391  17.722  66.805  1.00  0.00    -0.248 A  
HETATM   27  H2  UNL     1      -6.661  21.260  65.179  1.00  0.00     0.000 HD 
HETATM   28  H1  UNL     1      -6.095  19.799  64.372  1.00  0.00     0.000 HD 
HETATM   29  C   UNL     1      -9.030  18.728  67.523  1.00  0.00    -0.274 A  
HETATM   30  N   UNL     1      -7.589  18.214  65.779  1.00  0.00    -0.543 NA 
HETATM   31  N   UNL     1      -6.694  20.246  65.066  1.00  0.00    -0.306 NA 
HETATM   32  S   UNL     1      -8.527  20.274  66.995  1.00  0.00    -0.290 SA 
HETATM   33  C   UNL     1      -7.523  19.525  65.831  1.00  0.00    -0.300 A  
ENDBRANCH  25  26
BRANCH  25  34
HETATM   34  N   UNL     1      -8.531  15.507  66.213  1.00  0.00    -0.398 NA 
HETATM   35  H   UNL     1      -7.743  15.401  65.573  1.00  0.00     0.000 HD 
BRANCH  34  36
HETATM   36  O   UNL     1      -9.695  14.785  65.917  1.00  0.00    -0.310 OA 
HETATM   37  C   UNL     1     -10.706  15.377  65.143  1.00  0.00    -0.440 C  
ENDBRANCH  34  36
ENDBRANCH  25  34
ENDBRANCH  24  25
ENDBRANCH   7  21
TORSDOF 8
ENDMDL
MODEL        4
REMARK 921   NORMALIZED FREE ENERGY PREDICTED BY IDOCK:   -7.23 KCAL/MOL
REMARK 922        TOTAL FREE ENERGY PREDICTED BY IDOCK:  -11.76 KCAL/MOL
REMARK 923 INTER-LIGAND FREE ENERGY PREDICTED BY IDOCK:  -10.66 KCAL/MOL
REMARK 924 INTRA-LIGAND FREE ENERGY PREDICTED BY IDOCK:   -1.11 KCAL/MOL
REMARK 927      BINDING AFFINITY PREDICTED BY RF-SCORE:    0.00 PKD
ROOT
HETATM    1  C   UNL     1      -9.144  15.398  66.170  1.00  0.00    -0.304 C  
HETATM    2  S   UNL     1      -8.467  14.703  67.653  1.00  0.00    -0.194 SA 
HETATM    3  C   UNL     1      -9.728  13.511  68.168  1.00  0.00    -0.233 C  
HETATM    4  C   UNL     1     -10.893  13.242  67.244  1.00  0.00    -0.275 C  
HETATM    5  O   UNL     1     -11.549  16.474  64.303  1.00  0.00    -0.923 OA 
HETATM    6  CA  UNL     1     -11.212  13.981  66.153  1.00  0.00    -0.318 C  
HETATM    7  CA  UNL     1      -9.511  16.917  65.811  1.00  0.00     0.005 C  
HETATM    8  N   UNL     1     -10.507  15.100  65.848  1.00  0.00    -0.316 N  
HETATM    9  C   UNL     1     -12.407  13.594  65.325  1.00  0.00    -0.465 C  
HETATM   10  OXT UNL     1     -12.770  12.431  65.211  1.00  0.00    -0.617 OA 
HETATM   11  C   UNL     1     -10.666  16.183  65.054  1.00  0.00    -0.337 C  
HETATM   12  O   UNL     1     -13.078  14.568  64.692  1.00  0.00    -0.451 OA 
ENDROOT
BRANCH   4  13
HETATM   13  C   UNL     1     -11.783  12.121  67.801  1.00  0.00    -0.320 C  
BRANCH  13  14
HETATM   14  S   UNL     1     -10.839  11.200  69.048  1.00  0.00    -0.243 SA 
BRANCH  14  15
HETATM   15  C   UNL     1     -11.959  11.160  70.355  1.00  0.00    -0.378 A  
HETATM   16  N   UNL     1     -12.635  12.167  70.856  1.00  0.00    -0.308 NA 
HETATM   17  C   UNL     1     -11.706   8.712  70.946  1.00  0.00    -0.252 C  
HETATM   18  N   UNL     1     -13.269  11.667  71.974  1.00  0.00    -0.457 NA 
HETATM   19  N   UNL     1     -12.189  10.054  71.117  1.00  0.00    -0.349 NA 
HETATM   20  N   UNL     1     -12.997  10.378  72.144  1.00  0.00    -0.389 NA 
ENDBRANCH  14  15
ENDBRANCH  13  14
ENDBRANCH   4  13
BRANCH   7  21
HETATM   21  N   UNL     1     -10.081  18.103  66.601  1.00  0.00    -0.352 N  
HETATM   22  H   UNL     1     -11.075  18.241  66.422  1.00  0.00     0.000 HD 
HETATM   23  O   UNL     1     -10.359  19.864  67.993  1.00  0.00    -0.428 OA 
HETATM   24  C   UNL     1      -9.569  19.048  67.516  1.00  0.00    -0.305 C  
BRANCH  24  25
HETATM   25  C   UNL     1      -8.080  19.253  67.789  1.00  0.00    -0.286 C  
BRANCH  25  26
HETATM   26  C   UNL     1      -7.105  19.478  66.695  1.00  0.00    -0.215 A  
HETATM   27  H2  UNL     1      -5.857  21.073  62.946  1.00  0.00     0.000 HD 
HETATM   28  H1  UNL     1      -6.893  22.183  63.841  1.00  0.00     0.000 HD 
HETATM   29  C   UNL     1      -6.253  18.488  66.215  1.00  0.00    -0.184 A  
HETATM   30  N   UNL     1      -7.114  20.619  65.898  1.00  0.00    -0.131 NA 
HETATM   31  N   UNL     1      -6.390  21.298  63.788  1.00  0.00    -0.294 NA 
HETATM   32  S   UNL     1      -5.571  18.941  64.713  1.00  0.00    -0.255 SA 
HETATM   33  C   UNL     1      -6.415  20.425  64.803  1.00  0.00    -0.296 A  
ENDBRANCH  25  26
BRANCH  25  34
HETATM   34  N   UNL     1      -7.465  19.046  68.922  1.00  0.00    -0.338 NA 
HETATM   35  H   UNL     1      -7.282  19.860  69.509  1.00  0.00     0.000 HD 
BRANCH  34  36
HETATM   36  O   UNL     1      -7.035  17.802  69.404  1.00  0.00    -0.205 OA 
HETATM   37  C   UNL     1      -5.733  17.663  69.911  1.00  0.00    -0.247 C  
ENDBRANCH  34  36
ENDBRANCH  25  34
ENDBRANCH  24  25
ENDBRANCH   7  21
TORSDOF 8
ENDMDL
MODEL        5
REMARK 921   NORMALIZED FREE ENERGY PREDICTED BY IDOCK:   -7.22 KCAL/MOL
REMARK 922        TOTAL FREE ENERGY PREDICTED BY IDOCK:  -11.76 KCAL/MOL
REMARK 923 INTER-LIGAND FREE ENERGY PREDICTED BY IDOCK:  -10.53 KCAL/MOL
REMARK 924 INTRA-LIGAND FREE ENERGY PREDICTED BY IDOCK:   -1.23 KCAL/MOL
REMARK 927      BINDING AFFINITY PREDICTED BY RF-SCORE:    0.00 PKD
ROOT
HETATM    1  C   UNL     1     -10.539  10.214  69.655  1.00  0.00    -0.257 C  
HETATM    2  S   UNL     1     -10.186   9.414  68.114  1.00  0.00    -0.209 SA 
HETATM    3  C   UNL     1     -10.900  10.538  66.888  1.00  0.00    -0.187 C  
HETATM    4  C   UNL     1     -11.437  11.872  67.353  1.00  0.00    -0.393 C  
HETATM    5  O   UNL     1     -12.364  11.953  71.672  1.00  0.00    -0.066 OA 
HETATM    6  CA  UNL     1     -11.645  12.223  68.646  1.00  0.00    -0.323 C  
HETATM    7  CA  UNL     1     -11.376   9.698  70.922  1.00  0.00    -0.360 C  
HETATM    8  N   UNL     1     -11.436  11.330  69.645  1.00  0.00    -0.284 N  
HETATM    9  C   UNL     1     -12.189  13.590  68.959  1.00  0.00    -0.186 C  
HETATM   10  OXT UNL     1     -11.951  14.563  68.255  1.00  0.00    -0.320 OA 
HETATM   11  C   UNL     1     -11.761  11.213  70.953  1.00  0.00     0.011 C  
HETATM   12  O   UNL     1     -12.951  13.730  70.055  1.00  0.00    -0.017 OA 
ENDROOT
BRANCH   4  13
HETATM   13  C   UNL     1     -11.887  12.725  66.158  1.00  0.00    -0.425 C  
BRANCH  13  14
HETATM   14  S   UNL     1     -10.412  13.354  65.308  1.00  0.00    -0.335 SA 
BRANCH  14  15
HETATM   15  C   UNL     1     -10.916  14.948  64.895  1.00  0.00    -0.408 A  
HETATM   16  N   UNL     1     -11.798  15.294  63.987  1.00  0.00    -0.376 NA 
HETATM   17  C   UNL     1      -9.365  16.209  66.446  1.00  0.00    -0.298 C  
HETATM   18  N   UNL     1     -11.739  16.671  63.922  1.00  0.00    -0.906 NA 
HETATM   19  N   UNL     1     -10.347  16.074  65.407  1.00  0.00    -0.499 NA 
HETATM   20  N   UNL     1     -10.852  17.155  64.783  1.00  0.00    -0.800 NA 
ENDBRANCH  14  15
ENDBRANCH  13  14
ENDBRANCH   4  13
BRANCH   7  21
HETATM   21  N   UNL     1     -12.635   8.840  71.103  1.00  0.00    -0.466 N  
HETATM   22  H   UNL     1     -13.485   9.403  71.119  1.00  0.00     0.000 HD 
HETATM   23  O   UNL     1     -14.088   7.122  71.341  1.00  0.00    -0.381 OA 
HETATM   24  C   UNL     1     -12.907   7.463  71.253  1.00  0.00    -0.321 C  
BRANCH  24  25
HETATM   25  C   UNL     1     -11.838   6.404  71.517  1.00  0.00    -0.298 C  
BRANCH  25  26
HETATM   26  C   UNL     1     -10.979   5.870  70.433  1.00  0.00    -0.306 A  
HETATM   27  H2  UNL     1     -10.179   4.659  66.427  1.00  0.00     0.000 HD 
HETATM   28  H1  UNL     1     -11.219   6.080  66.508  1.00  0.00     0.000 HD 
HETATM   29  C   UNL     1     -10.096   4.809  70.609  1.00  0.00    -0.218 A  
HETATM   30  N   UNL     1     -11.143   6.222  69.096  1.00  0.00    -0.372 NA 
HETATM   31  N   UNL     1     -10.654   5.374  66.980  1.00  0.00    -0.255 NA 
HETATM   32  S   UNL     1      -9.581   4.182  69.104  1.00  0.00    -0.140 SA 
HETATM   33  C   UNL     1     -10.527   5.367  68.313  1.00  0.00    -0.120 A  
ENDBRANCH  25  26
BRANCH  25  34
HETATM   34  N   UNL     1     -11.695   5.704  72.610  1.00  0.00    -0.445 NA 
HETATM   35  H   UNL     1     -12.260   4.858  72.698  1.00  0.00     0.000 HD 
BRANCH  34  36
HETATM   36  O   UNL     1     -10.834   6.011  73.672  1.00  0.00    -0.254 OA 
HETATM   37  C   UNL     1     -10.342   7.318  73.815  1.00  0.00    -0.313 C  
ENDBRANCH  34  36
ENDBRANCH  25  34
ENDBRANCH  24  25
ENDBRANCH   7  21
TORSDOF 8
ENDMDL
MODEL        6
REMARK 921   NORMALIZED FREE ENERGY PREDICTED BY IDOCK:   -7.22 KCAL/MOL
REMARK 922        TOTAL FREE ENERGY PREDICTED BY IDOCK:  -11.76 KCAL/MOL
REMARK 923 INTER-LIGAND FREE ENERGY PREDICTED BY IDOCK:  -10.54 KCAL/MOL
REMARK 924 INTRA-LIGAND FREE ENERGY PREDICTED BY IDOCK:   -1.22 KCAL/MOL
REMARK 927      BINDING AFFINITY PREDICTED BY RF-SCORE:    0.00 PKD
ROOT
HETATM    1  C   UNL     1     -12.140  13.868  68.721  1.00  0.00    -0.309 C  
HETATM    2  S   UNL     1     -11.568  12.366  67.973  1.00  0.00    -0.359 SA 
HETATM    3  C   UNL     1     -11.729  11.150  69.304  1.00  0.00    -0.331 C  
HETATM    4  C   UNL     1     -12.410  11.566  70.588  1.00  0.00    -0.457 C  
HETATM    5  O   UNL     1     -12.481  15.945  71.168  1.00  0.00    -0.445 OA 
HETATM    6  CA  UNL     1     -12.716  12.840  70.933  1.00  0.00    -0.192 C  
HETATM    7  CA  UNL     1     -11.390  15.268  68.938  1.00  0.00    -0.305 C  
HETATM    8  N   UNL     1     -12.351  13.877  70.137  1.00  0.00    -0.342 N  
HETATM    9  C   UNL     1     -13.393  13.104  72.250  1.00  0.00    -0.522 C  
HETATM   10  OXT UNL     1     -14.158  12.297  72.762  1.00  0.00     0.137 OA 
HETATM   11  C   UNL     1     -12.240  15.220  70.250  1.00  0.00    -0.363 C  
HETATM   12  O   UNL     1     -13.146  14.271  72.864  1.00  0.00    -0.499 OA 
ENDROOT
BRANCH   4  13
HETATM   13  C   UNL     1     -12.555  10.369  71.540  1.00  0.00    -0.439 C  
BRANCH  13  14
HETATM   14  S   UNL     1     -11.885   8.894  70.721  1.00  0.00    -0.131 SA 
BRANCH  14  15
HETATM   15  C   UNL     1     -10.548   8.522  71.740  1.00  0.00    -0.301 A  
HETATM   16  N   UNL     1     -10.586   8.075  72.973  1.00  0.00    -0.334 NA 
HETATM   17  C   UNL     1      -8.705   9.232  70.157  1.00  0.00    -0.204 C  
HETATM   18  N   UNL     1      -9.278   8.083  73.409  1.00  0.00    -0.275 NA 
HETATM   19  N   UNL     1      -9.252   8.771  71.403  1.00  0.00    -0.233 NA 
HETATM   20  N   UNL     1      -8.457   8.512  72.458  1.00  0.00    -0.351 NA 
ENDBRANCH  14  15
ENDBRANCH  13  14
ENDBRANCH   4  13
BRANCH   7  21
HETATM   21  N   UNL     1      -9.948  15.677  69.271  1.00  0.00    -0.246 N  
HETATM   22  H   UNL     1      -9.707  15.479  70.241  1.00  0.00     0.000 HD 
HETATM   23  O   UNL     1      -7.812  16.414  69.169  1.00  0.00    -0.238 OA 
HETATM   24  C   UNL     1      -8.874  16.259  68.564  1.00  0.00    -0.219 C  
BRANCH  24  25
HETATM   25  C   UNL     1      -9.005  16.891  67.179  1.00  0.00    -0.206 C  
BRANCH  25  26
HETATM   26  C   UNL     1      -9.633  16.171  66.045  1.00  0.00    -0.346 A  
HETATM   27  H2  UNL     1     -12.802  15.341  63.322  1.00  0.00     0.000 HD 
HETATM   28  H1  UNL     1     -12.658  17.059  63.686  1.00  0.00     0.000 HD 
HETATM   29  C   UNL     1      -9.507  14.800  65.845  1.00  0.00    -0.231 A  
HETATM   30  N   UNL     1     -10.586  16.755  65.216  1.00  0.00    -0.648 NA 
HETATM   31  N   UNL     1     -12.315  16.104  63.793  1.00  0.00    -0.541 NA 
HETATM   32  S   UNL     1     -10.664  14.235  64.720  1.00  0.00    -0.378 SA 
HETATM   33  C   UNL     1     -11.238  15.836  64.541  1.00  0.00    -0.322 A  
ENDBRANCH  25  26
BRANCH  25  34
HETATM   34  N   UNL     1      -8.418  17.983  66.768  1.00  0.00    -0.249 NA 
HETATM   35  H   UNL     1      -7.949  17.947  65.863  1.00  0.00     0.000 HD 
BRANCH  34  36
HETATM   36  O   UNL     1      -8.378  19.200  67.461  1.00  0.00    -0.279 OA 
HETATM   37  C   UNL     1      -9.168  20.277  67.027  1.00  0.00    -0.375 C  
ENDBRANCH  34  36
ENDBRANCH  25  34
ENDBRANCH  24  25
ENDBRANCH   7  21
TORSDOF 8
ENDMDL
MODEL        7
REMARK 921   NORMALIZED FREE ENERGY PREDICTED BY IDOCK:   -7.20 KCAL/MOL
REMARK 922        TOTAL FREE ENERGY PREDICTED BY IDOCK:  -11.72 KCAL/MOL
REMARK 923 INTER-LIGAND FREE ENERGY PREDICTED BY IDOCK:  -10.50 KCAL/MOL
REMARK 924 INTRA-LIGAND FREE ENERGY PREDICTED BY IDOCK:   -1.22 KCAL/MOL
REMARK 927      BINDING AFFINITY PREDICTED BY RF-SCORE:    0.00 PKD
ROOT
HETATM    1  C   UNL     1     -11.694  14.474  68.569  1.00  0.00    -0.318 C  
HETATM    2  S   UNL     1     -11.154  15.735  69.691  1.00  0.00    -0.339 SA 
HETATM    3  C   UNL     1     -10.385  16.960  68.602  1.00  0.00    -0.332 C  
HETATM    4  C   UNL     1     -10.500  16.774  67.107  1.00  0.00    -0.299 C  
HETATM    5  O   UNL     1     -11.422  12.613  65.945  1.00  0.00    -0.326 OA 
HETATM    6  CA  UNL     1     -10.933  15.648  66.490  1.00  0.00    -0.206 C  
HETATM    7  CA  UNL     1     -11.312  12.918  68.498  1.00  0.00    -0.289 C  
HETATM    8  N   UNL     1     -11.243  14.541  67.212  1.00  0.00    -0.319 N  
HETATM    9  C   UNL     1     -10.992  15.608  64.987  1.00  0.00    -0.431 C  
HETATM   10  OXT UNL     1     -11.211  16.608  64.317  1.00  0.00    -1.098 OA 
HETATM   11  C   UNL     1     -11.442  13.226  66.970  1.00  0.00    -0.339 C  
HETATM   12  O   UNL     1     -10.804  14.426  64.380  1.00  0.00    -0.310 OA 
ENDROOT
BRANCH   4  13
HETATM   13  C   UNL     1      -9.891  17.971  66.362  1.00  0.00    -0.340 C  
BRANCH  13  14
HETATM   14  S   UNL     1      -8.088  17.767  66.314  1.00  0.00    -0.198 SA 
BRANCH  14  15
HETATM   15  C   UNL     1      -7.564  19.236  67.043  1.00  0.00    -0.235 A  
HETATM   16  N   UNL     1      -7.708  20.453  66.575  1.00  0.00    -0.233 NA 
HETATM   17  C   UNL     1      -6.417  18.226  69.059  1.00  0.00    -0.246 C  
HETATM   18  N   UNL     1      -6.993  21.265  67.430  1.00  0.00    -0.544 NA 
HETATM   19  N   UNL     1      -6.810  19.288  68.176  1.00  0.00    -0.250 NA 
HETATM   20  N   UNL     1      -6.437  20.560  68.408  1.00  0.00    -0.303 NA 
ENDBRANCH  14  15
ENDBRANCH  13  14
ENDBRANCH   4  13
BRANCH   7  21
HETATM   21  N   UNL     1     -10.033  12.110  68.757  1.00  0.00    -0.402 N  
HETATM   22  H   UNL     1      -9.192  12.676  68.644  1.00  0.00     0.000 HD 
HETATM   23  O   UNL     1      -8.548  10.484  69.275  1.00  0.00    -0.161 OA 
HETATM   24  C   UNL     1      -9.734  10.778  69.113  1.00  0.00    -0.163 C  
BRANCH  24  25
HETATM   25  C   UNL     1     -10.755   9.642  69.108  1.00  0.00    -0.217 C  
BRANCH  25  26
HETATM   26  C   UNL     1     -11.394   9.157  70.356  1.00  0.00    -0.224 A  
HETATM   27  H2  UNL     1     -13.516   6.315  72.716  1.00  0.00     0.000 HD 
HETATM   28  H1  UNL     1     -12.370   5.556  71.613  1.00  0.00     0.000 HD 
HETATM   29  C   UNL     1     -12.161   9.968  71.187  1.00  0.00    -0.380 A  
HETATM   30  N   UNL     1     -11.480   7.808  70.685  1.00  0.00    -0.271 NA 
HETATM   31  N   UNL     1     -12.784   6.399  72.010  1.00  0.00    -0.174 NA 
HETATM   32  S   UNL     1     -13.076   9.030  72.286  1.00  0.00    -0.444 SA 
HETATM   33  C   UNL     1     -12.382   7.616  71.620  1.00  0.00    -0.326 A  
ENDBRANCH  25  26
BRANCH  25  34
HETATM   34  N   UNL     1     -11.018   8.841  68.111  1.00  0.00    -0.466 NA 
HETATM   35  H   UNL     1     -12.001   8.681  67.889  1.00  0.00     0.000 HD 
BRANCH  34  36
HETATM   36  O   UNL     1     -10.069   8.181  67.319  1.00  0.00    -0.192 OA 
HETATM   37  C   UNL     1      -9.440   7.023  67.803  1.00  0.00    -0.124 C  
ENDBRANCH  34  36
ENDBRANCH  25  34
ENDBRANCH  24  25
ENDBRANCH   7  21
TORSDOF 8
ENDMDL
MODEL        8
REMARK 921   NORMALIZED FREE ENERGY PREDICTED BY IDOCK:   -7.14 KCAL/MOL
REMARK 922        TOTAL FREE ENERGY PREDICTED BY IDOCK:  -11.63 KCAL/MOL
REMARK 923 INTER-LIGAND FREE ENERGY PREDICTED BY IDOCK:  -10.40 KCAL/MOL
REMARK 924 INTRA-LIGAND FREE ENERGY PREDICTED BY IDOCK:   -1.23 KCAL/MOL
REMARK 927      BINDING AFFINITY PREDICTED BY RF-SCORE:    0.00 PKD
ROOT
HETATM    1  C   UNL     1     -11.487  11.625  67.511  1.00  0.00    -0.289 C  
HETATM    2  S   UNL     1     -10.729  10.024  67.456  1.00  0.00    -0.261 SA 
HETATM    3  C   UNL     1     -10.754   9.490  69.186  1.00  0.00    -0.210 C  
HETATM    4  C   UNL     1     -11.493  10.338  70.195  1.00  0.00    -0.383 C  
HETATM    5  O   UNL     1     -12.102  14.500  68.844  1.00  0.00    -0.301 OA 
HETATM    6  CA  UNL     1     -11.955  11.593  69.974  1.00  0.00    -0.351 C  
HETATM    7  CA  UNL     1     -10.914  13.058  67.075  1.00  0.00    -0.265 C  
HETATM    8  N   UNL     1     -11.712  12.220  68.794  1.00  0.00    -0.324 N  
HETATM    9  C   UNL     1     -12.673  12.319  71.078  1.00  0.00    -0.225 C  
HETATM   10  OXT UNL     1     -13.339  11.730  71.919  1.00  0.00    -0.448 OA 
HETATM   11  C   UNL     1     -11.766  13.483  68.316  1.00  0.00    -0.359 C  
HETATM   12  O   UNL     1     -12.576  13.657  71.121  1.00  0.00    -0.350 OA 
ENDROOT
BRANCH   4  13
HETATM   13  C   UNL     1     -11.501   9.661  71.573  1.00  0.00    -0.369 C  
BRANCH  13  14
HETATM   14  S   UNL     1     -10.798   7.996  71.404  1.00  0.00    -0.237 SA 
BRANCH  14  15
HETATM   15  C   UNL     1      -9.479   8.074  72.507  1.00  0.00    -0.232 A  
HETATM   16  N   UNL     1      -8.356   8.738  72.360  1.00  0.00    -0.399 NA 
HETATM   17  C   UNL     1     -10.393   6.480  74.246  1.00  0.00    -0.287 C  
HETATM   18  N   UNL     1      -7.564   8.365  73.426  1.00  0.00    -0.321 NA 
HETATM   19  N   UNL     1      -9.405   7.334  73.648  1.00  0.00    -0.211 NA 
HETATM   20  N   UNL     1      -8.196   7.502  74.214  1.00  0.00    -0.181 NA 
ENDBRANCH  14  15
ENDBRANCH  13  14
ENDBRANCH   4  13
BRANCH   7  21
HETATM   21  N   UNL     1      -9.536  13.731  67.137  1.00  0.00    -0.236 N  
HETATM   22  H   UNL     1      -8.848  13.153  67.618  1.00  0.00     0.000 HD 
HETATM   23  O   UNL     1      -7.788  15.146  66.897  1.00  0.00    -0.201 OA 
HETATM   24  C   UNL     1      -8.988  14.953  66.693  1.00  0.00    -0.270 C  
BRANCH  24  25
HETATM   25  C   UNL     1      -9.818  16.123  66.168  1.00  0.00    -0.333 C  
BRANCH  25  26
HETATM   26  C   UNL     1     -10.034  17.353  66.969  1.00  0.00    -0.295 A  
HETATM   27  H2  UNL     1      -9.553  21.499  67.822  1.00  0.00     0.000 HD 
HETATM   28  H1  UNL     1      -9.711  21.179  66.096  1.00  0.00     0.000 HD 
HETATM   29  C   UNL     1     -10.013  17.374  68.360  1.00  0.00    -0.329 A  
HETATM   30  N   UNL     1     -10.047  18.626  66.407  1.00  0.00    -0.382 NA 
HETATM   31  N   UNL     1      -9.705  20.840  67.058  1.00  0.00    -0.364 NA 
HETATM   32  S   UNL     1      -9.881  18.974  68.948  1.00  0.00    -0.358 SA 
HETATM   33  C   UNL     1      -9.892  19.543  67.335  1.00  0.00    -0.358 A  
ENDBRANCH  25  26
BRANCH  25  34
HETATM   34  N   UNL     1     -10.590  16.114  65.115  1.00  0.00    -0.609 NA 
HETATM   35  H   UNL     1     -10.887  17.018  64.748  1.00  0.00     0.000 HD 
BRANCH  34  36
HETATM   36  O   UNL     1     -11.046  14.971  64.445  1.00  0.00    -0.261 OA 
HETATM   37  C   UNL     1     -12.411  14.642  64.475  1.00  0.00    -0.398 C  
ENDBRANCH  34  36
ENDBRANCH  25  34
ENDBRANCH  24  25
ENDBRANCH   7  21
TORSDOF 8
ENDMDL
MODEL        9
REMARK 921   NORMALIZED FREE ENERGY PREDICTED BY IDOCK:   -7.10 KCAL/MOL
REMARK 922        TOTAL FREE ENERGY PREDICTED BY IDOCK:  -11.58 KCAL/MOL
REMARK 923 INTER-LIGAND FREE ENERGY PREDICTED BY IDOCK:  -10.85 KCAL/MOL
REMARK 924 INTRA-LIGAND FREE ENERGY PREDICTED BY IDOCK:   -0.72 KCAL/MOL
REMARK 927      BINDING AFFINITY PREDICTED BY RF-SCORE:    0.00 PKD
ROOT
HETATM    1  C   UNL     1     -11.681  14.334  68.774  1.00  0.00    -0.343 C  
HETATM    2  S   UNL     1     -11.474  12.749  68.009  1.00  0.00    -0.341 SA 
HETATM    3  C   UNL     1     -11.921  11.589  69.326  1.00  0.00    -0.330 C  
HETATM    4  C   UNL     1     -12.490  12.138  70.614  1.00  0.00    -0.330 C  
HETATM    5  O   UNL     1     -11.533  16.405  71.247  1.00  0.00    -0.396 OA 
HETATM    6  CA  UNL     1     -12.489  13.445  70.974  1.00  0.00    -0.353 C  
HETATM    7  CA  UNL     1     -10.623  15.516  69.009  1.00  0.00    -0.246 C  
HETATM    8  N   UNL     1     -11.889  14.376  70.190  1.00  0.00    -0.296 N  
HETATM    9  C   UNL     1     -13.090  13.846  72.294  1.00  0.00    -0.417 C  
HETATM   10  OXT UNL     1     -14.025  13.235  72.795  1.00  0.00    -0.701 OA 
HETATM   11  C   UNL     1     -11.466  15.654  70.319  1.00  0.00    -0.349 C  
HETATM   12  O   UNL     1     -12.579  14.915  72.922  1.00  0.00    -0.368 OA 
ENDROOT
BRANCH   4  13
HETATM   13  C   UNL     1     -12.915  10.999  71.551  1.00  0.00    -0.448 C  
BRANCH  13  14
HETATM   14  S   UNL     1     -12.599   9.417  70.719  1.00  0.00     0.042 SA 
BRANCH  14  15
HETATM   15  C   UNL     1     -11.418   8.719  71.760  1.00  0.00    -0.342 A  
HETATM   16  N   UNL     1     -11.628   8.080  72.887  1.00  0.00    -0.337 NA 
HETATM   17  C   UNL     1      -9.361   9.454  70.484  1.00  0.00    -0.262 C  
HETATM   18  N   UNL     1     -10.376   7.855  73.422  1.00  0.00    -0.236 NA 
HETATM   19  N   UNL     1     -10.075   8.861  71.579  1.00  0.00    -0.297 NA 
HETATM   20  N   UNL     1      -9.423   8.335  72.632  1.00  0.00    -0.274 NA 
ENDBRANCH  14  15
ENDBRANCH  13  14
ENDBRANCH   4  13
BRANCH   7  21
HETATM   21  N   UNL     1      -9.127  15.571  69.348  1.00  0.00    -0.273 N  
HETATM   22  H   UNL     1      -8.832  14.776  69.914  1.00  0.00     0.000 HD 
HETATM   23  O   UNL     1      -6.943  16.143  69.490  1.00  0.00    -0.215 OA 
HETATM   24  C   UNL     1      -8.059  16.450  69.068  1.00  0.00    -0.223 C  
BRANCH  24  25
HETATM   25  C   UNL     1      -8.234  17.841  68.461  1.00  0.00    -0.296 C  
BRANCH  25  26
HETATM   26  C   UNL     1      -9.338  18.154  67.522  1.00  0.00    -0.258 A  
HETATM   27  H2  UNL     1     -11.588  17.623  63.944  1.00  0.00     0.000 HD 
HETATM   28  H1  UNL     1     -11.014  16.097  64.613  1.00  0.00     0.000 HD 
HETATM   29  C   UNL     1      -9.747  19.452  67.228  1.00  0.00    -0.334 A  
HETATM   30  N   UNL     1      -9.908  17.203  66.682  1.00  0.00    -0.276 NA 
HETATM   31  N   UNL     1     -11.101  17.111  64.680  1.00  0.00    -1.007 NA 
HETATM   32  S   UNL     1     -10.733  19.482  65.831  1.00  0.00    -0.306 SA 
HETATM   33  C   UNL     1     -10.587  17.782  65.719  1.00  0.00    -0.175 A  
ENDBRANCH  25  26
BRANCH  25  34
HETATM   34  N   UNL     1      -7.367  18.817  68.499  1.00  0.00    -0.286 NA 
HETATM   35  H   UNL     1      -6.870  19.032  67.634  1.00  0.00     0.000 HD 
BRANCH  34  36
HETATM   36  O   UNL     1      -7.058  19.594  69.623  1.00  0.00    -0.310 OA 
HETATM   37  C   UNL     1      -5.722  19.933  69.892  1.00  0.00    -0.274 C  
ENDBRANCH  34  36
ENDBRANCH  25  34
ENDBRANCH  24  25
ENDBRANCH   7  21
TORSDOF 8
ENDMDL
MODEL       10
REMARK 921   NORMALIZED FREE ENERGY PREDICTED BY IDOCK:   -7.09 KCAL/MOL
REMARK 922        TOTAL FREE ENERGY PREDICTED BY IDOCK:  -11.57 KCAL/MOL
REMARK 923 INTER-LIGAND FREE ENERGY PREDICTED BY IDOCK:  -10.48 KCAL/MOL
REMARK 924 INTRA-LIGAND FREE ENERGY PREDICTED BY IDOCK:   -1.09 KCAL/MOL
REMARK 927      BINDING AFFINITY PREDICTED BY RF-SCORE:    0.00 PKD
ROOT
HETATM    1  C   UNL     1     -11.580  13.927  67.921  1.00  0.00    -0.342 C  
HETATM    2  S   UNL     1     -10.223  14.486  68.914  1.00  0.00    -0.204 SA 
HETATM    3  C   UNL     1      -9.318  15.590  67.800  1.00  0.00    -0.195 C  
HETATM    4  C   UNL     1      -9.925  15.922  66.457  1.00  0.00    -0.286 C  
HETATM    5  O   UNL     1     -12.961  12.986  65.158  1.00  0.00    -0.729 OA 
HETATM    6  CA  UNL     1     -10.987  15.289  65.901  1.00  0.00    -0.325 C  
HETATM    7  CA  UNL     1     -12.002  12.444  67.484  1.00  0.00    -0.183 C  
HETATM    8  N   UNL     1     -11.556  14.223  66.520  1.00  0.00    -0.364 N  
HETATM    9  C   UNL     1     -11.482  15.728  64.550  1.00  0.00    -0.289 C  
HETATM   10  OXT UNL     1     -11.392  16.887  64.169  1.00  0.00    -1.208 OA 
HETATM   11  C   UNL     1     -12.401  13.221  66.188  1.00  0.00    -0.358 C  
HETATM   12  O   UNL     1     -12.045  14.806  63.754  1.00  0.00    -0.425 OA 
ENDROOT
BRANCH   4  13
HETATM   13  C   UNL     1      -9.071  16.960  65.715  1.00  0.00     0.106 C  
BRANCH  13  14
HETATM   14  S   UNL     1      -7.520  17.193  66.629  1.00  0.00    -0.288 SA 
BRANCH  14  15
HETATM   15  C   UNL     1      -7.412  18.911  66.675  1.00  0.00    -0.229 A  
HETATM   16  N   UNL     1      -6.604  19.677  65.980  1.00  0.00    -0.213 NA 
HETATM   17  C   UNL     1      -9.121  19.312  68.497  1.00  0.00    -0.377 C  
HETATM   18  N   UNL     1      -6.784  20.951  66.478  1.00  0.00    -0.264 NA 
HETATM   19  N   UNL     1      -8.102  19.686  67.557  1.00  0.00    -0.289 NA 
HETATM   20  N   UNL     1      -7.694  20.964  67.445  1.00  0.00    -0.290 NA 
ENDBRANCH  14  15
ENDBRANCH  13  14
ENDBRANCH   4  13
BRANCH   7  21
HETATM   21  N   UNL     1     -11.230  11.171  67.107  1.00  0.00    -0.291 N  
HETATM   22  H   UNL     1     -11.306  10.956  66.113  1.00  0.00     0.000 HD 
HETATM   23  O   UNL     1      -9.932   9.319  67.137  1.00  0.00    -0.186 OA 
HETATM   24  C   UNL     1     -10.442  10.226  67.797  1.00  0.00    -0.226 C  
BRANCH  24  25
HETATM   25  C   UNL     1     -10.350  10.137  69.319  1.00  0.00    -0.223 C  
BRANCH  25  26
HETATM   26  C   UNL     1     -11.548  10.256  70.185  1.00  0.00    -0.299 A  
HETATM   27  H2  UNL     1     -14.041  12.230  73.021  1.00  0.00     0.000 HD 
HETATM   28  H1  UNL     1     -13.305  13.349  71.875  1.00  0.00     0.000 HD 
HETATM   29  C   UNL     1     -12.072   9.195  70.917  1.00  0.00    -0.214 A  
HETATM   30  N   UNL     1     -12.114  11.481  70.526  1.00  0.00    -0.375 NA 
HETATM   31  N   UNL     1     -13.459  12.394  72.198  1.00  0.00    -0.492 NA 
HETATM   32  S   UNL     1     -13.169   9.750  72.104  1.00  0.00    -0.387 SA 
HETATM   33  C   UNL     1     -12.911  11.351  71.562  1.00  0.00    -0.399 A  
ENDBRANCH  25  26
BRANCH  25  34
HETATM   34  N   UNL     1      -9.257  10.172  70.033  1.00  0.00    -0.392 NA 
HETATM   35  H   UNL     1      -9.171  10.924  70.717  1.00  0.00     0.000 HD 
BRANCH  34  36
HETATM   36  O   UNL     1      -8.191   9.267  69.941  1.00  0.00    -0.115 OA 
HETATM   37  C   UNL     1      -8.424   7.893  70.113  1.00  0.00    -0.129 C  
ENDBRANCH  34  36
ENDBRANCH  25  34
ENDBRANCH  24  25
ENDBRANCH   7  21
TORSDOF 8
ENDMDL
MODEL       11
REMARK 921   NORMALIZED FREE ENERGY PREDICTED BY IDOCK:   -7.08 KCAL/MOL
REMARK 922        TOTAL FREE ENERGY PREDICTED BY IDOCK:  -11.55 KCAL/MOL
REMARK 923 INTER-LIGAND FREE ENERGY PREDICTED BY IDOCK:   -9.30 KCAL/MOL
REMARK 924 INTRA-LIGAND FREE ENERGY PREDICTED BY IDOCK:   -2.25 KCAL/MOL
REMARK 927      BINDING AFFINITY PREDICTED BY RF-SCORE:    0.00 PKD
ROOT
HETATM    1  C   UNL     1     -11.873  15.203  68.771  1.00  0.00    -0.303 C  
HETATM    2  S   UNL     1     -11.038  16.338  69.844  1.00  0.00    -0.305 SA 
HETATM    3  C   UNL     1     -10.077  17.362  68.701  1.00  0.00    -0.355 C  
HETATM    4  C   UNL     1     -10.290  17.185  67.216  1.00  0.00    -0.320 C  
HETATM    5  O   UNL     1     -12.102  13.292  66.179  1.00  0.00    -0.401 OA 
HETATM    6  CA  UNL     1     -10.972  16.166  66.639  1.00  0.00    -0.055 C  
HETATM    7  CA  UNL     1     -11.825  13.601  68.718  1.00  0.00    -0.360 C  
HETATM    8  N   UNL     1     -11.475  15.157  67.396  1.00  0.00    -0.315 N  
HETATM    9  C   UNL     1     -11.100  16.119  65.141  1.00  0.00    -0.249 C  
HETATM   10  OXT UNL     1     -11.135  17.134  64.459  1.00  0.00    -1.105 OA 
HETATM   11  C   UNL     1     -11.951  13.909  67.191  1.00  0.00    -0.420 C  
HETATM   12  O   UNL     1     -11.187  14.916  64.553  1.00  0.00    -0.341 OA 
ENDROOT
BRANCH   4  13
HETATM   13  C   UNL     1      -9.478  18.220  66.422  1.00  0.00    -0.286 C  
BRANCH  13  14
HETATM   14  S   UNL     1      -8.912  19.511  67.566  1.00  0.00    -0.315 SA 
BRANCH  14  15
HETATM   15  C   UNL     1      -7.519  20.101  66.743  1.00  0.00    -0.279 A  
HETATM   16  N   UNL     1      -7.338  20.191  65.447  1.00  0.00    -0.258 NA 
HETATM   17  C   UNL     1      -6.081  20.538  68.779  1.00  0.00    -0.338 C  
HETATM   18  N   UNL     1      -6.022  20.570  65.283  1.00  0.00    -0.215 NA 
HETATM   19  N   UNL     1      -6.362  20.446  67.373  1.00  0.00    -0.210 NA 
HETATM   20  N   UNL     1      -5.417  20.722  66.455  1.00  0.00    -0.177 NA 
ENDBRANCH  14  15
ENDBRANCH  13  14
ENDBRANCH   4  13
BRANCH   7  21
HETATM   21  N   UNL     1     -10.732  12.548  68.946  1.00  0.00    -0.367 N  
HETATM   22  H   UNL     1     -10.942  11.942  69.739  1.00  0.00     0.000 HD 
HETATM   23  O   UNL     1      -8.890  11.246  68.779  1.00  0.00    -0.160 OA 
HETATM   24  C   UNL     1      -9.508  12.212  68.329  1.00  0.00    -0.204 C  
BRANCH  24  25
HETATM   25  C   UNL     1      -8.809  13.082  67.286  1.00  0.00    -0.208 C  
BRANCH  25  26
HETATM   26  C   UNL     1      -8.085  14.322  67.657  1.00  0.00    -0.179 A  
HETATM   27  H2  UNL     1      -5.137  17.347  67.100  1.00  0.00     0.000 HD 
HETATM   28  H1  UNL     1      -5.858  16.819  65.581  1.00  0.00     0.000 HD 
HETATM   29  C   UNL     1      -7.723  14.635  68.964  1.00  0.00    -0.134 A  
HETATM   30  N   UNL     1      -7.503  15.167  66.717  1.00  0.00     0.013 NA 
HETATM   31  N   UNL     1      -5.816  16.773  66.599  1.00  0.00    -0.327 NA 
HETATM   32  S   UNL     1      -6.565  15.892  68.996  1.00  0.00    -0.153 SA 
HETATM   33  C   UNL     1      -6.637  15.970  67.289  1.00  0.00    -0.184 A  
ENDBRANCH  25  26
BRANCH  25  34
HETATM   34  N   UNL     1      -8.935  12.989  65.990  1.00  0.00    -0.398 NA 
HETATM   35  H   UNL     1      -8.525  13.735  65.427  1.00  0.00     0.000 HD 
BRANCH  34  36
HETATM   36  O   UNL     1      -9.586  11.956  65.303  1.00  0.00    -0.222 OA 
HETATM   37  C   UNL     1      -8.907  10.754  65.046  1.00  0.00    -0.177 C  
ENDBRANCH  34  36
ENDBRANCH  25  34
ENDBRANCH  24  25
ENDBRANCH   7  21
TORSDOF 8
ENDMDL
MODEL       12
REMARK 921   NORMALIZED FREE ENERGY PREDICTED BY IDOCK:   -7.06 KCAL/MOL
REMARK 922        TOTAL FREE ENERGY PREDICTED BY IDOCK:  -11.52 KCAL/MOL
REMARK 923 INTER-LIGAND FREE ENERGY PREDICTED BY IDOCK:  -10.50 KCAL/MOL
REMARK 924 INTRA-LIGAND FREE ENERGY PREDICTED BY IDOCK:   -1.02 KCAL/MOL
REMARK 927      BINDING AFFINITY PREDICTED BY RF-SCORE:    0.00 PKD
ROOT
HETATM    1  C   UNL     1     -11.914  14.029  68.358  1.00  0.00    -0.343 C  
HETATM    2  S   UNL     1     -11.021  15.100  69.451  1.00  0.00    -0.280 SA 
HETATM    3  C   UNL     1     -10.196  16.252  68.325  1.00  0.00    -0.253 C  
HETATM    4  C   UNL     1     -10.533  16.194  66.853  1.00  0.00    -0.300 C  
HETATM    5  O   UNL     1     -12.314  12.338  65.637  1.00  0.00    -0.619 OA 
HETATM    6  CA  UNL     1     -11.234  15.203  66.250  1.00  0.00    -0.273 C  
HETATM    7  CA  UNL     1     -11.824  12.441  68.161  1.00  0.00    -0.315 C  
HETATM    8  N   UNL     1     -11.638  14.116  66.955  1.00  0.00    -0.362 N  
HETATM    9  C   UNL     1     -11.492  15.278  64.770  1.00  0.00    -0.363 C  
HETATM   10  OXT UNL     1     -11.617  16.346  64.185  1.00  0.00    -0.962 OA 
HETATM   11  C   UNL     1     -12.093  12.872  66.683  1.00  0.00    -0.289 C  
HETATM   12  O   UNL     1     -11.594  14.127  64.088  1.00  0.00    -0.332 OA 
ENDROOT
BRANCH   4  13
HETATM   13  C   UNL     1      -9.825  17.321  66.087  1.00  0.00    -0.253 C  
BRANCH  13  14
HETATM   14  S   UNL     1      -8.032  17.073  66.218  1.00  0.00    -0.272 SA 
BRANCH  14  15
HETATM   15  C   UNL     1      -7.466  18.698  66.210  1.00  0.00    -0.260 A  
HETATM   16  N   UNL     1      -7.009  19.378  65.184  1.00  0.00    -0.419 NA 
HETATM   17  C   UNL     1      -7.701  19.155  68.687  1.00  0.00    -0.352 C  
HETATM   18  N   UNL     1      -6.538  20.564  65.706  1.00  0.00    -0.235 NA 
HETATM   19  N   UNL     1      -7.317  19.451  67.335  1.00  0.00    -0.224 NA 
HETATM   20  N   UNL     1      -6.718  20.614  67.021  1.00  0.00    -0.263 NA 
ENDBRANCH  14  15
ENDBRANCH  13  14
ENDBRANCH   4  13
BRANCH   7  21
HETATM   21  N   UNL     1     -10.684  11.414  68.202  1.00  0.00    -0.191 N  
HETATM   22  H   UNL     1     -10.010  11.559  67.450  1.00  0.00     0.000 HD 
HETATM   23  O   UNL     1      -9.291   9.723  68.765  1.00  0.00    -0.143 OA 
HETATM   24  C   UNL     1     -10.339  10.319  69.022  1.00  0.00    -0.211 C  
BRANCH  24  25
HETATM   25  C   UNL     1     -11.270   9.705  70.065  1.00  0.00    -0.231 C  
BRANCH  25  26
HETATM   26  C   UNL     1     -10.831   8.606  70.959  1.00  0.00    -0.247 A  
HETATM   27  H2  UNL     1     -11.442   5.105  73.309  1.00  0.00     0.000 HD 
HETATM   28  H1  UNL     1     -12.401   5.102  71.830  1.00  0.00     0.000 HD 
HETATM   29  C   UNL     1      -9.934   8.786  72.008  1.00  0.00    -0.321 A  
HETATM   30  N   UNL     1     -11.445   7.357  70.980  1.00  0.00    -0.275 NA 
HETATM   31  N   UNL     1     -11.705   5.547  72.427  1.00  0.00    -0.189 NA 
HETATM   32  S   UNL     1      -9.961   7.450  73.075  1.00  0.00    -0.280 SA 
HETATM   33  C   UNL     1     -11.128   6.703  72.073  1.00  0.00    -0.255 A  
ENDBRANCH  25  26
BRANCH  25  34
HETATM   34  N   UNL     1     -12.560   9.887  70.155  1.00  0.00    -0.497 NA 
HETATM   35  H   UNL     1     -13.134   9.540  69.386  1.00  0.00     0.000 HD 
BRANCH  34  36
HETATM   36  O   UNL     1     -13.225  10.520  71.214  1.00  0.00    -0.365 OA 
HETATM   37  C   UNL     1     -12.820  11.798  71.629  1.00  0.00    -0.328 C  
ENDBRANCH  34  36
ENDBRANCH  25  34
ENDBRANCH  24  25
ENDBRANCH   7  21
TORSDOF 8
ENDMDL
MODEL       13
REMARK 921   NORMALIZED FREE ENERGY PREDICTED BY IDOCK:   -7.01 KCAL/MOL
REMARK 922        TOTAL FREE ENERGY PREDICTED BY IDOCK:  -11.45 KCAL/MOL
REMARK 923 INTER-LIGAND FREE ENERGY PREDICTED BY IDOCK:  -10.32 KCAL/MOL
REMARK 924 INTRA-LIGAND FREE ENERGY PREDICTED BY IDOCK:   -1.12 KCAL/MOL
REMARK 927      BINDING AFFINITY PREDICTED BY RF-SCORE:    0.00 PKD
ROOT
HETATM    1  C   UNL     1     -10.797  13.378  66.630  1.00  0.00    -0.282 C  
HETATM    2  S   UNL     1      -9.287  13.230  67.545  1.00  0.00    -0.228 SA 
HETATM    3  C   UNL     1      -8.421  14.776  67.173  1.00  0.00    -0.223 C  
HETATM    4  C   UNL     1      -9.149  15.844  66.390  1.00  0.00    -0.355 C  
HETATM    5  O   UNL     1     -12.575  14.270  64.087  1.00  0.00    -0.689 OA 
HETATM    6  CA  UNL     1     -10.323  15.671  65.734  1.00  0.00    -0.365 C  
HETATM    7  CA  UNL     1     -11.403  12.447  65.474  1.00  0.00    -0.346 C  
HETATM    8  N   UNL     1     -10.911  14.448  65.685  1.00  0.00    -0.304 N  
HETATM    9  C   UNL     1     -10.930  16.829  64.992  1.00  0.00    -0.108 C  
HETATM   10  OXT UNL     1     -10.778  17.987  65.356  1.00  0.00    -0.632 OA 
HETATM   11  C   UNL     1     -11.879  13.845  64.960  1.00  0.00    -0.373 C  
HETATM   12  O   UNL     1     -11.666  16.564  63.902  1.00  0.00    -1.148 OA 
ENDROOT
BRANCH   4  13
HETATM   13  C   UNL     1      -8.295  17.116  66.281  1.00  0.00    -0.263 C  
BRANCH  13  14
HETATM   14  S   UNL     1      -8.062  17.801  67.946  1.00  0.00    -0.241 SA 
BRANCH  14  15
HETATM   15  C   UNL     1      -7.575  19.411  67.582  1.00  0.00    -0.258 A  
HETATM   16  N   UNL     1      -7.781  20.074  66.468  1.00  0.00    -0.290 NA 
HETATM   17  C   UNL     1      -6.329  19.885  69.733  1.00  0.00    -0.367 C  
HETATM   18  N   UNL     1      -7.073  21.250  66.601  1.00  0.00    -0.237 NA 
HETATM   19  N   UNL     1      -6.790  20.164  68.402  1.00  0.00    -0.298 NA 
HETATM   20  N   UNL     1      -6.460  21.311  67.778  1.00  0.00    -0.422 NA 
ENDBRANCH  14  15
ENDBRANCH  13  14
ENDBRANCH   4  13
BRANCH   7  21
HETATM   21  N   UNL     1     -10.803  11.644  64.312  1.00  0.00    -0.336 N  
HETATM   22  H   UNL     1     -11.367  11.713  63.466  1.00  0.00     0.000 HD 
HETATM   23  O   UNL     1      -9.475  10.363  63.003  1.00  0.00    -0.296 OA 
HETATM   24  C   UNL     1      -9.662  10.834  64.126  1.00  0.00    -0.309 C  
BRANCH  24  25
HETATM   25  C   UNL     1      -8.768  10.343  65.263  1.00  0.00    -0.179 C  
BRANCH  25  26
HETATM   26  C   UNL     1      -9.279   9.453  66.334  1.00  0.00    -0.169 A  
HETATM   27  H2  UNL     1     -11.785   6.376  67.884  1.00  0.00     0.000 HD 
HETATM   28  H1  UNL     1     -11.245   6.043  66.240  1.00  0.00     0.000 HD 
HETATM   29  C   UNL     1      -9.509   9.880  67.638  1.00  0.00    -0.147 A  
HETATM   30  N   UNL     1      -9.790   8.184  66.081  1.00  0.00    -0.113 NA 
HETATM   31  N   UNL     1     -11.230   6.637  67.068  1.00  0.00    -0.347 NA 
HETATM   32  S   UNL     1     -10.467   8.752  68.493  1.00  0.00    -0.135 SA 
HETATM   33  C   UNL     1     -10.493   7.755  67.104  1.00  0.00    -0.343 A  
ENDBRANCH  25  26
BRANCH  25  34
HETATM   34  N   UNL     1      -7.576  10.788  65.559  1.00  0.00    -0.333 NA 
HETATM   35  H   UNL     1      -7.497  11.402  66.370  1.00  0.00     0.000 HD 
BRANCH  34  36
HETATM   36  O   UNL     1      -6.397  10.496  64.861  1.00  0.00    -0.111 OA 
HETATM   37  C   UNL     1      -6.233   9.237  64.263  1.00  0.00    -0.077 C  
ENDBRANCH  34  36
ENDBRANCH  25  34
ENDBRANCH  24  25
ENDBRANCH   7  21
TORSDOF 8
ENDMDL
MODEL       14
REMARK 921   NORMALIZED FREE ENERGY PREDICTED BY IDOCK:   -6.97 KCAL/MOL
REMARK 922        TOTAL FREE ENERGY PREDICTED BY IDOCK:  -11.39 KCAL/MOL
REMARK 923 INTER-LIGAND FREE ENERGY PREDICTED BY IDOCK:  -10.37 KCAL/MOL
REMARK 924 INTRA-LIGAND FREE ENERGY PREDICTED BY IDOCK:   -1.02 KCAL/MOL
REMARK 927      BINDING AFFINITY PREDICTED BY RF-SCORE:    0.00 PKD
ROOT
HETATM    1  C   UNL     1     -11.185  11.557  68.489  1.00  0.00    -0.258 C  
HETATM    2  S   UNL     1     -10.105  10.180  68.208  1.00  0.00    -0.163 SA 
HETATM    3  C   UNL     1     -10.260   9.212  69.731  1.00  0.00    -0.207 C  
HETATM    4  C   UNL     1     -11.296   9.625  70.750  1.00  0.00    -0.409 C  
HETATM    5  O   UNL     1     -12.575  13.831  70.311  1.00  0.00    -0.301 OA 
HETATM    6  CA  UNL     1     -11.977  10.797  70.743  1.00  0.00    -0.362 C  
HETATM    7  CA  UNL     1     -10.873  13.130  68.513  1.00  0.00    -0.262 C  
HETATM    8  N   UNL     1     -11.708  11.745  69.809  1.00  0.00    -0.324 N  
HETATM    9  C   UNL     1     -12.980  11.074  71.829  1.00  0.00    -0.438 C  
HETATM   10  OXT UNL     1     -13.618  10.180  72.369  1.00  0.00    -0.308 OA 
HETATM   11  C   UNL     1     -11.960  13.062  69.634  1.00  0.00    -0.302 C  
HETATM   12  O   UNL     1     -13.175  12.349  72.198  1.00  0.00    -0.491 OA 
ENDROOT
BRANCH   4  13
HETATM   13  C   UNL     1     -11.354   8.617  71.907  1.00  0.00    -0.347 C  
BRANCH  13  14
HETATM   14  S   UNL     1     -12.361   7.199  71.388  1.00  0.00    -0.392 SA 
BRANCH  14  15
HETATM   15  C   UNL     1     -11.149   6.007  71.114  1.00  0.00    -0.271 A  
HETATM   16  N   UNL     1     -10.590   5.686  69.971  1.00  0.00    -0.301 NA 
HETATM   17  C   UNL     1     -10.993   5.129  73.482  1.00  0.00    -0.310 C  
HETATM   18  N   UNL     1      -9.805   4.585  70.239  1.00  0.00    -0.220 NA 
HETATM   19  N   UNL     1     -10.700   5.154  72.077  1.00  0.00    -0.201 NA 
HETATM   20  N   UNL     1      -9.871   4.249  71.523  1.00  0.00    -0.184 NA 
ENDBRANCH  14  15
ENDBRANCH  13  14
ENDBRANCH   4  13
BRANCH   7  21
HETATM   21  N   UNL     1      -9.691  13.986  68.989  1.00  0.00    -0.416 N  
HETATM   22  H   UNL     1      -9.475  13.829  69.973  1.00  0.00     0.000 HD 
HETATM   23  O   UNL     1      -7.938  15.410  69.106  1.00  0.00    -0.186 OA 
HETATM   24  C   UNL     1      -8.830  14.937  68.400  1.00  0.00    -0.178 C  
BRANCH  24  25
HETATM   25  C   UNL     1      -9.059  15.562  67.025  1.00  0.00    -0.230 C  
BRANCH  25  26
HETATM   26  C   UNL     1      -9.351  17.006  66.859  1.00  0.00    -0.251 A  
HETATM   27  H2  UNL     1      -8.310  21.136  66.750  1.00  0.00     0.000 HD 
HETATM   28  H1  UNL     1      -7.057  20.105  66.061  1.00  0.00     0.000 HD 
HETATM   29  C   UNL     1     -10.494  17.618  67.365  1.00  0.00    -0.356 A  
HETATM   30  N   UNL     1      -8.411  17.917  66.388  1.00  0.00    -0.365 NA 
HETATM   31  N   UNL     1      -7.983  20.208  66.476  1.00  0.00    -0.296 NA 
HETATM   32  S   UNL     1     -10.328  19.320  67.366  1.00  0.00    -0.468 SA 
HETATM   33  C   UNL     1      -8.777  19.147  66.669  1.00  0.00    -0.320 A  
ENDBRANCH  25  26
BRANCH  25  34
HETATM   34  N   UNL     1      -9.243  14.919  65.904  1.00  0.00    -0.502 NA 
HETATM   35  H   UNL     1      -8.414  14.556  65.433  1.00  0.00     0.000 HD 
BRANCH  34  36
HETATM   36  O   UNL     1     -10.481  14.684  65.290  1.00  0.00    -0.342 OA 
HETATM   37  C   UNL     1     -10.743  13.435  64.704  1.00  0.00    -0.411 C  
ENDBRANCH  34  36
ENDBRANCH  25  34
ENDBRANCH  24  25
ENDBRANCH   7  21
TORSDOF 8
ENDMDL
MODEL       15
REMARK 921   NORMALIZED FREE ENERGY PREDICTED BY IDOCK:   -6.96 KCAL/MOL
REMARK 922        TOTAL FREE ENERGY PREDICTED BY IDOCK:  -11.38 KCAL/MOL
REMARK 923 INTER-LIGAND FREE ENERGY PREDICTED BY IDOCK:  -10.43 KCAL/MOL
REMARK 924 INTRA-LIGAND FREE ENERGY PREDICTED BY IDOCK:   -0.94 KCAL/MOL
REMARK 927      BINDING AFFINITY PREDICTED BY RF-SCORE:    0.00 PKD
ROOT
HETATM    1  C   UNL     1     -11.076  11.605  68.368  1.00  0.00    -0.234 C  
HETATM    2  S   UNL     1      -9.957  10.257  68.100  1.00  0.00    -0.151 SA 
HETATM    3  C   UNL     1     -10.157   9.246  69.588  1.00  0.00    -0.197 C  
HETATM    4  C   UNL     1     -11.244   9.612  70.572  1.00  0.00    -0.359 C  
HETATM    5  O   UNL     1     -12.591  13.802  70.184  1.00  0.00    -0.291 OA 
HETATM    6  CA  UNL     1     -11.949  10.770  70.564  1.00  0.00    -0.361 C  
HETATM    7  CA  UNL     1     -10.798  13.182  68.446  1.00  0.00    -0.262 C  
HETATM    8  N   UNL     1     -11.660  11.747  69.667  1.00  0.00    -0.314 N  
HETATM    9  C   UNL     1     -13.004  10.998  71.612  1.00  0.00    -0.456 C  
HETATM   10  OXT UNL     1     -13.646  10.077  72.100  1.00  0.00    -0.395 OA 
HETATM   11  C   UNL     1     -11.932  13.063  69.516  1.00  0.00    -0.289 C  
HETATM   12  O   UNL     1     -13.241  12.259  72.005  1.00  0.00    -0.494 OA 
ENDROOT
BRANCH   4  13
HETATM   13  C   UNL     1     -11.332   8.572  71.698  1.00  0.00    -0.295 C  
BRANCH  13  14
HETATM   14  S   UNL     1     -12.325   7.169  71.115  1.00  0.00    -0.341 SA 
BRANCH  14  15
HETATM   15  C   UNL     1     -11.103   5.998  70.803  1.00  0.00    -0.286 A  
HETATM   16  N   UNL     1     -10.646   5.616  69.634  1.00  0.00    -0.311 NA 
HETATM   17  C   UNL     1     -10.689   5.290  73.197  1.00  0.00    -0.266 C  
HETATM   18  N   UNL     1      -9.799   4.558  69.896  1.00  0.00    -0.218 NA 
HETATM   19  N   UNL     1     -10.533   5.227  71.771  1.00  0.00    -0.217 NA 
HETATM   20  N   UNL     1      -9.729   4.311  71.199  1.00  0.00    -0.179 NA 
ENDBRANCH  14  15
ENDBRANCH  13  14
ENDBRANCH   4  13
BRANCH   7  21
HETATM   21  N   UNL     1      -9.656  14.049  68.995  1.00  0.00    -0.408 N  
HETATM   22  H   UNL     1      -8.827  13.497  69.213  1.00  0.00     0.000 HD 
HETATM   23  O   UNL     1      -8.367  15.773  69.689  1.00  0.00    -0.200 OA 
HETATM   24  C   UNL     1      -9.472  15.420  69.273  1.00  0.00    -0.261 C  
BRANCH  24  25
HETATM   25  C   UNL     1     -10.601  16.449  69.288  1.00  0.00    -0.311 C  
BRANCH  25  26
HETATM   26  C   UNL     1     -10.518  17.714  68.519  1.00  0.00    -0.337 A  
HETATM   27  H2  UNL     1     -10.224  20.010  64.942  1.00  0.00     0.000 HD 
HETATM   28  H1  UNL     1     -11.239  18.582  64.747  1.00  0.00     0.000 HD 
HETATM   29  C   UNL     1      -9.757  18.807  68.924  1.00  0.00    -0.344 A  
HETATM   30  N   UNL     1     -11.003  17.843  67.221  1.00  0.00    -0.161 NA 
HETATM   31  N   UNL     1     -10.671  19.184  65.342  1.00  0.00    -0.472 NA 
HETATM   32  S   UNL     1      -9.549  19.918  67.641  1.00  0.00    -0.392 SA 
HETATM   33  C   UNL     1     -10.501  18.909  66.642  1.00  0.00    -0.428 A  
ENDBRANCH  25  26
BRANCH  25  34
HETATM   34  N   UNL     1     -11.623  16.465  70.100  1.00  0.00    -0.387 NA 
HETATM   35  H   UNL     1     -12.551  16.394  69.682  1.00  0.00     0.000 HD 
BRANCH  34  36
HETATM   36  O   UNL     1     -11.557  16.574  71.496  1.00  0.00    -0.384 OA 
HETATM   37  C   UNL     1     -12.568  16.007  72.288  1.00  0.00    -0.432 C  
ENDBRANCH  34  36
ENDBRANCH  25  34
ENDBRANCH  24  25
ENDBRANCH   7  21
TORSDOF 8
ENDMDL
MODEL       16
REMARK 921   NORMALIZED FREE ENERGY PREDICTED BY IDOCK:   -6.96 KCAL/MOL
REMARK 922        TOTAL FREE ENERGY PREDICTED BY IDOCK:  -11.37 KCAL/MOL
REMARK 923 INTER-LIGAND FREE ENERGY PREDICTED BY IDOCK:  -10.03 KCAL/MOL
REMARK 924 INTRA-LIGAND FREE ENERGY PREDICTED BY IDOCK:   -1.35 KCAL/MOL
REMARK 927      BINDING AFFINITY PREDICTED BY RF-SCORE:    0.00 PKD
ROOT
HETATM    1  C   UNL     1     -12.046  12.768  68.869  1.00  0.00    -0.135 C  
HETATM    2  S   UNL     1     -11.730  14.355  69.591  1.00  0.00    -0.327 SA 
HETATM    3  C   UNL     1     -10.738  15.196  68.331  1.00  0.00    -0.248 C  
HETATM    4  C   UNL     1     -10.547  14.525  66.991  1.00  0.00    -0.278 C  
HETATM    5  O   UNL     1     -11.268  10.167  67.120  1.00  0.00    -0.179 OA 
HETATM    6  CA  UNL     1     -10.860  13.236  66.710  1.00  0.00    -0.281 C  
HETATM    7  CA  UNL     1     -11.678  11.299  69.395  1.00  0.00    -0.339 C  
HETATM    8  N   UNL     1     -11.326  12.412  67.683  1.00  0.00    -0.291 N  
HETATM    9  C   UNL     1     -10.611  12.702  65.326  1.00  0.00    -0.291 C  
HETATM   10  OXT UNL     1     -10.675  13.413  64.333  1.00  0.00    -0.396 OA 
HETATM   11  C   UNL     1     -11.488  11.081  67.859  1.00  0.00    -0.282 C  
HETATM   12  O   UNL     1     -10.319  11.399  65.196  1.00  0.00    -0.264 OA 
ENDROOT
BRANCH   4  13
HETATM   13  C   UNL     1      -9.784  15.443  66.025  1.00  0.00    -0.338 C  
BRANCH  13  14
HETATM   14  S   UNL     1      -8.737  16.563  66.998  1.00  0.00    -0.212 SA 
BRANCH  14  15
HETATM   15  C   UNL     1      -9.487  18.081  66.683  1.00  0.00    -0.297 A  
HETATM   16  N   UNL     1     -10.421  18.340  65.799  1.00  0.00    -0.617 NA 
HETATM   17  C   UNL     1      -8.134  19.472  68.308  1.00  0.00    -0.334 C  
HETATM   18  N   UNL     1     -10.577  19.710  65.818  1.00  0.00    -0.507 NA 
HETATM   19  N   UNL     1      -9.095  19.249  67.263  1.00  0.00    -0.292 NA 
HETATM   20  N   UNL     1      -9.767  20.274  66.706  1.00  0.00    -0.430 NA 
ENDBRANCH  14  15
ENDBRANCH  13  14
ENDBRANCH   4  13
BRANCH   7  21
HETATM   21  N   UNL     1     -10.489  10.694  70.155  1.00  0.00    -0.435 N  
HETATM   22  H   UNL     1      -9.797  11.398  70.409  1.00  0.00     0.000 HD 
HETATM   23  O   UNL     1      -9.070   9.296  71.227  1.00  0.00    -0.264 OA 
HETATM   24  C   UNL     1     -10.119   9.403  70.588  1.00  0.00    -0.291 C  
BRANCH  24  25
HETATM   25  C   UNL     1     -10.818   8.119  70.146  1.00  0.00    -0.241 C  
BRANCH  25  26
HETATM   26  C   UNL     1     -10.314   7.300  69.017  1.00  0.00    -0.205 A  
HETATM   27  H2  UNL     1      -8.363   6.732  65.272  1.00  0.00     0.000 HD 
HETATM   28  H1  UNL     1      -7.596   7.982  66.250  1.00  0.00     0.000 HD 
HETATM   29  C   UNL     1     -11.023   6.238  68.466  1.00  0.00    -0.340 A  
HETATM   30  N   UNL     1      -9.202   7.660  68.261  1.00  0.00    -0.139 NA 
HETATM   31  N   UNL     1      -8.309   7.260  66.143  1.00  0.00    -0.126 NA 
HETATM   32  S   UNL     1     -10.372   5.785  66.951  1.00  0.00    -0.280 SA 
HETATM   33  C   UNL     1      -9.176   6.994  67.129  1.00  0.00    -0.137 A  
ENDBRANCH  25  26
BRANCH  25  34
HETATM   34  N   UNL     1     -12.000   7.712  70.522  1.00  0.00    -0.502 NA 
HETATM   35  H   UNL     1     -12.605   7.311  69.804  1.00  0.00     0.000 HD 
BRANCH  34  36
HETATM   36  O   UNL     1     -12.513   7.777  71.824  1.00  0.00    -0.302 OA 
HETATM   37  C   UNL     1     -13.462   8.758  72.152  1.00  0.00    -0.427 C  
ENDBRANCH  34  36
ENDBRANCH  25  34
ENDBRANCH  24  25
ENDBRANCH   7  21
TORSDOF 8
ENDMDL
MODEL       17
REMARK 921   NORMALIZED FREE ENERGY PREDICTED BY IDOCK:   -6.94 KCAL/MOL
REMARK 922        TOTAL FREE ENERGY PREDICTED BY IDOCK:  -11.35 KCAL/MOL
REMARK 923 INTER-LIGAND FREE ENERGY PREDICTED BY IDOCK:   -9.97 KCAL/MOL
REMARK 924 INTRA-LIGAND FREE ENERGY PREDICTED BY IDOCK:   -1.38 KCAL/MOL
REMARK 927      BINDING AFFINITY PREDICTED BY RF-SCORE:    0.00 PKD
ROOT
HETATM    1  C   UNL     1     -10.828  11.484  66.942  1.00  0.00    -0.284 C  
HETATM    2  S   UNL     1     -11.823  12.694  66.113  1.00  0.00    -0.394 SA 
HETATM    3  C   UNL     1     -10.782  14.175  66.134  1.00  0.00    -0.297 C  
HETATM    4  C   UNL     1      -9.361  14.055  66.635  1.00  0.00    -0.292 C  
HETATM    5  O   UNL     1      -8.716  10.499  69.177  1.00  0.00    -0.156 OA 
HETATM    6  CA  UNL     1      -8.851  12.984  67.291  1.00  0.00    -0.208 C  
HETATM    7  CA  UNL     1     -11.121  10.636  68.271  1.00  0.00    -0.279 C  
HETATM    8  N   UNL     1      -9.643  11.930  67.611  1.00  0.00    -0.182 N  
HETATM    9  C   UNL     1      -7.414  13.009  67.735  1.00  0.00    -0.146 C  
HETATM   10  OXT UNL     1      -6.551  13.617  67.115  1.00  0.00    -0.184 OA 
HETATM   11  C   UNL     1      -9.583  10.863  68.439  1.00  0.00    -0.177 C  
HETATM   12  O   UNL     1      -7.084  12.328  68.843  1.00  0.00    -0.104 OA 
ENDROOT
BRANCH   4  13
HETATM   13  C   UNL     1      -8.609  15.383  66.462  1.00  0.00    -0.259 C  
BRANCH  13  14
HETATM   14  S   UNL     1      -9.101  16.505  67.802  1.00  0.00    -0.205 SA 
BRANCH  14  15
HETATM   15  C   UNL     1      -9.916  17.741  66.923  1.00  0.00    -0.332 A  
HETATM   16  N   UNL     1     -10.530  17.625  65.769  1.00  0.00    -0.578 NA 
HETATM   17  C   UNL     1      -9.400  19.666  68.482  1.00  0.00    -0.342 C  
HETATM   18  N   UNL     1     -10.882  18.909  65.407  1.00  0.00    -0.483 NA 
HETATM   19  N   UNL     1      -9.915  19.053  67.290  1.00  0.00    -0.328 NA 
HETATM   20  N   UNL     1     -10.505  19.787  66.329  1.00  0.00    -0.495 NA 
ENDBRANCH  14  15
ENDBRANCH  13  14
ENDBRANCH   4  13
BRANCH   7  21
HETATM   21  N   UNL     1     -11.836  10.926  69.598  1.00  0.00    -0.318 N  
HETATM   22  H   UNL     1     -12.110  11.905  69.680  1.00  0.00     0.000 HD 
HETATM   23  O   UNL     1     -12.824  10.754  71.625  1.00  0.00    -0.421 OA 
HETATM   24  C   UNL     1     -12.207  10.172  70.732  1.00  0.00    -0.338 C  
BRANCH  24  25
HETATM   25  C   UNL     1     -11.718   8.752  71.012  1.00  0.00    -0.282 C  
BRANCH  25  26
HETATM   26  C   UNL     1     -10.730   8.459  72.078  1.00  0.00    -0.317 A  
HETATM   27  H2  UNL     1      -6.789   7.886  73.592  1.00  0.00     0.000 HD 
HETATM   28  H1  UNL     1      -6.870   9.169  72.387  1.00  0.00     0.000 HD 
HETATM   29  C   UNL     1     -10.920   7.479  73.048  1.00  0.00    -0.390 A  
HETATM   30  N   UNL     1      -9.435   8.969  72.068  1.00  0.00    -0.336 NA 
HETATM   31  N   UNL     1      -7.339   8.467  72.959  1.00  0.00    -0.320 NA 
HETATM   32  S   UNL     1      -9.453   7.117  73.848  1.00  0.00    -0.266 SA 
HETATM   33  C   UNL     1      -8.666   8.295  72.891  1.00  0.00    -0.221 A  
ENDBRANCH  25  26
BRANCH  25  34
HETATM   34  N   UNL     1     -11.912   7.704  70.258  1.00  0.00    -0.481 NA 
HETATM   35  H   UNL     1     -12.819   7.241  70.328  1.00  0.00     0.000 HD 
BRANCH  34  36
HETATM   36  O   UNL     1     -10.984   7.158  69.361  1.00  0.00    -0.225 OA 
HETATM   37  C   UNL     1     -10.718   5.780  69.386  1.00  0.00    -0.326 C  
ENDBRANCH  34  36
ENDBRANCH  25  34
ENDBRANCH  24  25
ENDBRANCH   7  21
TORSDOF 8
ENDMDL
MODEL       18
REMARK 921   NORMALIZED FREE ENERGY PREDICTED BY IDOCK:   -6.91 KCAL/MOL
REMARK 922        TOTAL FREE ENERGY PREDICTED BY IDOCK:  -11.30 KCAL/MOL
REMARK 923 INTER-LIGAND FREE ENERGY PREDICTED BY IDOCK:  -10.17 KCAL/MOL
REMARK 924 INTRA-LIGAND FREE ENERGY PREDICTED BY IDOCK:   -1.14 KCAL/MOL
REMARK 927      BINDING AFFINITY PREDICTED BY RF-SCORE:    0.00 PKD
ROOT
HETATM    1  C   UNL     1     -11.054  13.748  67.155  1.00  0.00    -0.302 C  
HETATM    2  S   UNL     1      -9.631  13.661  68.207  1.00  0.00    -0.204 SA 
HETATM    3  C   UNL     1      -8.682  15.132  67.747  1.00  0.00    -0.166 C  
HETATM    4  C   UNL     1      -9.303  16.127  66.795  1.00  0.00    -0.255 C  
HETATM    5  O   UNL     1     -12.582  14.403  64.387  1.00  0.00    -0.668 OA 
HETATM    6  CA  UNL     1     -10.424  15.915  66.063  1.00  0.00    -0.345 C  
HETATM    7  CA  UNL     1     -11.596  12.712  66.057  1.00  0.00    -0.393 C  
HETATM    8  N   UNL     1     -11.050  14.711  66.095  1.00  0.00    -0.329 N  
HETATM    9  C   UNL     1     -10.926  17.001  65.151  1.00  0.00    -0.010 C  
HETATM   10  OXT UNL     1     -10.763  18.187  65.401  1.00  0.00    -0.620 OA 
HETATM   11  C   UNL     1     -11.976  14.057  65.357  1.00  0.00    -0.380 C  
HETATM   12  O   UNL     1     -11.579  16.637  64.036  1.00  0.00    -1.197 OA 
ENDROOT
BRANCH   4  13
HETATM   13  C   UNL     1      -8.398  17.356  66.624  1.00  0.00    -0.263 C  
BRANCH  13  14
HETATM   14  S   UNL     1      -8.253  18.195  68.227  1.00  0.00    -0.296 SA 
BRANCH  14  15
HETATM   15  C   UNL     1      -7.436  19.642  67.777  1.00  0.00    -0.278 A  
HETATM   16  N   UNL     1      -7.631  20.364  66.699  1.00  0.00    -0.269 NA 
HETATM   17  C   UNL     1      -5.809  19.732  69.713  1.00  0.00    -0.282 C  
HETATM   18  N   UNL     1      -6.640  21.323  66.712  1.00  0.00    -0.433 NA 
HETATM   19  N   UNL     1      -6.376  20.153  68.462  1.00  0.00    -0.287 NA 
HETATM   20  N   UNL     1      -5.865  21.198  67.784  1.00  0.00    -0.322 NA 
ENDBRANCH  14  15
ENDBRANCH  13  14
ENDBRANCH   4  13
BRANCH   7  21
HETATM   21  N   UNL     1     -10.931  11.771  65.044  1.00  0.00    -0.306 N  
HETATM   22  H   UNL     1     -11.119  12.048  64.081  1.00  0.00     0.000 HD 
HETATM   23  O   UNL     1      -9.729  10.129  64.055  1.00  0.00    -0.306 OA 
HETATM   24  C   UNL     1     -10.123  10.616  65.116  1.00  0.00    -0.307 C  
BRANCH  24  25
HETATM   25  C   UNL     1      -9.879   9.822  66.398  1.00  0.00    -0.235 C  
BRANCH  25  26
HETATM   26  C   UNL     1      -8.677  10.039  67.239  1.00  0.00    -0.125 A  
HETATM   27  H2  UNL     1      -6.636  10.534  70.946  1.00  0.00     0.000 HD 
HETATM   28  H1  UNL     1      -7.940   9.352  71.045  1.00  0.00     0.000 HD 
HETATM   29  C   UNL     1      -7.664  10.933  66.908  1.00  0.00    -0.135 A  
HETATM   30  N   UNL     1      -8.564   9.547  68.536  1.00  0.00    -0.119 NA 
HETATM   31  N   UNL     1      -7.378   9.999  70.493  1.00  0.00    -0.298 NA 
HETATM   32  S   UNL     1      -6.658  11.247  68.255  1.00  0.00    -0.059 SA 
HETATM   33  C   UNL     1      -7.599  10.161  69.181  1.00  0.00    -0.103 A  
ENDBRANCH  25  26
BRANCH  25  34
HETATM   34  N   UNL     1     -10.529   8.757  66.785  1.00  0.00    -0.255 NA 
HETATM   35  H   UNL     1     -11.411   8.903  67.277  1.00  0.00     0.000 HD 
BRANCH  34  36
HETATM   36  O   UNL     1     -10.122   7.431  66.584  1.00  0.00    -0.229 OA 
HETATM   37  C   UNL     1     -10.968   6.377  66.962  1.00  0.00    -0.389 C  
ENDBRANCH  34  36
ENDBRANCH  25  34
ENDBRANCH  24  25
ENDBRANCH   7  21
TORSDOF 8
ENDMDL
MODEL       19
REMARK 921   NORMALIZED FREE ENERGY PREDICTED BY IDOCK:   -6.91 KCAL/MOL
REMARK 922        TOTAL FREE ENERGY PREDICTED BY IDOCK:  -11.29 KCAL/MOL
REMARK 923 INTER-LIGAND FREE ENERGY PREDICTED BY IDOCK:   -9.90 KCAL/MOL
REMARK 924 INTRA-LIGAND FREE ENERGY PREDICTED BY IDOCK:   -1.39 KCAL/MOL
REMARK 927      BINDING AFFINITY PREDICTED BY RF-SCORE:    0.00 PKD
ROOT
HETATM    1  C   UNL     1     -11.988  13.984  68.591  1.00  0.00    -0.354 C  
HETATM    2  S   UNL     1     -11.693  15.266  69.778  1.00  0.00    -0.348 SA 
HETATM    3  C   UNL     1     -10.916  16.573  68.795  1.00  0.00    -0.330 C  
HETATM    4  C   UNL     1     -10.843  16.406  67.295  1.00  0.00    -0.194 C  
HETATM    5  O   UNL     1     -11.255  12.202  66.000  1.00  0.00    -0.307 OA 
HETATM    6  CA  UNL     1     -11.102  15.258  66.622  1.00  0.00    -0.276 C  
HETATM    7  CA  UNL     1     -11.465  12.469  68.551  1.00  0.00    -0.305 C  
HETATM    8  N   UNL     1     -11.393  14.115  67.295  1.00  0.00    -0.316 N  
HETATM    9  C   UNL     1     -10.985  15.240  65.123  1.00  0.00    -0.416 C  
HETATM   10  OXT UNL     1     -11.214  16.229  64.440  1.00  0.00    -0.716 OA 
HETATM   11  C   UNL     1     -11.446  12.792  67.022  1.00  0.00    -0.341 C  
HETATM   12  O   UNL     1     -10.626  14.090  64.532  1.00  0.00    -0.416 OA 
ENDROOT
BRANCH   4  13
HETATM   13  C   UNL     1     -10.262  17.664  66.634  1.00  0.00    -0.341 C  
BRANCH  13  14
HETATM   14  S   UNL     1      -8.984  18.353  67.725  1.00  0.00    -0.285 SA 
BRANCH  14  15
HETATM   15  C   UNL     1      -7.600  17.459  67.227  1.00  0.00    -0.192 A  
HETATM   16  N   UNL     1      -7.198  16.295  67.679  1.00  0.00    -0.129 NA 
HETATM   17  C   UNL     1      -6.680  19.145  65.579  1.00  0.00    -0.264 C  
HETATM   18  N   UNL     1      -5.971  16.072  67.090  1.00  0.00    -0.337 NA 
HETATM   19  N   UNL     1      -6.669  17.936  66.354  1.00  0.00    -0.213 NA 
HETATM   20  N   UNL     1      -5.638  17.073  66.283  1.00  0.00    -0.329 NA 
ENDBRANCH  14  15
ENDBRANCH  13  14
ENDBRANCH   4  13
BRANCH   7  21
HETATM   21  N   UNL     1     -10.157  11.771  68.950  1.00  0.00    -0.394 N  
HETATM   22  H   UNL     1      -9.382  12.428  69.035  1.00  0.00     0.000 HD 
HETATM   23  O   UNL     1      -8.592  10.256  69.561  1.00  0.00    -0.169 OA 
HETATM   24  C   UNL     1      -9.763  10.444  69.226  1.00  0.00    -0.214 C  
BRANCH  24  25
HETATM   25  C   UNL     1     -10.629   9.218  68.942  1.00  0.00    -0.199 C  
BRANCH  25  26
HETATM   26  C   UNL     1     -10.956   8.227  69.995  1.00  0.00    -0.197 A  
HETATM   27  H2  UNL     1     -10.707   6.588  73.920  1.00  0.00     0.000 HD 
HETATM   28  H1  UNL     1     -10.715   8.351  73.924  1.00  0.00     0.000 HD 
HETATM   29  C   UNL     1     -11.046   6.859  69.757  1.00  0.00    -0.271 A  
HETATM   30  N   UNL     1     -10.974   8.544  71.350  1.00  0.00    -0.248 NA 
HETATM   31  N   UNL     1     -10.772   7.471  73.411  1.00  0.00    -0.382 NA 
HETATM   32  S   UNL     1     -11.024   5.978  71.222  1.00  0.00    -0.265 SA 
HETATM   33  C   UNL     1     -10.929   7.454  72.081  1.00  0.00    -0.245 A  
ENDBRANCH  25  26
BRANCH  25  34
HETATM   34  N   UNL     1     -10.986   8.779  67.765  1.00  0.00    -0.485 NA 
HETATM   35  H   UNL     1     -11.856   8.247  67.711  1.00  0.00     0.000 HD 
BRANCH  34  36
HETATM   36  O   UNL     1     -10.280   8.972  66.570  1.00  0.00    -0.278 OA 
HETATM   37  C   UNL     1      -9.324   8.027  66.164  1.00  0.00    -0.147 C  
ENDBRANCH  34  36
ENDBRANCH  25  34
ENDBRANCH  24  25
ENDBRANCH   7  21
TORSDOF 8
ENDMDL
MODEL       20
REMARK 921   NORMALIZED FREE ENERGY PREDICTED BY IDOCK:   -6.88 KCAL/MOL
REMARK 922        TOTAL FREE ENERGY PREDICTED BY IDOCK:  -11.26 KCAL/MOL
REMARK 923 INTER-LIGAND FREE ENERGY PREDICTED BY IDOCK:  -10.04 KCAL/MOL
REMARK 924 INTRA-LIGAND FREE ENERGY PREDICTED BY IDOCK:   -1.22 KCAL/MOL
REMARK 927      BINDING AFFINITY PREDICTED BY RF-SCORE:    0.00 PKD
ROOT
HETATM    1  C   UNL     1     -11.503  11.339  68.238  1.00  0.00    -0.308 C  
HETATM    2  S   UNL     1     -10.520   9.926  67.815  1.00  0.00    -0.259 SA 
HETATM    3  C   UNL     1     -10.591   8.907  69.310  1.00  0.00    -0.207 C  
HETATM    4  C   UNL     1     -11.514   9.326  70.430  1.00  0.00    -0.255 C  
HETATM    5  O   UNL     1     -12.619  13.600  70.253  1.00  0.00    -0.277 OA 
HETATM    6  CA  UNL     1     -12.135  10.528  70.523  1.00  0.00    -0.345 C  
HETATM    7  CA  UNL     1     -11.113  12.893  68.290  1.00  0.00    -0.264 C  
HETATM    8  N   UNL     1     -11.901  11.498  69.604  1.00  0.00    -0.327 N  
HETATM    9  C   UNL     1     -13.027  10.806  71.702  1.00  0.00    -0.476 C  
HETATM   10  OXT UNL     1     -13.659   9.921  72.264  1.00  0.00    -0.402 OA 
HETATM   11  C   UNL     1     -12.103  12.831  69.499  1.00  0.00    -0.205 C  
HETATM   12  O   UNL     1     -13.127  12.073  72.133  1.00  0.00    -0.437 OA 
ENDROOT
BRANCH   4  13
HETATM   13  C   UNL     1     -11.522   8.276  71.551  1.00  0.00    -0.275 C  
BRANCH  13  14
HETATM   14  S   UNL     1     -10.080   7.195  71.340  1.00  0.00    -0.187 SA 
BRANCH  14  15
HETATM   15  C   UNL     1      -9.036   7.781  72.578  1.00  0.00    -0.169 A  
HETATM   16  N   UNL     1      -9.215   7.701  73.875  1.00  0.00    -0.272 NA 
HETATM   17  C   UNL     1      -7.303   8.857  71.081  1.00  0.00    -0.105 C  
HETATM   18  N   UNL     1      -8.198   8.445  74.436  1.00  0.00    -0.242 NA 
HETATM   19  N   UNL     1      -7.921   8.525  72.334  1.00  0.00    -0.314 NA 
HETATM   20  N   UNL     1      -7.406   8.957  73.500  1.00  0.00    -0.343 NA 
ENDBRANCH  14  15
ENDBRANCH  13  14
ENDBRANCH   4  13
BRANCH   7  21
HETATM   21  N   UNL     1      -9.855  13.675  68.691  1.00  0.00    -0.363 N  
HETATM   22  H   UNL     1      -9.515  13.409  69.614  1.00  0.00     0.000 HD 
HETATM   23  O   UNL     1      -8.061  15.053  68.721  1.00  0.00    -0.146 OA 
HETATM   24  C   UNL     1      -9.052  14.672  68.096  1.00  0.00    -0.187 C  
BRANCH  24  25
HETATM   25  C   UNL     1      -9.441  15.446  66.838  1.00  0.00    -0.230 C  
BRANCH  25  26
HETATM   26  C   UNL     1     -10.035  16.803  66.904  1.00  0.00    -0.273 A  
HETATM   27  H2  UNL     1     -10.381  20.891  65.757  1.00  0.00     0.000 HD 
HETATM   28  H1  UNL     1     -10.016  19.836  64.393  1.00  0.00     0.000 HD 
HETATM   29  C   UNL     1     -10.399  17.421  68.097  1.00  0.00    -0.366 A  
HETATM   30  N   UNL     1     -10.069  17.667  65.814  1.00  0.00    -0.584 NA 
HETATM   31  N   UNL     1     -10.226  19.954  65.384  1.00  0.00    -0.298 NA 
HETATM   32  S   UNL     1     -10.654  19.096  67.867  1.00  0.00    -0.307 SA 
HETATM   33  C   UNL     1     -10.302  18.898  66.206  1.00  0.00    -0.453 A  
ENDBRANCH  25  26
BRANCH  25  34
HETATM   34  N   UNL     1      -9.516  14.966  65.626  1.00  0.00    -0.486 NA 
HETATM   35  H   UNL     1      -9.047  15.492  64.887  1.00  0.00     0.000 HD 
BRANCH  34  36
HETATM   36  O   UNL     1     -10.183  13.793  65.249  1.00  0.00    -0.332 OA 
HETATM   37  C   UNL     1     -11.535  13.848  64.875  1.00  0.00    -0.350 C  
ENDBRANCH  34  36
ENDBRANCH  25  34
ENDBRANCH  24  25
ENDBRANCH   7  21
TORSDOF 8
ENDMDL
MODEL       21
REMARK 921   NORMALIZED FREE ENERGY PREDICTED BY IDOCK:   -6.84 KCAL/MOL
REMARK 922        TOTAL FREE ENERGY PREDICTED BY IDOCK:  -11.20 KCAL/MOL
REMARK 923 INTER-LIGAND FREE ENERGY PREDICTED BY IDOCK:   -9.83 KCAL/MOL
REMARK 924 INTRA-LIGAND FREE ENERGY PREDICTED BY IDOCK:   -1.37 KCAL/MOL
REMARK 927      BINDING AFFINITY PREDICTED BY RF-SCORE:    0.00 PKD
ROOT
HETATM    1  C   UNL     1     -12.575  12.648  70.033  1.00  0.00     0.161 C  
HETATM    2  S   UNL     1     -12.288  14.116  70.983  1.00  0.00    -0.380 SA 
HETATM    3  C   UNL     1     -11.568  15.259  69.778  1.00  0.00    -0.314 C  
HETATM    4  C   UNL     1     -11.523  14.847  68.325  1.00  0.00    -0.343 C  
HETATM    5  O   UNL     1     -11.852  10.478  67.753  1.00  0.00    -0.361 OA 
HETATM    6  CA  UNL     1     -11.766  13.598  67.858  1.00  0.00    -0.360 C  
HETATM    7  CA  UNL     1     -12.012  11.160  70.230  1.00  0.00    -0.373 C  
HETATM    8  N   UNL     1     -12.012  12.576  68.718  1.00  0.00    -0.291 N  
HETATM    9  C   UNL     1     -11.682  13.334  66.380  1.00  0.00    -0.373 C  
HETATM   10  OXT UNL     1     -11.952  14.192  65.549  1.00  0.00    -0.361 OA 
HETATM   11  C   UNL     1     -12.035  11.225  68.668  1.00  0.00    -0.243 C  
HETATM   12  O   UNL     1     -11.305  12.111  65.977  1.00  0.00    -0.329 OA 
ENDROOT
BRANCH   4  13
HETATM   13  C   UNL     1     -10.991  15.992  67.451  1.00  0.00    -0.237 C  
BRANCH  13  14
HETATM   14  S   UNL     1     -10.324  17.286  68.535  1.00  0.00    -0.381 SA 
BRANCH  14  15
HETATM   15  C   UNL     1     -10.012  18.545  67.403  1.00  0.00    -0.330 A  
HETATM   16  N   UNL     1     -10.799  19.547  67.088  1.00  0.00    -0.486 NA 
HETATM   17  C   UNL     1      -7.767  17.716  66.582  1.00  0.00    -0.249 C  
HETATM   18  N   UNL     1     -10.180  20.186  66.034  1.00  0.00    -0.443 NA 
HETATM   19  N   UNL     1      -8.917  18.576  66.594  1.00  0.00    -0.288 NA 
HETATM   20  N   UNL     1      -9.032  19.596  65.722  1.00  0.00    -0.351 NA 
ENDBRANCH  14  15
ENDBRANCH  13  14
ENDBRANCH   4  13
BRANCH   7  21
HETATM   21  N   UNL     1     -10.678  10.567  70.704  1.00  0.00    -0.327 N  
HETATM   22  H   UNL     1     -10.016  11.289  70.987  1.00  0.00     0.000 HD 
HETATM   23  O   UNL     1      -9.004   9.170  71.308  1.00  0.00    -0.237 OA 
HETATM   24  C   UNL     1     -10.141   9.269  70.843  1.00  0.00    -0.302 C  
BRANCH  24  25
HETATM   25  C   UNL     1     -10.789   8.010  70.272  1.00  0.00    -0.241 C  
BRANCH  25  26
HETATM   26  C   UNL     1     -10.329   7.398  69.002  1.00  0.00    -0.210 A  
HETATM   27  H2  UNL     1      -9.039   7.513  64.943  1.00  0.00     0.000 HD 
HETATM   28  H1  UNL     1      -8.415   8.864  65.889  1.00  0.00     0.000 HD 
HETATM   29  C   UNL     1     -10.862   6.222  68.483  1.00  0.00    -0.323 A  
HETATM   30  N   UNL     1      -9.495   8.058  68.105  1.00  0.00    -0.143 NA 
HETATM   31  N   UNL     1      -8.947   7.995  65.839  1.00  0.00    -0.163 NA 
HETATM   32  S   UNL     1     -10.419   6.019  66.844  1.00  0.00    -0.298 SA 
HETATM   33  C   UNL     1      -9.527   7.475  66.928  1.00  0.00    -0.171 A  
ENDBRANCH  25  26
BRANCH  25  34
HETATM   34  N   UNL     1     -11.907   7.465  70.671  1.00  0.00    -0.465 NA 
HETATM   35  H   UNL     1     -12.664   7.403  69.989  1.00  0.00     0.000 HD 
BRANCH  34  36
HETATM   36  O   UNL     1     -12.159   6.959  71.953  1.00  0.00    -0.311 OA 
HETATM   37  C   UNL     1     -11.388   5.895  72.447  1.00  0.00    -0.307 C  
ENDBRANCH  34  36
ENDBRANCH  25  34
ENDBRANCH  24  25
ENDBRANCH   7  21
TORSDOF 8
ENDMDL
MODEL       22
REMARK 921   NORMALIZED FREE ENERGY PREDICTED BY IDOCK:   -6.78 KCAL/MOL
REMARK 922        TOTAL FREE ENERGY PREDICTED BY IDOCK:  -11.11 KCAL/MOL
REMARK 923 INTER-LIGAND FREE ENERGY PREDICTED BY IDOCK:   -9.81 KCAL/MOL
REMARK 924 INTRA-LIGAND FREE ENERGY PREDICTED BY IDOCK:   -1.29 KCAL/MOL
REMARK 927      BINDING AFFINITY PREDICTED BY RF-SCORE:    0.00 PKD
ROOT
HETATM    1  C   UNL     1     -12.258  12.532  69.528  1.00  0.00    -0.080 C  
HETATM    2  S   UNL     1     -11.987  14.111  70.285  1.00  0.00    -0.339 SA 
HETATM    3  C   UNL     1     -11.318  15.113  68.933  1.00  0.00    -0.301 C  
HETATM    4  C   UNL     1     -11.294  14.527  67.541  1.00  0.00    -0.355 C  
HETATM    5  O   UNL     1     -11.531  10.115  67.514  1.00  0.00    -0.249 OA 
HETATM    6  CA  UNL     1     -11.517  13.225  67.235  1.00  0.00    -0.338 C  
HETATM    7  CA  UNL     1     -11.656  11.091  69.892  1.00  0.00    -0.337 C  
HETATM    8  N   UNL     1     -11.721  12.312  68.218  1.00  0.00    -0.324 N  
HETATM    9  C   UNL     1     -11.457  12.785  65.799  1.00  0.00    -0.348 C  
HETATM   10  OXT UNL     1     -11.764  13.528  64.876  1.00  0.00    -0.334 OA 
HETATM   11  C   UNL     1     -11.713  10.965  68.334  1.00  0.00    -0.218 C  
HETATM   12  O   UNL     1     -11.059  11.530  65.539  1.00  0.00    -0.271 OA 
ENDROOT
BRANCH   4  13
HETATM   13  C   UNL     1     -10.806  15.567  66.521  1.00  0.00    -0.284 C  
BRANCH  13  14
HETATM   14  S   UNL     1      -9.441  16.507  67.261  1.00  0.00    -0.238 SA 
BRANCH  14  15
HETATM   15  C   UNL     1      -9.860  18.116  66.816  1.00  0.00    -0.337 A  
HETATM   16  N   UNL     1     -10.478  18.506  65.726  1.00  0.00    -0.628 NA 
HETATM   17  C   UNL     1      -8.809  19.300  68.790  1.00  0.00    -0.346 C  
HETATM   18  N   UNL     1     -10.442  19.884  65.754  1.00  0.00    -0.483 NA 
HETATM   19  N   UNL     1      -9.478  19.217  67.521  1.00  0.00    -0.303 NA 
HETATM   20  N   UNL     1      -9.827  20.327  66.845  1.00  0.00    -0.445 NA 
ENDBRANCH  14  15
ENDBRANCH  13  14
ENDBRANCH   4  13
BRANCH   7  21
HETATM   21  N   UNL     1     -10.299  10.589  70.403  1.00  0.00    -0.340 N  
HETATM   22  H   UNL     1      -9.615  11.342  70.480  1.00  0.00     0.000 HD 
HETATM   23  O   UNL     1      -8.600   9.324  71.198  1.00  0.00    -0.281 OA 
HETATM   24  C   UNL     1      -9.764   9.343  70.793  1.00  0.00    -0.264 C  
BRANCH  24  25
HETATM   25  C   UNL     1     -10.456   8.003  70.554  1.00  0.00    -0.214 C  
BRANCH  25  26
HETATM   26  C   UNL     1     -10.402   6.904  71.548  1.00  0.00    -0.203 A  
HETATM   27  H2  UNL     1      -9.270   3.031  72.916  1.00  0.00     0.000 HD 
HETATM   28  H1  UNL     1      -8.015   3.797  71.944  1.00  0.00     0.000 HD 
HETATM   29  C   UNL     1     -11.484   6.536  72.342  1.00  0.00    -0.271 A  
HETATM   30  N   UNL     1      -9.348   5.997  71.615  1.00  0.00    -0.149 NA 
HETATM   31  N   UNL     1      -8.930   3.839  72.393  1.00  0.00    -0.103 NA 
HETATM   32  S   UNL     1     -11.227   5.005  73.060  1.00  0.00    -0.290 SA 
HETATM   33  C   UNL     1      -9.693   4.936  72.307  1.00  0.00    -0.160 A  
ENDBRANCH  25  26
BRANCH  25  34
HETATM   34  N   UNL     1     -10.963   7.583  69.426  1.00  0.00    -0.421 NA 
HETATM   35  H   UNL     1     -11.980   7.557  69.353  1.00  0.00     0.000 HD 
BRANCH  34  36
HETATM   36  O   UNL     1     -10.231   7.163  68.307  1.00  0.00    -0.171 OA 
HETATM   37  C   UNL     1     -10.893   6.554  67.229  1.00  0.00    -0.390 C  
ENDBRANCH  34  36
ENDBRANCH  25  34
ENDBRANCH  24  25
ENDBRANCH   7  21
TORSDOF 8
ENDMDL
MODEL       23
REMARK 921   NORMALIZED FREE ENERGY PREDICTED BY IDOCK:   -6.74 KCAL/MOL
REMARK 922        TOTAL FREE ENERGY PREDICTED BY IDOCK:  -11.05 KCAL/MOL
REMARK 923 INTER-LIGAND FREE ENERGY PREDICTED BY IDOCK:   -9.41 KCAL/MOL
REMARK 924 INTRA-LIGAND FREE ENERGY PREDICTED BY IDOCK:   -1.64 KCAL/MOL
REMARK 927      BINDING AFFINITY PREDICTED BY RF-SCORE:    0.00 PKD
ROOT
HETATM    1  C   UNL     1      -7.338  14.633  68.960  1.00  0.00    -0.134 C  
HETATM    2  S   UNL     1      -8.836  15.515  69.303  1.00  0.00    -0.258 SA 
HETATM    3  C   UNL     1     -10.104  14.517  68.483  1.00  0.00    -0.242 C  
HETATM    4  C   UNL     1      -9.707  13.186  67.889  1.00  0.00    -0.221 C  
HETATM    5  O   UNL     1      -5.370  12.863  67.111  1.00  0.00    -0.343 OA 
HETATM    6  CA  UNL     1      -8.433  12.759  67.706  1.00  0.00    -0.177 C  
HETATM    7  CA  UNL     1      -6.008  15.106  68.199  1.00  0.00    -0.136 C  
HETATM    8  N   UNL     1      -7.386  13.571  68.001  1.00  0.00    -0.116 N  
HETATM    9  C   UNL     1      -8.189  11.406  67.097  1.00  0.00    -0.157 C  
HETATM   10  OXT UNL     1      -8.964  10.472  67.254  1.00  0.00    -0.139 OA 
HETATM   11  C   UNL     1      -6.062  13.616  67.729  1.00  0.00    -0.136 C  
HETATM   12  O   UNL     1      -7.076  11.233  66.367  1.00  0.00    -0.126 OA 
ENDROOT
BRANCH   4  13
HETATM   13  C   UNL     1     -10.937  12.442  67.349  1.00  0.00    -0.254 C  
BRANCH  13  14
HETATM   14  S   UNL     1     -12.247  13.654  67.016  1.00  0.00    -0.250 SA 
BRANCH  14  15
HETATM   15  C   UNL     1     -12.517  13.404  65.335  1.00  0.00    -0.494 A  
HETATM   16  N   UNL     1     -13.035  12.344  64.760  1.00  0.00    -0.768 NA 
HETATM   17  C   UNL     1     -11.508  15.570  64.501  1.00  0.00    -0.308 C  
HETATM   18  N   UNL     1     -12.899  12.555  63.404  1.00  0.00    -0.693 NA 
HETATM   19  N   UNL     1     -12.100  14.268  64.368  1.00  0.00    -0.479 NA 
HETATM   20  N   UNL     1     -12.323  13.726  63.156  1.00  0.00    -0.650 NA 
ENDBRANCH  14  15
ENDBRANCH  13  14
ENDBRANCH   4  13
BRANCH   7  21
HETATM   21  N   UNL     1      -5.722  16.018  66.997  1.00  0.00     0.085 N  
HETATM   22  H   UNL     1      -5.078  15.588  66.334  1.00  0.00     0.000 HD 
HETATM   23  O   UNL     1      -5.709  17.715  65.502  1.00  0.00    -0.096 OA 
HETATM   24  C   UNL     1      -6.131  17.304  66.584  1.00  0.00    -0.212 C  
BRANCH  24  25
HETATM   25  C   UNL     1      -6.887  18.288  67.474  1.00  0.00    -0.198 C  
BRANCH  25  26
HETATM   26  C   UNL     1      -8.347  18.507  67.338  1.00  0.00    -0.256 A  
HETATM   27  H2  UNL     1     -11.888  19.469  65.173  1.00  0.00     0.000 HD 
HETATM   28  H1  UNL     1     -10.750  18.522  64.218  1.00  0.00     0.000 HD 
HETATM   29  C   UNL     1      -9.114  19.169  68.292  1.00  0.00    -0.338 A  
HETATM   30  N   UNL     1      -9.037  18.281  66.151  1.00  0.00    -0.502 NA 
HETATM   31  N   UNL     1     -11.007  18.960  65.103  1.00  0.00    -0.341 NA 
HETATM   32  S   UNL     1     -10.638  19.612  67.656  1.00  0.00    -0.364 SA 
HETATM   33  C   UNL     1     -10.207  18.877  66.174  1.00  0.00    -0.433 A  
ENDBRANCH  25  26
BRANCH  25  34
HETATM   34  N   UNL     1      -6.356  19.179  68.268  1.00  0.00    -0.225 NA 
HETATM   35  H   UNL     1      -6.711  20.133  68.199  1.00  0.00     0.000 HD 
BRANCH  34  36
HETATM   36  O   UNL     1      -5.342  18.940  69.205  1.00  0.00    -0.194 OA 
HETATM   37  C   UNL     1      -5.536  17.981  70.213  1.00  0.00    -0.253 C  
ENDBRANCH  34  36
ENDBRANCH  25  34
ENDBRANCH  24  25
ENDBRANCH   7  21
TORSDOF 8
ENDMDL
MODEL       24
REMARK 921   NORMALIZED FREE ENERGY PREDICTED BY IDOCK:   -6.72 KCAL/MOL
REMARK 922        TOTAL FREE ENERGY PREDICTED BY IDOCK:  -11.02 KCAL/MOL
REMARK 923 INTER-LIGAND FREE ENERGY PREDICTED BY IDOCK:   -9.93 KCAL/MOL
REMARK 924 INTRA-LIGAND FREE ENERGY PREDICTED BY IDOCK:   -1.09 KCAL/MOL
REMARK 927      BINDING AFFINITY PREDICTED BY RF-SCORE:    0.00 PKD
ROOT
HETATM    1  C   UNL     1     -11.427  13.538  66.813  1.00  0.00    -0.346 C  
HETATM    2  S   UNL     1     -10.110  13.399  67.991  1.00  0.00    -0.247 SA 
HETATM    3  C   UNL     1      -9.094  14.860  67.655  1.00  0.00    -0.183 C  
HETATM    4  C   UNL     1      -9.605  15.887  66.671  1.00  0.00    -0.265 C  
HETATM    5  O   UNL     1     -12.677  14.282  63.931  1.00  0.00    -0.749 OA 
HETATM    6  CA  UNL     1     -10.657  15.713  65.834  1.00  0.00    -0.343 C  
HETATM    7  CA  UNL     1     -11.883  12.537  65.647  1.00  0.00    -0.438 C  
HETATM    8  N   UNL     1     -11.306  14.522  65.780  1.00  0.00    -0.332 N  
HETATM    9  C   UNL     1     -11.050  16.828  64.904  1.00  0.00    -0.054 C  
HETATM   10  OXT UNL     1     -10.889  18.006  65.195  1.00  0.00    -0.665 OA 
HETATM   11  C   UNL     1     -12.171  13.904  64.945  1.00  0.00    -0.422 C  
HETATM   12  O   UNL     1     -11.603  16.501  63.725  1.00  0.00    -1.109 OA 
ENDROOT
BRANCH   4  13
HETATM   13  C   UNL     1      -8.665  17.100  66.613  1.00  0.00    -0.252 C  
BRANCH  13  14
HETATM   14  S   UNL     1      -9.091  18.228  67.970  1.00  0.00    -0.297 SA 
BRANCH  14  15
HETATM   15  C   UNL     1      -7.694  19.231  68.025  1.00  0.00    -0.288 A  
HETATM   16  N   UNL     1      -7.533  20.405  67.462  1.00  0.00    -0.311 NA 
HETATM   17  C   UNL     1      -6.203  17.668  69.344  1.00  0.00    -0.249 C  
HETATM   18  N   UNL     1      -6.207  20.731  67.658  1.00  0.00    -0.263 NA 
HETATM   19  N   UNL     1      -6.513  18.849  68.587  1.00  0.00    -0.240 NA 
HETATM   20  N   UNL     1      -5.576  19.783  68.341  1.00  0.00    -0.200 NA 
ENDBRANCH  14  15
ENDBRANCH  13  14
ENDBRANCH   4  13
BRANCH   7  21
HETATM   21  N   UNL     1     -11.144  11.603  64.679  1.00  0.00    -0.300 N  
HETATM   22  H   UNL     1     -11.570  11.596  63.752  1.00  0.00     0.000 HD 
HETATM   23  O   UNL     1      -9.684  10.161  63.728  1.00  0.00    -0.291 OA 
HETATM   24  C   UNL     1     -10.021  10.751  64.755  1.00  0.00    -0.320 C  
BRANCH  24  25
HETATM   25  C   UNL     1      -9.332  10.360  66.061  1.00  0.00    -0.178 C  
BRANCH  25  26
HETATM   26  C   UNL     1      -9.989   9.489  67.064  1.00  0.00    -0.213 A  
HETATM   27  H2  UNL     1     -10.945   8.263  71.031  1.00  0.00     0.000 HD 
HETATM   28  H1  UNL     1     -10.879  10.016  70.864  1.00  0.00     0.000 HD 
HETATM   29  C   UNL     1     -10.065   8.104  66.942  1.00  0.00    -0.297 A  
HETATM   30  N   UNL     1     -10.381   9.944  68.320  1.00  0.00    -0.190 NA 
HETATM   31  N   UNL     1     -10.824   9.088  70.444  1.00  0.00    -0.237 NA 
HETATM   32  S   UNL     1     -10.501   7.380  68.428  1.00  0.00    -0.157 SA 
HETATM   33  C   UNL     1     -10.594   8.935  69.133  1.00  0.00    -0.195 A  
ENDBRANCH  25  26
BRANCH  25  34
HETATM   34  N   UNL     1      -8.240  10.886  66.548  1.00  0.00    -0.151 NA 
HETATM   35  H   UNL     1      -8.223  11.900  66.664  1.00  0.00     0.000 HD 
BRANCH  34  36
HETATM   36  O   UNL     1      -7.089  10.180  66.924  1.00  0.00    -0.087 OA 
HETATM   37  C   UNL     1      -6.483  10.444  68.163  1.00  0.00    -0.056 C  
ENDBRANCH  34  36
ENDBRANCH  25  34
ENDBRANCH  24  25
ENDBRANCH   7  21
TORSDOF 8
ENDMDL
MODEL       25
REMARK 921   NORMALIZED FREE ENERGY PREDICTED BY IDOCK:   -6.71 KCAL/MOL
REMARK 922        TOTAL FREE ENERGY PREDICTED BY IDOCK:  -11.01 KCAL/MOL
REMARK 923 INTER-LIGAND FREE ENERGY PREDICTED BY IDOCK:  -10.09 KCAL/MOL
REMARK 924 INTRA-LIGAND FREE ENERGY PREDICTED BY IDOCK:   -0.92 KCAL/MOL
REMARK 927      BINDING AFFINITY PREDICTED BY RF-SCORE:    0.00 PKD
ROOT
HETATM    1  C   UNL     1     -12.032  13.333  68.560  1.00  0.00    -0.304 C  
HETATM    2  S   UNL     1     -12.015  14.516  69.880  1.00  0.00    -0.346 SA 
HETATM    3  C   UNL     1     -11.197  15.952  69.142  1.00  0.00    -0.334 C  
HETATM    4  C   UNL     1     -10.886  15.929  67.664  1.00  0.00    -0.312 C  
HETATM    5  O   UNL     1     -10.786  11.846  65.979  1.00  0.00    -0.265 OA 
HETATM    6  CA  UNL     1     -10.954  14.835  66.867  1.00  0.00    -0.328 C  
HETATM    7  CA  UNL     1     -11.398  11.863  68.479  1.00  0.00    -0.276 C  
HETATM    8  N   UNL     1     -11.259  13.620  67.389  1.00  0.00    -0.292 N  
HETATM    9  C   UNL     1     -10.611  14.963  65.408  1.00  0.00    -0.373 C  
HETATM   10  OXT UNL     1     -10.807  15.996  64.781  1.00  0.00    -0.587 OA 
HETATM   11  C   UNL     1     -11.171  12.327  67.003  1.00  0.00    -0.310 C  
HETATM   12  O   UNL     1     -10.082  13.897  64.788  1.00  0.00    -0.373 OA 
ENDROOT
BRANCH   4  13
HETATM   13  C   UNL     1     -10.306  17.277  67.208  1.00  0.00    -0.331 C  
BRANCH  13  14
HETATM   14  S   UNL     1      -8.765  17.580  68.118  1.00  0.00    -0.269 SA 
BRANCH  14  15
HETATM   15  C   UNL     1      -7.794  18.313  66.900  1.00  0.00    -0.230 A  
HETATM   16  N   UNL     1      -7.766  18.021  65.621  1.00  0.00    -0.522 NA 
HETATM   17  C   UNL     1      -6.496  19.886  68.398  1.00  0.00    -0.278 C  
HETATM   18  N   UNL     1      -6.729  18.763  65.095  1.00  0.00    -0.518 NA 
HETATM   19  N   UNL     1      -6.826  19.235  67.161  1.00  0.00    -0.195 NA 
HETATM   20  N   UNL     1      -6.146  19.504  66.031  1.00  0.00    -0.176 NA 
ENDBRANCH  14  15
ENDBRANCH  13  14
ENDBRANCH   4  13
BRANCH   7  21
HETATM   21  N   UNL     1     -10.117  11.211  69.019  1.00  0.00    -0.326 N  
HETATM   22  H   UNL     1      -9.282  11.741  68.770  1.00  0.00     0.000 HD 
HETATM   23  O   UNL     1      -8.628   9.864  70.062  1.00  0.00    -0.203 OA 
HETATM   24  C   UNL     1      -9.811  10.059  69.775  1.00  0.00    -0.235 C  
BRANCH  24  25
HETATM   25  C   UNL     1     -10.810   8.945  70.079  1.00  0.00    -0.227 C  
BRANCH  25  26
HETATM   26  C   UNL     1     -10.550   7.534  69.704  1.00  0.00    -0.239 A  
HETATM   27  H2  UNL     1      -9.235   3.552  70.459  1.00  0.00     0.000 HD 
HETATM   28  H1  UNL     1     -10.057   4.266  71.845  1.00  0.00     0.000 HD 
HETATM   29  C   UNL     1     -10.017   7.154  68.476  1.00  0.00    -0.159 A  
HETATM   30  N   UNL     1     -10.596   6.488  70.621  1.00  0.00    -0.223 NA 
HETATM   31  N   UNL     1      -9.744   4.332  70.877  1.00  0.00    -0.185 NA 
HETATM   32  S   UNL     1      -9.464   5.537  68.520  1.00  0.00    -0.127 SA 
HETATM   33  C   UNL     1      -9.990   5.426  70.143  1.00  0.00    -0.232 A  
ENDBRANCH  25  26
BRANCH  25  34
HETATM   34  N   UNL     1     -12.045   9.099  70.475  1.00  0.00    -0.476 NA 
HETATM   35  H   UNL     1     -12.780   8.777  69.844  1.00  0.00     0.000 HD 
BRANCH  34  36
HETATM   36  O   UNL     1     -12.450   9.667  71.690  1.00  0.00    -0.353 OA 
HETATM   37  C   UNL     1     -13.658   9.264  72.281  1.00  0.00    -0.480 C  
ENDBRANCH  34  36
ENDBRANCH  25  34
ENDBRANCH  24  25
ENDBRANCH   7  21
TORSDOF 8
ENDMDL
MODEL       26
REMARK 921   NORMALIZED FREE ENERGY PREDICTED BY IDOCK:   -6.68 KCAL/MOL
REMARK 922        TOTAL FREE ENERGY PREDICTED BY IDOCK:  -10.96 KCAL/MOL
REMARK 923 INTER-LIGAND FREE ENERGY PREDICTED BY IDOCK:   -9.63 KCAL/MOL
REMARK 924 INTRA-LIGAND FREE ENERGY PREDICTED BY IDOCK:   -1.33 KCAL/MOL
REMARK 927      BINDING AFFINITY PREDICTED BY RF-SCORE:    0.00 PKD
ROOT
HETATM    1  C   UNL     1      -9.923   9.922  68.960  1.00  0.00    -0.187 C  
HETATM    2  S   UNL     1      -8.414   9.079  69.351  1.00  0.00    -0.121 SA 
HETATM    3  C   UNL     1      -8.675   8.526  71.055  1.00  0.00    -0.173 C  
HETATM    4  C   UNL     1     -10.039   8.713  71.677  1.00  0.00    -0.365 C  
HETATM    5  O   UNL     1     -12.461  11.798  69.644  1.00  0.00    -0.119 OA 
HETATM    6  CA  UNL     1     -11.038   9.468  71.159  1.00  0.00    -0.379 C  
HETATM    7  CA  UNL     1     -10.176  11.442  68.515  1.00  0.00    -0.208 C  
HETATM    8  N   UNL     1     -10.841  10.190  70.027  1.00  0.00    -0.287 N  
HETATM    9  C   UNL     1     -12.347   9.563  71.894  1.00  0.00    -0.373 C  
HETATM   10  OXT UNL     1     -12.778   8.644  72.578  1.00  0.00    -0.385 OA 
HETATM   11  C   UNL     1     -11.455  11.208  69.382  1.00  0.00    -0.298 C  
HETATM   12  O   UNL     1     -13.055  10.697  71.778  1.00  0.00    -0.444 OA 
ENDROOT
BRANCH   4  13
HETATM   13  C   UNL     1     -10.093   8.075  73.073  1.00  0.00    -0.281 C  
BRANCH  13  14
HETATM   14  S   UNL     1      -8.899   6.709  73.131  1.00  0.00    -0.123 SA 
BRANCH  14  15
HETATM   15  C   UNL     1      -9.946   5.344  73.057  1.00  0.00    -0.168 A  
HETATM   16  N   UNL     1     -11.170   5.253  73.521  1.00  0.00    -0.260 NA 
HETATM   17  C   UNL     1      -8.332   3.735  71.957  1.00  0.00    -0.087 C  
HETATM   18  N   UNL     1     -11.528   3.930  73.363  1.00  0.00    -0.169 NA 
HETATM   19  N   UNL     1      -9.561   4.124  72.590  1.00  0.00    -0.127 NA 
HETATM   20  N   UNL     1     -10.548   3.233  72.799  1.00  0.00    -0.125 NA 
ENDBRANCH  14  15
ENDBRANCH  13  14
ENDBRANCH   4  13
BRANCH   7  21
HETATM   21  N   UNL     1      -9.541  12.791  68.882  1.00  0.00    -0.399 N  
HETATM   22  H   UNL     1      -8.659  12.677  69.380  1.00  0.00     0.000 HD 
HETATM   23  O   UNL     1      -9.081  14.994  69.111  1.00  0.00    -0.202 OA 
HETATM   24  C   UNL     1      -9.879  14.149  68.700  1.00  0.00    -0.206 C  
BRANCH  24  25
HETATM   25  C   UNL     1     -11.245  14.634  68.218  1.00  0.00    -0.285 C  
BRANCH  25  26
HETATM   26  C   UNL     1     -11.697  14.439  66.819  1.00  0.00    -0.397 A  
HETATM   27  H2  UNL     1     -13.061  12.106  63.526  1.00  0.00     0.000 HD 
HETATM   28  H1  UNL     1     -13.731  11.562  65.063  1.00  0.00     0.000 HD 
HETATM   29  C   UNL     1     -11.119  15.086  65.731  1.00  0.00    -0.346 A  
HETATM   30  N   UNL     1     -12.577  13.428  66.444  1.00  0.00    -0.270 NA 
HETATM   31  N   UNL     1     -13.160  12.222  64.535  1.00  0.00    -0.754 NA 
HETATM   32  S   UNL     1     -11.580  14.345  64.261  1.00  0.00    -0.193 SA 
HETATM   33  C   UNL     1     -12.538  13.239  65.145  1.00  0.00    -0.453 A  
ENDBRANCH  25  26
BRANCH  25  34
HETATM   34  N   UNL     1     -12.054  15.433  68.860  1.00  0.00    -0.590 NA 
HETATM   35  H   UNL     1     -12.759  15.923  68.308  1.00  0.00     0.000 HD 
BRANCH  34  36
HETATM   36  O   UNL     1     -12.038  15.678  70.240  1.00  0.00    -0.363 OA 
HETATM   37  C   UNL     1     -13.162  15.358  71.017  1.00  0.00    -0.496 C  
ENDBRANCH  34  36
ENDBRANCH  25  34
ENDBRANCH  24  25
ENDBRANCH   7  21
TORSDOF 8
ENDMDL
MODEL       27
REMARK 921   NORMALIZED FREE ENERGY PREDICTED BY IDOCK:   -6.64 KCAL/MOL
REMARK 922        TOTAL FREE ENERGY PREDICTED BY IDOCK:  -10.90 KCAL/MOL
REMARK 923 INTER-LIGAND FREE ENERGY PREDICTED BY IDOCK:   -9.57 KCAL/MOL
REMARK 924 INTRA-LIGAND FREE ENERGY PREDICTED BY IDOCK:   -1.33 KCAL/MOL
REMARK 927      BINDING AFFINITY PREDICTED BY RF-SCORE:    0.00 PKD
ROOT
HETATM    1  C   UNL     1     -11.878  14.198  67.640  1.00  0.00    -0.392 C  
HETATM    2  S   UNL     1     -10.796  14.529  69.005  1.00  0.00    -0.258 SA 
HETATM    3  C   UNL     1      -9.789  15.912  68.414  1.00  0.00    -0.214 C  
HETATM    4  C   UNL     1     -10.147  16.557  67.095  1.00  0.00    -0.274 C  
HETATM    5  O   UNL     1     -12.601  13.953  64.503  1.00  0.00    -0.629 OA 
HETATM    6  CA  UNL     1     -11.020  16.053  66.188  1.00  0.00    -0.083 C  
HETATM    7  CA  UNL     1     -12.075  12.863  66.775  1.00  0.00    -0.265 C  
HETATM    8  N   UNL     1     -11.604  14.845  66.392  1.00  0.00    -0.292 N  
HETATM    9  C   UNL     1     -11.275  16.807  64.912  1.00  0.00     0.022 C  
HETATM   10  OXT UNL     1     -11.213  18.028  64.854  1.00  0.00    -0.618 OA 
HETATM   11  C   UNL     1     -12.277  13.934  65.654  1.00  0.00    -0.452 C  
HETATM   12  O   UNL     1     -11.589  16.102  63.814  1.00  0.00    -0.803 OA 
ENDROOT
BRANCH   4  13
HETATM   13  C   UNL     1      -9.257  17.780  66.827  1.00  0.00    -0.273 C  
BRANCH  13  14
HETATM   14  S   UNL     1      -7.579  17.201  66.447  1.00  0.00    -0.324 SA 
BRANCH  14  15
HETATM   15  C   UNL     1      -6.763  17.542  67.924  1.00  0.00    -0.179 A  
HETATM   16  N   UNL     1      -6.259  16.679  68.774  1.00  0.00    -0.142 NA 
HETATM   17  C   UNL     1      -7.017  20.060  67.881  1.00  0.00    -0.275 C  
HETATM   18  N   UNL     1      -5.856  17.423  69.862  1.00  0.00    -0.248 NA 
HETATM   19  N   UNL     1      -6.647  18.794  68.450  1.00  0.00    -0.227 NA 
HETATM   20  N   UNL     1      -6.094  18.716  69.674  1.00  0.00    -0.262 NA 
ENDBRANCH  14  15
ENDBRANCH  13  14
ENDBRANCH   4  13
BRANCH   7  21
HETATM   21  N   UNL     1     -11.137  11.758  66.272  1.00  0.00    -0.308 N  
HETATM   22  H   UNL     1     -11.337  11.494  65.307  1.00  0.00     0.000 HD 
HETATM   23  O   UNL     1      -9.503  10.205  66.077  1.00  0.00    -0.175 OA 
HETATM   24  C   UNL     1     -10.066  11.016  66.815  1.00  0.00    -0.220 C  
BRANCH  24  25
HETATM   25  C   UNL     1      -9.698  11.005  68.297  1.00  0.00    -0.177 C  
BRANCH  25  26
HETATM   26  C   UNL     1     -10.587  10.405  69.321  1.00  0.00    -0.232 A  
HETATM   27  H2  UNL     1     -13.409  10.563  72.509  1.00  0.00     0.000 HD 
HETATM   28  H1  UNL     1     -13.692  11.809  71.294  1.00  0.00     0.000 HD 
HETATM   29  C   UNL     1     -10.228   9.306  70.096  1.00  0.00    -0.215 A  
HETATM   30  N   UNL     1     -11.757  11.019  69.759  1.00  0.00    -0.303 NA 
HETATM   31  N   UNL     1     -13.166  10.997  71.618  1.00  0.00    -0.401 NA 
HETATM   32  S   UNL     1     -11.279   9.130  71.434  1.00  0.00    -0.377 SA 
HETATM   33  C   UNL     1     -12.161  10.490  70.892  1.00  0.00    -0.383 A  
ENDBRANCH  25  26
BRANCH  25  34
HETATM   34  N   UNL     1      -8.730  11.677  68.860  1.00  0.00    -0.370 NA 
HETATM   35  H   UNL     1      -8.650  11.616  69.875  1.00  0.00     0.000 HD 
BRANCH  34  36
HETATM   36  O   UNL     1      -7.792  12.476  68.192  1.00  0.00    -0.131 OA 
HETATM   37  C   UNL     1      -6.628  12.890  68.859  1.00  0.00    -0.095 C  
ENDBRANCH  34  36
ENDBRANCH  25  34
ENDBRANCH  24  25
ENDBRANCH   7  21
TORSDOF 8
ENDMDL
MODEL       28
REMARK 921   NORMALIZED FREE ENERGY PREDICTED BY IDOCK:   -6.63 KCAL/MOL
REMARK 922        TOTAL FREE ENERGY PREDICTED BY IDOCK:  -10.90 KCAL/MOL
REMARK 923 INTER-LIGAND FREE ENERGY PREDICTED BY IDOCK:   -9.97 KCAL/MOL
REMARK 924 INTRA-LIGAND FREE ENERGY PREDICTED BY IDOCK:   -0.92 KCAL/MOL
REMARK 927      BINDING AFFINITY PREDICTED BY RF-SCORE:    0.00 PKD
ROOT
HETATM    1  C   UNL     1     -11.990  11.662  69.339  1.00  0.00    -0.316 C  
HETATM    2  S   UNL     1     -11.982  13.267  70.089  1.00  0.00    -0.265 SA 
HETATM    3  C   UNL     1     -11.168  14.303  68.848  1.00  0.00    -0.264 C  
HETATM    4  C   UNL     1     -10.853  13.704  67.497  1.00  0.00    -0.275 C  
HETATM    5  O   UNL     1     -10.732   9.287  67.549  1.00  0.00    -0.277 OA 
HETATM    6  CA  UNL     1     -10.915  12.384  67.193  1.00  0.00    -0.262 C  
HETATM    7  CA  UNL     1     -11.350  10.280  69.841  1.00  0.00    -0.290 C  
HETATM    8  N   UNL     1     -11.216  11.470  68.150  1.00  0.00    -0.248 N  
HETATM    9  C   UNL     1     -10.569  11.932  65.801  1.00  0.00    -0.267 C  
HETATM   10  OXT UNL     1     -10.767  12.635  64.820  1.00  0.00    -0.283 OA 
HETATM   11  C   UNL     1     -11.122  10.129  68.302  1.00  0.00    -0.227 C  
HETATM   12  O   UNL     1     -10.034  10.710  65.649  1.00  0.00    -0.239 OA 
ENDROOT
BRANCH   4  13
HETATM   13  C   UNL     1     -10.277  14.767  66.550  1.00  0.00    -0.276 C  
BRANCH  13  14
HETATM   14  S   UNL     1     -10.442  16.394  67.339  1.00  0.00    -0.300 SA 
BRANCH  14  15
HETATM   15  C   UNL     1      -9.227  17.292  66.513  1.00  0.00    -0.261 A  
HETATM   16  N   UNL     1      -8.048  16.867  66.123  1.00  0.00    -0.427 NA 
HETATM   17  C   UNL     1     -10.416  19.526  66.483  1.00  0.00    -0.493 C  
HETATM   18  N   UNL     1      -7.388  17.984  65.657  1.00  0.00    -0.541 NA 
HETATM   19  N   UNL     1      -9.315  18.629  66.267  1.00  0.00    -0.436 NA 
HETATM   20  N   UNL     1      -8.153  19.066  65.746  1.00  0.00    -0.425 NA 
ENDBRANCH  14  15
ENDBRANCH  13  14
ENDBRANCH   4  13
BRANCH   7  21
HETATM   21  N   UNL     1     -10.068   9.898  70.595  1.00  0.00    -0.365 N  
HETATM   22  H   UNL     1      -9.265  10.445  70.287  1.00  0.00     0.000 HD 
HETATM   23  O   UNL     1      -8.562   8.974  72.006  1.00  0.00    -0.367 OA 
HETATM   24  C   UNL     1      -9.728   8.977  71.608  1.00  0.00    -0.276 C  
BRANCH  24  25
HETATM   25  C   UNL     1     -10.648   7.857  72.090  1.00  0.00    -0.253 C  
BRANCH  25  26
HETATM   26  C   UNL     1     -10.417   6.439  71.723  1.00  0.00    -0.214 A  
HETATM   27  H2  UNL     1     -10.023   2.281  72.567  1.00  0.00     0.000 HD 
HETATM   28  H1  UNL     1     -11.273   3.053  73.542  1.00  0.00     0.000 HD 
HETATM   29  C   UNL     1      -9.456   6.034  70.802  1.00  0.00    -0.168 A  
HETATM   30  N   UNL     1     -10.973   5.376  72.429  1.00  0.00    -0.244 NA 
HETATM   31  N   UNL     1     -10.569   3.110  72.806  1.00  0.00    -0.126 NA 
HETATM   32  S   UNL     1      -9.167   4.353  70.916  1.00  0.00    -0.150 SA 
HETATM   33  C   UNL     1     -10.347   4.256  72.149  1.00  0.00    -0.123 A  
ENDBRANCH  25  26
BRANCH  25  34
HETATM   34  N   UNL     1     -11.814   8.004  72.660  1.00  0.00    -0.553 NA 
HETATM   35  H   UNL     1     -11.827   8.101  73.675  1.00  0.00     0.000 HD 
BRANCH  34  36
HETATM   36  O   UNL     1     -13.049   8.042  71.998  1.00  0.00    -0.313 OA 
HETATM   37  C   UNL     1     -13.873   9.172  72.121  1.00  0.00    -0.446 C  
ENDBRANCH  34  36
ENDBRANCH  25  34
ENDBRANCH  24  25
ENDBRANCH   7  21
TORSDOF 8
ENDMDL
MODEL       29
REMARK 921   NORMALIZED FREE ENERGY PREDICTED BY IDOCK:   -6.61 KCAL/MOL
REMARK 922        TOTAL FREE ENERGY PREDICTED BY IDOCK:  -10.87 KCAL/MOL
REMARK 923 INTER-LIGAND FREE ENERGY PREDICTED BY IDOCK:   -8.89 KCAL/MOL
REMARK 924 INTRA-LIGAND FREE ENERGY PREDICTED BY IDOCK:   -1.98 KCAL/MOL
REMARK 927      BINDING AFFINITY PREDICTED BY RF-SCORE:    0.00 PKD
ROOT
HETATM    1  C   UNL     1     -10.762  16.149  69.666  1.00  0.00    -0.325 C  
HETATM    2  S   UNL     1     -12.245  15.206  69.441  1.00  0.00    -0.147 SA 
HETATM    3  C   UNL     1     -11.654  13.680  68.665  1.00  0.00    -0.329 C  
HETATM    4  C   UNL     1     -10.165  13.460  68.540  1.00  0.00    -0.224 C  
HETATM    5  O   UNL     1      -7.833  17.203  68.808  1.00  0.00    -0.255 OA 
HETATM    6  CA  UNL     1      -9.214  14.404  68.749  1.00  0.00    -0.144 C  
HETATM    7  CA  UNL     1     -10.359  17.596  69.104  1.00  0.00    -0.202 C  
HETATM    8  N   UNL     1      -9.564  15.684  69.034  1.00  0.00    -0.225 N  
HETATM    9  C   UNL     1      -7.764  14.038  68.584  1.00  0.00    -0.135 C  
HETATM   10  OXT UNL     1      -7.347  12.912  68.816  1.00  0.00    -0.109 OA 
HETATM   11  C   UNL     1      -8.963  16.895  69.045  1.00  0.00    -0.167 C  
HETATM   12  O   UNL     1      -6.915  14.994  68.178  1.00  0.00    -0.104 OA 
ENDROOT
BRANCH   4  13
HETATM   13  C   UNL     1      -9.866  12.066  67.969  1.00  0.00    -0.199 C  
BRANCH  13  14
HETATM   14  S   UNL     1     -11.285  10.986  68.309  1.00  0.00    -0.301 SA 
BRANCH  14  15
HETATM   15  C   UNL     1     -10.764  10.188  69.743  1.00  0.00    -0.279 A  
HETATM   16  N   UNL     1      -9.680   9.465  69.903  1.00  0.00    -0.198 NA 
HETATM   17  C   UNL     1     -12.749  10.771  71.199  1.00  0.00    -0.431 C  
HETATM   18  N   UNL     1      -9.785   8.917  71.165  1.00  0.00    -0.248 NA 
HETATM   19  N   UNL     1     -11.508  10.122  70.882  1.00  0.00    -0.351 NA 
HETATM   20  N   UNL     1     -10.902   9.309  71.767  1.00  0.00    -0.354 NA 
ENDBRANCH  14  15
ENDBRANCH  13  14
ENDBRANCH   4  13
BRANCH   7  21
HETATM   21  N   UNL     1     -10.616  18.352  67.793  1.00  0.00    -0.411 N  
HETATM   22  H   UNL     1     -11.220  19.162  67.929  1.00  0.00     0.000 HD 
HETATM   23  O   UNL     1     -10.606  19.053  65.642  1.00  0.00    -0.554 OA 
HETATM   24  C   UNL     1     -10.222  18.202  66.446  1.00  0.00    -0.399 C  
BRANCH  24  25
HETATM   25  C   UNL     1      -9.531  16.958  65.891  1.00  0.00    -0.113 C  
BRANCH  25  26
HETATM   26  C   UNL     1     -10.288  15.736  65.528  1.00  0.00    -0.404 A  
HETATM   27  H2  UNL     1     -10.773  11.956  63.624  1.00  0.00     0.000 HD 
HETATM   28  H1  UNL     1      -9.151  12.181  64.276  1.00  0.00     0.000 HD 
HETATM   29  C   UNL     1     -11.634  15.748  65.172  1.00  0.00     0.068 A  
HETATM   30  N   UNL     1      -9.674  14.511  65.286  1.00  0.00    -0.171 NA 
HETATM   31  N   UNL     1     -10.103  12.523  64.145  1.00  0.00    -0.320 NA 
HETATM   32  S   UNL     1     -12.084  14.277  64.425  1.00  0.00    -0.425 SA 
HETATM   33  C   UNL     1     -10.488  13.704  64.646  1.00  0.00    -0.423 A  
ENDBRANCH  25  26
BRANCH  25  34
HETATM   34  N   UNL     1      -8.245  16.728  65.875  1.00  0.00    -0.411 NA 
HETATM   35  H   UNL     1      -7.938  15.785  66.113  1.00  0.00     0.000 HD 
BRANCH  34  36
HETATM   36  O   UNL     1      -7.251  17.664  65.561  1.00  0.00    -0.406 OA 
HETATM   37  C   UNL     1      -5.971  17.538  66.124  1.00  0.00    -0.194 C  
ENDBRANCH  34  36
ENDBRANCH  25  34
ENDBRANCH  24  25
ENDBRANCH   7  21
TORSDOF 8
ENDMDL
MODEL       30
REMARK 921   NORMALIZED FREE ENERGY PREDICTED BY IDOCK:   -6.61 KCAL/MOL
REMARK 922        TOTAL FREE ENERGY PREDICTED BY IDOCK:  -10.86 KCAL/MOL
REMARK 923 INTER-LIGAND FREE ENERGY PREDICTED BY IDOCK:   -9.86 KCAL/MOL
REMARK 924 INTRA-LIGAND FREE ENERGY PREDICTED BY IDOCK:   -1.00 KCAL/MOL
REMARK 927      BINDING AFFINITY PREDICTED BY RF-SCORE:    0.00 PKD
ROOT
HETATM    1  C   UNL     1     -11.579  14.213  67.595  1.00  0.00    -0.365 C  
HETATM    2  S   UNL     1     -10.376  14.459  68.872  1.00  0.00    -0.204 SA 
HETATM    3  C   UNL     1      -9.374  15.829  68.241  1.00  0.00    -0.193 C  
HETATM    4  C   UNL     1      -9.818  16.531  66.979  1.00  0.00    -0.259 C  
HETATM    5  O   UNL     1     -12.573  14.100  64.525  1.00  0.00    -0.643 OA 
HETATM    6  CA  UNL     1     -10.781  16.087  66.135  1.00  0.00    -0.244 C  
HETATM    7  CA  UNL     1     -11.896  12.916  66.707  1.00  0.00    -0.385 C  
HETATM    8  N   UNL     1     -11.389  14.893  66.349  1.00  0.00    -0.335 N  
HETATM    9  C   UNL     1     -11.116  16.893  64.910  1.00  0.00     0.036 C  
HETATM   10  OXT UNL     1     -11.015  18.113  64.886  1.00  0.00    -0.718 OA 
HETATM   11  C   UNL     1     -12.154  14.031  65.642  1.00  0.00    -0.417 C  
HETATM   12  O   UNL     1     -11.546  16.238  63.821  1.00  0.00    -0.952 OA 
ENDROOT
BRANCH   4  13
HETATM   13  C   UNL     1      -8.910  17.732  66.676  1.00  0.00    -0.264 C  
BRANCH  13  14
HETATM   14  S   UNL     1      -9.188  19.002  67.943  1.00  0.00    -0.310 SA 
BRANCH  14  15
HETATM   15  C   UNL     1      -7.665  19.804  67.955  1.00  0.00    -0.304 A  
HETATM   16  N   UNL     1      -7.337  20.901  67.315  1.00  0.00    -0.355 NA 
HETATM   17  C   UNL     1      -6.418  18.148  69.407  1.00  0.00    -0.233 C  
HETATM   18  N   UNL     1      -5.981  21.054  67.513  1.00  0.00    -0.280 NA 
HETATM   19  N   UNL     1      -6.554  19.303  68.564  1.00  0.00    -0.248 NA 
HETATM   20  N   UNL     1      -5.494  20.079  68.271  1.00  0.00    -0.203 NA 
ENDBRANCH  14  15
ENDBRANCH  13  14
ENDBRANCH   4  13
BRANCH   7  21
HETATM   21  N   UNL     1     -11.044  11.798  66.091  1.00  0.00    -0.310 N  
HETATM   22  H   UNL     1     -10.922  11.918  65.086  1.00  0.00     0.000 HD 
HETATM   23  O   UNL     1      -9.743   9.977  65.762  1.00  0.00    -0.218 OA 
HETATM   24  C   UNL     1     -10.387  10.645  66.572  1.00  0.00    -0.241 C  
BRANCH  24  25
HETATM   25  C   UNL     1     -10.591  10.066  67.971  1.00  0.00    -0.235 C  
BRANCH  25  26
HETATM   26  C   UNL     1      -9.505   9.361  68.694  1.00  0.00    -0.146 A  
HETATM   27  H2  UNL     1      -7.404   5.898  70.014  1.00  0.00     0.000 HD 
HETATM   28  H1  UNL     1      -8.028   5.725  68.374  1.00  0.00     0.000 HD 
HETATM   29  C   UNL     1      -9.045   9.748  69.949  1.00  0.00    -0.229 A  
HETATM   30  N   UNL     1      -9.010   8.124  68.292  1.00  0.00    -0.136 NA 
HETATM   31  N   UNL     1      -7.890   6.295  69.209  1.00  0.00    -0.103 NA 
HETATM   32  S   UNL     1      -8.106   8.512  70.666  1.00  0.00    -0.130 SA 
HETATM   33  C   UNL     1      -8.336   7.557  69.266  1.00  0.00    -0.132 A  
ENDBRANCH  25  26
BRANCH  25  34
HETATM   34  N   UNL     1     -11.732   9.918  68.589  1.00  0.00    -0.421 NA 
HETATM   35  H   UNL     1     -12.147   8.986  68.583  1.00  0.00     0.000 HD 
BRANCH  34  36
HETATM   36  O   UNL     1     -12.436  10.927  69.260  1.00  0.00    -0.392 OA 
HETATM   37  C   UNL     1     -12.850  10.726  70.586  1.00  0.00    -0.293 C  
ENDBRANCH  34  36
ENDBRANCH  25  34
ENDBRANCH  24  25
ENDBRANCH   7  21
TORSDOF 8
ENDMDL
MODEL       31
REMARK 921   NORMALIZED FREE ENERGY PREDICTED BY IDOCK:   -6.59 KCAL/MOL
REMARK 922        TOTAL FREE ENERGY PREDICTED BY IDOCK:  -10.83 KCAL/MOL
REMARK 923 INTER-LIGAND FREE ENERGY PREDICTED BY IDOCK:   -9.47 KCAL/MOL
REMARK 924 INTRA-LIGAND FREE ENERGY PREDICTED BY IDOCK:   -1.36 KCAL/MOL
REMARK 927      BINDING AFFINITY PREDICTED BY RF-SCORE:    0.00 PKD
ROOT
HETATM    1  C   UNL     1     -11.911  12.103  68.725  1.00  0.00    -0.239 C  
HETATM    2  S   UNL     1     -12.052  13.720  69.434  1.00  0.00    -0.290 SA 
HETATM    3  C   UNL     1     -11.524  14.812  68.090  1.00  0.00    -0.323 C  
HETATM    4  C   UNL     1     -11.268  14.213  66.727  1.00  0.00    -0.330 C  
HETATM    5  O   UNL     1     -10.521   9.860  66.864  1.00  0.00    -0.238 OA 
HETATM    6  CA  UNL     1     -11.174  12.887  66.461  1.00  0.00    -0.302 C  
HETATM    7  CA  UNL     1     -11.035  10.842  69.187  1.00  0.00    -0.244 C  
HETATM    8  N   UNL     1     -11.244  11.975  67.464  1.00  0.00    -0.274 N  
HETATM    9  C   UNL     1     -10.912  12.435  65.050  1.00  0.00    -0.298 C  
HETATM   10  OXT UNL     1     -11.307  13.068  64.080  1.00  0.00    -0.358 OA 
HETATM   11  C   UNL     1     -10.947  10.667  67.635  1.00  0.00    -0.310 C  
HETATM   12  O   UNL     1     -10.229  11.294  64.869  1.00  0.00    -0.251 OA 
ENDROOT
BRANCH   4  13
HETATM   13  C   UNL     1     -10.948  15.310  65.701  1.00  0.00    -0.344 C  
BRANCH  13  14
HETATM   14  S   UNL     1      -9.479  16.216  66.262  1.00  0.00    -0.341 SA 
BRANCH  14  15
HETATM   15  C   UNL     1     -10.113  17.807  66.439  1.00  0.00    -0.357 A  
HETATM   16  N   UNL     1     -10.504  18.619  65.486  1.00  0.00    -0.539 NA 
HETATM   17  C   UNL     1      -9.884  17.988  68.953  1.00  0.00    -0.314 C  
HETATM   18  N   UNL     1     -10.778  19.818  66.111  1.00  0.00    -0.442 NA 
HETATM   19  N   UNL     1     -10.173  18.466  67.630  1.00  0.00    -0.360 NA 
HETATM   20  N   UNL     1     -10.573  19.734  67.421  1.00  0.00    -0.438 NA 
ENDBRANCH  14  15
ENDBRANCH  13  14
ENDBRANCH   4  13
BRANCH   7  21
HETATM   21  N   UNL     1      -9.642  10.668  69.807  1.00  0.00    -0.407 N  
HETATM   22  H   UNL     1      -9.207  11.563  70.031  1.00  0.00     0.000 HD 
HETATM   23  O   UNL     1      -7.733   9.824  70.680  1.00  0.00    -0.270 OA 
HETATM   24  C   UNL     1      -8.814   9.576  70.144  1.00  0.00    -0.235 C  
BRANCH  24  25
HETATM   25  C   UNL     1      -9.078   8.136  69.707  1.00  0.00    -0.148 C  
BRANCH  25  26
HETATM   26  C   UNL     1     -10.094   7.287  70.375  1.00  0.00    -0.192 A  
HETATM   27  H2  UNL     1     -13.923   6.521  72.080  1.00  0.00     0.000 HD 
HETATM   28  H1  UNL     1     -14.012   7.557  70.657  1.00  0.00     0.000 HD 
HETATM   29  C   UNL     1      -9.793   6.405  71.408  1.00  0.00    -0.176 A  
HETATM   30  N   UNL     1     -11.462   7.461  70.192  1.00  0.00    -0.187 NA 
HETATM   31  N   UNL     1     -13.460   6.991  71.301  1.00  0.00    -0.270 NA 
HETATM   32  S   UNL     1     -11.212   5.903  72.220  1.00  0.00    -0.291 SA 
HETATM   33  C   UNL     1     -12.137   6.852  71.140  1.00  0.00    -0.381 A  
ENDBRANCH  25  26
BRANCH  25  34
HETATM   34  N   UNL     1      -8.342   7.426  68.895  1.00  0.00    -0.128 NA 
HETATM   35  H   UNL     1      -7.905   6.587  69.276  1.00  0.00     0.000 HD 
BRANCH  34  36
HETATM   36  O   UNL     1      -8.100   7.717  67.545  1.00  0.00    -0.117 OA 
HETATM   37  C   UNL     1      -6.848   8.219  67.154  1.00  0.00    -0.070 C  
ENDBRANCH  34  36
ENDBRANCH  25  34
ENDBRANCH  24  25
ENDBRANCH   7  21
TORSDOF 8
ENDMDL
MODEL       32
REMARK 921   NORMALIZED FREE ENERGY PREDICTED BY IDOCK:   -6.59 KCAL/MOL
REMARK 922        TOTAL FREE ENERGY PREDICTED BY IDOCK:  -10.83 KCAL/MOL
REMARK 923 INTER-LIGAND FREE ENERGY PREDICTED BY IDOCK:   -9.91 KCAL/MOL
REMARK 924 INTRA-LIGAND FREE ENERGY PREDICTED BY IDOCK:   -0.91 KCAL/MOL
REMARK 927      BINDING AFFINITY PREDICTED BY RF-SCORE:    0.00 PKD
ROOT
HETATM    1  C   UNL     1     -10.252  18.019  67.264  1.00  0.00    -0.364 C  
HETATM    2  S   UNL     1     -10.249  19.787  67.373  1.00  0.00    -0.456 SA 
HETATM    3  C   UNL     1      -8.487  20.201  67.383  1.00  0.00    -0.339 C  
HETATM    4  C   UNL     1      -7.482  19.099  67.143  1.00  0.00    -0.236 C  
HETATM    5  O   UNL     1      -9.116  15.068  67.918  1.00  0.00    -0.176 OA 
HETATM    6  CA  UNL     1      -7.761  17.772  67.144  1.00  0.00    -0.205 C  
HETATM    7  CA  UNL     1     -10.870  16.921  68.256  1.00  0.00    -0.357 C  
HETATM    8  N   UNL     1      -9.009  17.330  67.442  1.00  0.00    -0.220 N  
HETATM    9  C   UNL     1      -6.653  16.786  66.892  1.00  0.00    -0.213 C  
HETATM   10  OXT UNL     1      -5.698  17.050  66.174  1.00  0.00    -0.302 OA 
HETATM   11  C   UNL     1      -9.587  16.158  67.788  1.00  0.00    -0.223 C  
HETATM   12  O   UNL     1      -6.737  15.580  67.473  1.00  0.00    -0.166 OA 
ENDROOT
BRANCH   4  13
HETATM   13  C   UNL     1      -6.057  19.667  67.070  1.00  0.00    -0.176 C  
BRANCH  13  14
HETATM   14  S   UNL     1      -5.719  20.578  68.603  1.00  0.00    -0.335 SA 
BRANCH  14  15
HETATM   15  C   UNL     1      -5.402  19.288  69.698  1.00  0.00    -0.199 A  
HETATM   16  N   UNL     1      -5.232  18.020  69.407  1.00  0.00    -0.181 NA 
HETATM   17  C   UNL     1      -5.524  20.624  71.844  1.00  0.00    -0.089 C  
HETATM   18  N   UNL     1      -5.166  17.368  70.621  1.00  0.00    -0.258 NA 
HETATM   19  N   UNL     1      -5.408  19.431  71.053  1.00  0.00    -0.243 NA 
HETATM   20  N   UNL     1      -5.278  18.222  71.631  1.00  0.00    -0.501 NA 
ENDBRANCH  14  15
ENDBRANCH  13  14
ENDBRANCH   4  13
BRANCH   7  21
HETATM   21  N   UNL     1     -11.015  16.806  69.780  1.00  0.00    -0.392 N  
HETATM   22  H   UNL     1     -10.425  17.475  70.273  1.00  0.00     0.000 HD 
HETATM   23  O   UNL     1     -11.646  16.224  71.873  1.00  0.00    -0.456 OA 
HETATM   24  C   UNL     1     -11.762  16.002  70.666  1.00  0.00    -0.350 C  
BRANCH  24  25
HETATM   25  C   UNL     1     -12.537  14.755  70.243  1.00  0.00    -0.315 C  
BRANCH  25  26
HETATM   26  C   UNL     1     -12.021  13.823  69.212  1.00  0.00    -0.352 A  
HETATM   27  H2  UNL     1     -12.168  11.793  65.469  1.00  0.00     0.000 HD 
HETATM   28  H1  UNL     1     -12.763  13.448  65.363  1.00  0.00     0.000 HD 
HETATM   29  C   UNL     1     -11.440  12.595  69.512  1.00  0.00    -0.225 A  
HETATM   30  N   UNL     1     -12.277  13.984  67.853  1.00  0.00    -0.253 NA 
HETATM   31  N   UNL     1     -12.348  12.695  65.911  1.00  0.00    -0.595 NA 
HETATM   32  S   UNL     1     -11.337  11.608  68.120  1.00  0.00    -0.317 SA 
HETATM   33  C   UNL     1     -12.034  12.871  67.201  1.00  0.00    -0.310 A  
ENDBRANCH  25  26
BRANCH  25  34
HETATM   34  N   UNL     1     -13.778  14.477  70.540  1.00  0.00    -0.327 NA 
HETATM   35  H   UNL     1     -14.480  14.654  69.821  1.00  0.00     0.000 HD 
BRANCH  34  36
HETATM   36  O   UNL     1     -14.230  13.956  71.760  1.00  0.00    -0.381 OA 
HETATM   37  C   UNL     1     -13.725  12.731  72.226  1.00  0.00    -0.400 C  
ENDBRANCH  34  36
ENDBRANCH  25  34
ENDBRANCH  24  25
ENDBRANCH   7  21
TORSDOF 8
ENDMDL
MODEL       33
REMARK 921   NORMALIZED FREE ENERGY PREDICTED BY IDOCK:   -6.57 KCAL/MOL
REMARK 922        TOTAL FREE ENERGY PREDICTED BY IDOCK:  -10.80 KCAL/MOL
REMARK 923 INTER-LIGAND FREE ENERGY PREDICTED BY IDOCK:   -9.41 KCAL/MOL
REMARK 924 INTRA-LIGAND FREE ENERGY PREDICTED BY IDOCK:   -1.39 KCAL/MOL
REMARK 927      BINDING AFFINITY PREDICTED BY RF-SCORE:    0.00 PKD
ROOT
HETATM    1  C   UNL     1     -10.739  10.242  69.386  1.00  0.00    -0.241 C  
HETATM    2  S   UNL     1      -8.982  10.281  69.155  1.00  0.00    -0.178 SA 
HETATM    3  C   UNL     1      -8.351   9.414  70.614  1.00  0.00    -0.175 C  
HETATM    4  C   UNL     1      -9.338   8.746  71.544  1.00  0.00    -0.337 C  
HETATM    5  O   UNL     1     -13.438  10.347  71.155  1.00  0.00    -0.287 OA 
HETATM    6  CA  UNL     1     -10.681   8.925  71.518  1.00  0.00    -0.328 C  
HETATM    7  CA  UNL     1     -11.794  11.443  69.505  1.00  0.00    -0.357 C  
HETATM    8  N   UNL     1     -11.243   9.810  70.654  1.00  0.00    -0.306 N  
HETATM    9  C   UNL     1     -11.541   8.194  72.511  1.00  0.00    -0.404 C  
HETATM   10  OXT UNL     1     -11.237   7.092  72.949  1.00  0.00    -0.291 OA 
HETATM   11  C   UNL     1     -12.435  10.431  70.510  1.00  0.00    -0.317 C  
HETATM   12  O   UNL     1     -12.680   8.779  72.912  1.00  0.00    -0.306 OA 
ENDROOT
BRANCH   4  13
HETATM   13  C   UNL     1      -8.606   7.968  72.647  1.00  0.00    -0.179 C  
BRANCH  13  14
HETATM   14  S   UNL     1      -7.458   6.799  71.865  1.00  0.00    -0.094 SA 
BRANCH  14  15
HETATM   15  C   UNL     1      -8.550   5.631  71.227  1.00  0.00    -0.128 A  
HETATM   16  N   UNL     1      -9.059   5.594  70.018  1.00  0.00    -0.135 NA 
HETATM   17  C   UNL     1      -8.857   4.264  73.334  1.00  0.00    -0.094 C  
HETATM   18  N   UNL     1      -9.987   4.574  70.040  1.00  0.00    -0.228 NA 
HETATM   19  N   UNL     1      -9.117   4.643  71.973  1.00  0.00    -0.126 NA 
HETATM   20  N   UNL     1     -10.033   3.991  71.232  1.00  0.00    -0.168 NA 
ENDBRANCH  14  15
ENDBRANCH  13  14
ENDBRANCH   4  13
BRANCH   7  21
HETATM   21  N   UNL     1     -11.765  12.845  70.128  1.00  0.00    -0.530 N  
HETATM   22  H   UNL     1     -11.945  12.822  71.132  1.00  0.00     0.000 HD 
HETATM   23  O   UNL     1     -11.567  15.070  70.483  1.00  0.00    -0.264 OA 
HETATM   24  C   UNL     1     -11.551  14.157  69.656  1.00  0.00    -0.292 C  
BRANCH  24  25
HETATM   25  C   UNL     1     -11.506  14.537  68.177  1.00  0.00    -0.312 C  
BRANCH  25  26
HETATM   26  C   UNL     1     -10.531  15.521  67.649  1.00  0.00    -0.279 A  
HETATM   27  H2  UNL     1      -9.365  18.857  65.268  1.00  0.00     0.000 HD 
HETATM   28  H1  UNL     1     -10.971  19.054  65.966  1.00  0.00     0.000 HD 
HETATM   29  C   UNL     1      -9.232  15.188  67.279  1.00  0.00    -0.198 A  
HETATM   30  N   UNL     1     -10.892  16.808  67.260  1.00  0.00    -0.205 NA 
HETATM   31  N   UNL     1     -10.115  18.509  65.867  1.00  0.00    -0.557 NA 
HETATM   32  S   UNL     1      -8.522  16.431  66.343  1.00  0.00    -0.343 SA 
HETATM   33  C   UNL     1      -9.958  17.345  66.510  1.00  0.00    -0.311 A  
ENDBRANCH  25  26
BRANCH  25  34
HETATM   34  N   UNL     1     -12.404  14.244  67.275  1.00  0.00    -0.592 NA 
HETATM   35  H   UNL     1     -13.345  14.612  67.417  1.00  0.00     0.000 HD 
BRANCH  34  36
HETATM   36  O   UNL     1     -12.188  13.468  66.128  1.00  0.00    -0.419 OA 
HETATM   37  C   UNL     1     -12.324  14.048  64.857  1.00  0.00    -0.427 C  
ENDBRANCH  34  36
ENDBRANCH  25  34
ENDBRANCH  24  25
ENDBRANCH   7  21
TORSDOF 8
ENDMDL
MODEL       34
REMARK 921   NORMALIZED FREE ENERGY PREDICTED BY IDOCK:   -6.56 KCAL/MOL
REMARK 922        TOTAL FREE ENERGY PREDICTED BY IDOCK:  -10.79 KCAL/MOL
REMARK 923 INTER-LIGAND FREE ENERGY PREDICTED BY IDOCK:   -9.53 KCAL/MOL
REMARK 924 INTRA-LIGAND FREE ENERGY PREDICTED BY IDOCK:   -1.26 KCAL/MOL
REMARK 927      BINDING AFFINITY PREDICTED BY RF-SCORE:    0.00 PKD
ROOT
HETATM    1  C   UNL     1     -11.187  10.392  68.420  1.00  0.00    -0.258 C  
HETATM    2  S   UNL     1     -10.072   9.015  68.387  1.00  0.00    -0.197 SA 
HETATM    3  C   UNL     1     -10.227   8.313  70.049  1.00  0.00    -0.202 C  
HETATM    4  C   UNL     1     -11.287   8.866  70.973  1.00  0.00    -0.350 C  
HETATM    5  O   UNL     1     -12.657  12.904  69.817  1.00  0.00     0.011 OA 
HETATM    6  CA  UNL     1     -11.995  10.002  70.761  1.00  0.00    -0.335 C  
HETATM    7  CA  UNL     1     -10.912  11.953  68.182  1.00  0.00    -0.227 C  
HETATM    8  N   UNL     1     -11.734  10.785  69.683  1.00  0.00    -0.298 N  
HETATM    9  C   UNL     1     -13.020  10.431  71.774  1.00  0.00    -0.475 C  
HETATM   10  OXT UNL     1     -13.645   9.625  72.450  1.00  0.00    -0.433 OA 
HETATM   11  C   UNL     1     -12.015  12.047  69.287  1.00  0.00    -0.270 C  
HETATM   12  O   UNL     1     -13.251  11.745  71.921  1.00  0.00    -0.482 OA 
ENDROOT
BRANCH   4  13
HETATM   13  C   UNL     1     -11.339   8.065  72.283  1.00  0.00    -0.353 C  
BRANCH  13  14
HETATM   14  S   UNL     1     -12.057   6.434  71.936  1.00  0.00    -0.229 SA 
BRANCH  14  15
HETATM   15  C   UNL     1     -10.857   5.391  72.594  1.00  0.00    -0.256 A  
HETATM   16  N   UNL     1     -10.572   5.204  73.861  1.00  0.00    -0.276 NA 
HETATM   17  C   UNL     1      -9.881   4.571  70.408  1.00  0.00    -0.232 C  
HETATM   18  N   UNL     1      -9.447   4.407  73.874  1.00  0.00    -0.115 NA 
HETATM   19  N   UNL     1      -9.957   4.704  71.836  1.00  0.00    -0.182 NA 
HETATM   20  N   UNL     1      -9.062   4.101  72.640  1.00  0.00    -0.109 NA 
ENDBRANCH  14  15
ENDBRANCH  13  14
ENDBRANCH   4  13
BRANCH   7  21
HETATM   21  N   UNL     1      -9.758  12.907  68.520  1.00  0.00    -0.370 N  
HETATM   22  H   UNL     1      -8.999  12.434  69.009  1.00  0.00     0.000 HD 
HETATM   23  O   UNL     1      -8.400  14.707  68.708  1.00  0.00    -0.159 OA 
HETATM   24  C   UNL     1      -9.488  14.278  68.319  1.00  0.00    -0.209 C  
BRANCH  24  25
HETATM   25  C   UNL     1     -10.526  15.293  67.845  1.00  0.00    -0.253 C  
BRANCH  25  26
HETATM   26  C   UNL     1     -10.195  16.728  67.668  1.00  0.00    -0.289 A  
HETATM   27  H2  UNL     1     -10.347  20.851  68.729  1.00  0.00     0.000 HD 
HETATM   28  H1  UNL     1     -10.269  19.794  70.137  1.00  0.00     0.000 HD 
HETATM   29  C   UNL     1     -10.170  17.360  66.428  1.00  0.00    -0.338 A  
HETATM   30  N   UNL     1     -10.109  17.620  68.733  1.00  0.00    -0.366 NA 
HETATM   31  N   UNL     1     -10.268  19.914  69.125  1.00  0.00    -0.322 NA 
HETATM   32  S   UNL     1     -10.167  19.060  66.606  1.00  0.00    -0.440 SA 
HETATM   33  C   UNL     1     -10.166  18.860  68.304  1.00  0.00    -0.380 A  
ENDBRANCH  25  26
BRANCH  25  34
HETATM   34  N   UNL     1     -11.814  15.100  67.756  1.00  0.00    -0.418 NA 
HETATM   35  H   UNL     1     -12.391  15.445  68.524  1.00  0.00     0.000 HD 
BRANCH  34  36
HETATM   36  O   UNL     1     -12.474  14.459  66.699  1.00  0.00    -0.351 OA 
HETATM   37  C   UNL     1     -11.857  14.374  65.440  1.00  0.00    -0.366 C  
ENDBRANCH  34  36
ENDBRANCH  25  34
ENDBRANCH  24  25
ENDBRANCH   7  21
TORSDOF 8
ENDMDL
MODEL       35
REMARK 921   NORMALIZED FREE ENERGY PREDICTED BY IDOCK:   -6.55 KCAL/MOL
REMARK 922        TOTAL FREE ENERGY PREDICTED BY IDOCK:  -10.77 KCAL/MOL
REMARK 923 INTER-LIGAND FREE ENERGY PREDICTED BY IDOCK:   -9.69 KCAL/MOL
REMARK 924 INTRA-LIGAND FREE ENERGY PREDICTED BY IDOCK:   -1.08 KCAL/MOL
REMARK 927      BINDING AFFINITY PREDICTED BY RF-SCORE:    0.00 PKD
ROOT
HETATM    1  C   UNL     1     -12.031  13.328  68.411  1.00  0.00    -0.301 C  
HETATM    2  S   UNL     1     -12.069  14.494  69.745  1.00  0.00    -0.324 SA 
HETATM    3  C   UNL     1     -11.324  15.978  69.023  1.00  0.00    -0.363 C  
HETATM    4  C   UNL     1     -11.016  15.988  67.544  1.00  0.00    -0.261 C  
HETATM    5  O   UNL     1     -10.721  11.935  65.810  1.00  0.00    -0.266 OA 
HETATM    6  CA  UNL     1     -11.033  14.901  66.734  1.00  0.00    -0.326 C  
HETATM    7  CA  UNL     1     -11.326  11.892  68.311  1.00  0.00    -0.277 C  
HETATM    8  N   UNL     1     -11.276  13.666  67.242  1.00  0.00    -0.300 N  
HETATM    9  C   UNL     1     -10.700  15.064  65.276  1.00  0.00    -0.389 C  
HETATM   10  OXT UNL     1     -10.947  16.093  64.663  1.00  0.00    -0.642 OA 
HETATM   11  C   UNL     1     -11.127  12.384  66.841  1.00  0.00    -0.287 C  
HETATM   12  O   UNL     1     -10.121  14.032  64.643  1.00  0.00    -0.358 OA 
ENDROOT
BRANCH   4  13
HETATM   13  C   UNL     1     -10.504  17.368  67.104  1.00  0.00    -0.305 C  
BRANCH  13  14
HETATM   14  S   UNL     1      -9.900  18.255  68.568  1.00  0.00    -0.393 SA 
BRANCH  14  15
HETATM   15  C   UNL     1      -8.251  17.763  68.604  1.00  0.00    -0.271 A  
HETATM   16  N   UNL     1      -7.781  16.574  68.899  1.00  0.00    -0.226 NA 
HETATM   17  C   UNL     1      -7.214  20.007  68.067  1.00  0.00    -0.293 C  
HETATM   18  N   UNL     1      -6.410  16.719  68.943  1.00  0.00    -0.162 NA 
HETATM   19  N   UNL     1      -7.205  18.619  68.434  1.00  0.00    -0.270 NA 
HETATM   20  N   UNL     1      -6.050  17.967  68.665  1.00  0.00    -0.190 NA 
ENDBRANCH  14  15
ENDBRANCH  13  14
ENDBRANCH   4  13
BRANCH   7  21
HETATM   21  N   UNL     1     -10.014  11.297  68.841  1.00  0.00    -0.321 N  
HETATM   22  H   UNL     1      -9.219  11.913  68.676  1.00  0.00     0.000 HD 
HETATM   23  O   UNL     1      -8.453   9.982  69.816  1.00  0.00    -0.178 OA 
HETATM   24  C   UNL     1      -9.637  10.107  69.499  1.00  0.00    -0.221 C  
BRANCH  24  25
HETATM   25  C   UNL     1     -10.549   8.892  69.659  1.00  0.00    -0.226 C  
BRANCH  25  26
HETATM   26  C   UNL     1     -11.575   8.816  70.726  1.00  0.00    -0.251 A  
HETATM   27  H2  UNL     1     -15.183   7.373  72.475  1.00  0.00     0.000 HD 
HETATM   28  H1  UNL     1     -14.310   6.120  71.595  1.00  0.00     0.000 HD 
HETATM   29  C   UNL     1     -12.040   9.929  71.421  1.00  0.00    -0.413 A  
HETATM   30  N   UNL     1     -12.329   7.672  70.970  1.00  0.00    -0.255 NA 
HETATM   31  N   UNL     1     -14.366   7.079  71.937  1.00  0.00    -0.333 NA 
HETATM   32  S   UNL     1     -13.482   9.567  72.266  1.00  0.00    -0.376 SA 
HETATM   33  C   UNL     1     -13.387   7.959  71.693  1.00  0.00    -0.337 A  
ENDBRANCH  25  26
BRANCH  25  34
HETATM   34  N   UNL     1     -10.411   7.737  69.066  1.00  0.00    -0.209 NA 
HETATM   35  H   UNL     1     -10.978   7.568  68.235  1.00  0.00     0.000 HD 
BRANCH  34  36
HETATM   36  O   UNL     1      -9.551   6.707  69.472  1.00  0.00    -0.147 OA 
HETATM   37  C   UNL     1     -10.023   5.386  69.529  1.00  0.00    -0.219 C  
ENDBRANCH  34  36
ENDBRANCH  25  34
ENDBRANCH  24  25
ENDBRANCH   7  21
TORSDOF 8
ENDMDL
MODEL       36
REMARK 921   NORMALIZED FREE ENERGY PREDICTED BY IDOCK:   -6.54 KCAL/MOL
REMARK 922        TOTAL FREE ENERGY PREDICTED BY IDOCK:  -10.76 KCAL/MOL
REMARK 923 INTER-LIGAND FREE ENERGY PREDICTED BY IDOCK:   -8.95 KCAL/MOL
REMARK 924 INTRA-LIGAND FREE ENERGY PREDICTED BY IDOCK:   -1.81 KCAL/MOL
REMARK 927      BINDING AFFINITY PREDICTED BY RF-SCORE:    0.00 PKD
ROOT
HETATM    1  C   UNL     1     -10.986  10.287  69.262  1.00  0.00    -0.241 C  
HETATM    2  S   UNL     1      -9.247  10.418  68.952  1.00  0.00    -0.184 SA 
HETATM    3  C   UNL     1      -8.504   9.624  70.400  1.00  0.00    -0.146 C  
HETATM    4  C   UNL     1      -9.409   8.926  71.387  1.00  0.00    -0.338 C  
HETATM    5  O   UNL     1     -13.607  10.285  71.148  1.00  0.00    -0.245 OA 
HETATM    6  CA  UNL     1     -10.761   9.029  71.418  1.00  0.00    -0.331 C  
HETATM    7  CA  UNL     1     -12.103  11.429  69.401  1.00  0.00    -0.291 C  
HETATM    8  N   UNL     1     -11.409   9.859  70.561  1.00  0.00    -0.302 N  
HETATM    9  C   UNL     1     -11.533   8.275  72.466  1.00  0.00    -0.384 C  
HETATM   10  OXT UNL     1     -11.147   7.204  72.914  1.00  0.00    -0.292 OA 
HETATM   11  C   UNL     1     -12.639  10.409  70.457  1.00  0.00    -0.302 C  
HETATM   12  O   UNL     1     -12.685   8.806  72.904  1.00  0.00    -0.306 OA 
ENDROOT
BRANCH   4  13
HETATM   13  C   UNL     1      -8.586   8.218  72.474  1.00  0.00    -0.208 C  
BRANCH  13  14
HETATM   14  S   UNL     1      -7.417   7.087  71.668  1.00  0.00    -0.088 SA 
BRANCH  14  15
HETATM   15  C   UNL     1      -8.478   5.855  71.101  1.00  0.00    -0.124 A  
HETATM   16  N   UNL     1      -9.051   5.777  69.922  1.00  0.00    -0.142 NA 
HETATM   17  C   UNL     1      -8.593   4.495  73.232  1.00  0.00    -0.101 C  
HETATM   18  N   UNL     1      -9.919   4.709  70.004  1.00  0.00    -0.231 NA 
HETATM   19  N   UNL     1      -8.948   4.845  71.885  1.00  0.00    -0.134 NA 
HETATM   20  N   UNL     1      -9.866   4.137  71.201  1.00  0.00    -0.185 NA 
ENDBRANCH  14  15
ENDBRANCH  13  14
ENDBRANCH   4  13
BRANCH   7  21
HETATM   21  N   UNL     1     -12.126  12.846  69.991  1.00  0.00    -0.317 N  
HETATM   22  H   UNL     1     -12.856  12.956  70.695  1.00  0.00     0.000 HD 
HETATM   23  O   UNL     1     -11.675  15.003  70.504  1.00  0.00    -0.261 OA 
HETATM   24  C   UNL     1     -11.387  14.033  69.800  1.00  0.00    -0.179 C  
BRANCH  24  25
HETATM   25  C   UNL     1     -10.406  14.253  68.651  1.00  0.00    -0.246 C  
BRANCH  25  26
HETATM   26  C   UNL     1     -10.829  14.174  67.232  1.00  0.00    -0.285 A  
HETATM   27  H2  UNL     1     -13.172  12.653  64.015  1.00  0.00     0.000 HD 
HETATM   28  H1  UNL     1     -14.095  12.807  65.508  1.00  0.00     0.000 HD 
HETATM   29  C   UNL     1      -9.938  14.216  66.164  1.00  0.00    -0.314 A  
HETATM   30  N   UNL     1     -12.120  13.822  66.848  1.00  0.00    -0.421 NA 
HETATM   31  N   UNL     1     -13.224  12.937  64.994  1.00  0.00    -0.689 NA 
HETATM   32  S   UNL     1     -10.687  13.693  64.719  1.00  0.00    -0.424 SA 
HETATM   33  C   UNL     1     -12.147  13.475  65.581  1.00  0.00    -0.430 A  
ENDBRANCH  25  26
BRANCH  25  34
HETATM   34  N   UNL     1      -9.104  14.310  68.743  1.00  0.00    -0.327 NA 
HETATM   35  H   UNL     1      -8.573  13.557  68.305  1.00  0.00     0.000 HD 
BRANCH  34  36
HETATM   36  O   UNL     1      -8.373  15.314  69.392  1.00  0.00    -0.232 OA 
HETATM   37  C   UNL     1      -8.169  16.549  68.757  1.00  0.00    -0.248 C  
ENDBRANCH  34  36
ENDBRANCH  25  34
ENDBRANCH  24  25
ENDBRANCH   7  21
TORSDOF 8
ENDMDL
MODEL       37
REMARK 921   NORMALIZED FREE ENERGY PREDICTED BY IDOCK:   -6.53 KCAL/MOL
REMARK 922        TOTAL FREE ENERGY PREDICTED BY IDOCK:  -10.75 KCAL/MOL
REMARK 923 INTER-LIGAND FREE ENERGY PREDICTED BY IDOCK:   -9.22 KCAL/MOL
REMARK 924 INTRA-LIGAND FREE ENERGY PREDICTED BY IDOCK:   -1.52 KCAL/MOL
REMARK 927      BINDING AFFINITY PREDICTED BY RF-SCORE:    0.00 PKD
ROOT
HETATM    1  C   UNL     1      -7.405  14.756  68.999  1.00  0.00    -0.139 C  
HETATM    2  S   UNL     1      -8.894  15.663  69.317  1.00  0.00    -0.260 SA 
HETATM    3  C   UNL     1     -10.165  14.683  68.480  1.00  0.00    -0.240 C  
HETATM    4  C   UNL     1      -9.781  13.344  67.894  1.00  0.00    -0.226 C  
HETATM    5  O   UNL     1      -5.437  12.950  67.185  1.00  0.00    -0.345 OA 
HETATM    6  CA  UNL     1      -8.511  12.897  67.732  1.00  0.00    -0.185 C  
HETATM    7  CA  UNL     1      -6.057  15.206  68.257  1.00  0.00    -0.118 C  
HETATM    8  N   UNL     1      -7.455  13.692  68.042  1.00  0.00    -0.116 N  
HETATM    9  C   UNL     1      -8.280  11.539  67.130  1.00  0.00    -0.161 C  
HETATM   10  OXT UNL     1      -9.072  10.618  67.278  1.00  0.00    -0.143 OA 
HETATM   11  C   UNL     1      -6.127  13.715  67.790  1.00  0.00    -0.136 C  
HETATM   12  O   UNL     1      -7.158  11.346  66.418  1.00  0.00    -0.101 OA 
ENDROOT
BRANCH   4  13
HETATM   13  C   UNL     1     -11.014  12.619  67.337  1.00  0.00    -0.254 C  
BRANCH  13  14
HETATM   14  S   UNL     1     -12.284  13.855  66.943  1.00  0.00    -0.300 SA 
BRANCH  14  15
HETATM   15  C   UNL     1     -12.542  13.550  65.269  1.00  0.00    -0.468 A  
HETATM   16  N   UNL     1     -12.907  12.419  64.712  1.00  0.00    -0.761 NA 
HETATM   17  C   UNL     1     -11.879  15.832  64.400  1.00  0.00    -0.148 C  
HETATM   18  N   UNL     1     -12.826  12.633  63.352  1.00  0.00    -0.659 NA 
HETATM   19  N   UNL     1     -12.274  14.455  64.287  1.00  0.00    -0.593 NA 
HETATM   20  N   UNL     1     -12.435  13.874  63.084  1.00  0.00    -0.640 NA 
ENDBRANCH  14  15
ENDBRANCH  13  14
ENDBRANCH   4  13
BRANCH   7  21
HETATM   21  N   UNL     1      -5.737  16.109  67.058  1.00  0.00     0.014 N  
HETATM   22  H   UNL     1      -5.112  15.656  66.392  1.00  0.00     0.000 HD 
HETATM   23  O   UNL     1      -5.660  17.811  65.569  1.00  0.00    -0.142 OA 
HETATM   24  C   UNL     1      -6.095  17.412  66.651  1.00  0.00    -0.204 C  
BRANCH  24  25
HETATM   25  C   UNL     1      -6.808  18.423  67.547  1.00  0.00    -0.202 C  
BRANCH  25  26
HETATM   26  C   UNL     1      -6.205  18.912  68.811  1.00  0.00    -0.231 A  
HETATM   27  H2  UNL     1      -5.083  18.561  72.906  1.00  0.00     0.000 HD 
HETATM   28  H1  UNL     1      -4.887  17.050  72.020  1.00  0.00     0.000 HD 
HETATM   29  C   UNL     1      -6.360  20.214  69.279  1.00  0.00    -0.320 A  
HETATM   30  N   UNL     1      -5.628  18.063  69.751  1.00  0.00    -0.219 NA 
HETATM   31  N   UNL     1      -5.127  18.041  72.029  1.00  0.00    -0.488 NA 
HETATM   32  S   UNL     1      -5.906  20.333  70.923  1.00  0.00    -0.241 SA 
HETATM   33  C   UNL     1      -5.501  18.672  70.908  1.00  0.00    -0.199 A  
ENDBRANCH  25  26
BRANCH  25  34
HETATM   34  N   UNL     1      -8.055  18.797  67.454  1.00  0.00    -0.250 NA 
HETATM   35  H   UNL     1      -8.549  18.995  68.325  1.00  0.00     0.000 HD 
BRANCH  34  36
HETATM   36  O   UNL     1      -8.777  18.949  66.262  1.00  0.00    -0.350 OA 
HETATM   37  C   UNL     1     -10.141  18.619  66.225  1.00  0.00    -0.400 C  
ENDBRANCH  34  36
ENDBRANCH  25  34
ENDBRANCH  24  25
ENDBRANCH   7  21
TORSDOF 8
ENDMDL
MODEL       38
REMARK 921   NORMALIZED FREE ENERGY PREDICTED BY IDOCK:   -6.52 KCAL/MOL
REMARK 922        TOTAL FREE ENERGY PREDICTED BY IDOCK:  -10.73 KCAL/MOL
REMARK 923 INTER-LIGAND FREE ENERGY PREDICTED BY IDOCK:   -9.29 KCAL/MOL
REMARK 924 INTRA-LIGAND FREE ENERGY PREDICTED BY IDOCK:   -1.44 KCAL/MOL
REMARK 927      BINDING AFFINITY PREDICTED BY RF-SCORE:    0.00 PKD
ROOT
HETATM    1  C   UNL     1     -11.476  12.447  69.943  1.00  0.00    -0.097 C  
HETATM    2  S   UNL     1     -12.879  12.150  70.984  1.00  0.00    -0.064 SA 
HETATM    3  C   UNL     1     -12.655  10.430  71.505  1.00  0.00    -0.439 C  
HETATM    4  C   UNL     1     -11.372   9.723  71.138  1.00  0.00    -0.459 C  
HETATM    5  O   UNL     1      -9.265  11.611  67.744  1.00  0.00    -0.168 OA 
HETATM    6  CA  UNL     1     -10.453  10.179  70.252  1.00  0.00    -0.224 C  
HETATM    7  CA  UNL     1     -11.404  12.881  68.401  1.00  0.00    -0.294 C  
HETATM    8  N   UNL     1     -10.674  11.325  69.558  1.00  0.00    -0.155 N  
HETATM    9  C   UNL     1      -9.219   9.362  69.983  1.00  0.00    -0.220 C  
HETATM   10  OXT UNL     1      -8.712   8.648  70.838  1.00  0.00    -0.148 OA 
HETATM   11  C   UNL     1     -10.163  11.933  68.464  1.00  0.00    -0.215 C  
HETATM   12  O   UNL     1      -8.665   9.438  68.763  1.00  0.00    -0.128 OA 
ENDROOT
BRANCH   4  13
HETATM   13  C   UNL     1     -11.322   8.323  71.768  1.00  0.00    -0.288 C  
BRANCH  13  14
HETATM   14  S   UNL     1     -12.485   7.248  70.881  1.00  0.00    -0.155 SA 
BRANCH  14  15
HETATM   15  C   UNL     1     -11.411   6.331  69.896  1.00  0.00    -0.389 A  
HETATM   16  N   UNL     1     -11.281   6.388  68.592  1.00  0.00    -0.314 NA 
HETATM   17  C   UNL     1     -10.407   4.901  71.727  1.00  0.00    -0.179 C  
HETATM   18  N   UNL     1     -10.420   5.363  68.261  1.00  0.00    -0.156 NA 
HETATM   19  N   UNL     1     -10.628   5.323  70.372  1.00  0.00    -0.249 NA 
HETATM   20  N   UNL     1     -10.020   4.704  69.342  1.00  0.00    -0.205 NA 
ENDBRANCH  14  15
ENDBRANCH  13  14
ENDBRANCH   4  13
BRANCH   7  21
HETATM   21  N   UNL     1     -12.237  12.562  67.152  1.00  0.00    -0.038 N  
HETATM   22  H   UNL     1     -13.017  11.939  67.360  1.00  0.00     0.000 HD 
HETATM   23  O   UNL     1     -13.080  12.484  65.055  1.00  0.00    -0.765 OA 
HETATM   24  C   UNL     1     -12.190  12.918  65.788  1.00  0.00    -0.439 C  
BRANCH  24  25
HETATM   25  C   UNL     1     -11.008  13.628  65.130  1.00  0.00    -0.330 C  
BRANCH  25  26
HETATM   26  C   UNL     1     -10.387  14.834  65.727  1.00  0.00    -0.340 A  
HETATM   27  H2  UNL     1      -9.673  19.024  66.024  1.00  0.00     0.000 HD 
HETATM   28  H1  UNL     1     -11.342  18.652  65.598  1.00  0.00     0.000 HD 
HETATM   29  C   UNL     1      -9.060  14.886  66.143  1.00  0.00    -0.167 A  
HETATM   30  N   UNL     1     -10.999  16.084  65.713  1.00  0.00    -0.204 NA 
HETATM   31  N   UNL     1     -10.407  18.336  65.852  1.00  0.00    -0.596 NA 
HETATM   32  S   UNL     1      -8.555  16.501  66.388  1.00  0.00    -0.330 SA 
HETATM   33  C   UNL     1     -10.124  17.031  65.963  1.00  0.00    -0.302 A  
ENDBRANCH  25  26
BRANCH  25  34
HETATM   34  N   UNL     1     -10.558  13.424  63.921  1.00  0.00    -0.530 NA 
HETATM   35  H   UNL     1     -10.477  14.239  63.311  1.00  0.00     0.000 HD 
BRANCH  34  36
HETATM   36  O   UNL     1     -10.177  12.186  63.387  1.00  0.00    -0.433 OA 
HETATM   37  C   UNL     1      -9.685  11.182  64.236  1.00  0.00    -0.271 C  
ENDBRANCH  34  36
ENDBRANCH  25  34
ENDBRANCH  24  25
ENDBRANCH   7  21
TORSDOF 8
ENDMDL
MODEL       39
REMARK 921   NORMALIZED FREE ENERGY PREDICTED BY IDOCK:   -6.52 KCAL/MOL
REMARK 922        TOTAL FREE ENERGY PREDICTED BY IDOCK:  -10.73 KCAL/MOL
REMARK 923 INTER-LIGAND FREE ENERGY PREDICTED BY IDOCK:   -9.01 KCAL/MOL
REMARK 924 INTRA-LIGAND FREE ENERGY PREDICTED BY IDOCK:   -1.72 KCAL/MOL
REMARK 927      BINDING AFFINITY PREDICTED BY RF-SCORE:    0.00 PKD
ROOT
HETATM    1  C   UNL     1      -8.475   9.186  67.842  1.00  0.00    -0.117 C  
HETATM    2  S   UNL     1      -7.494  10.077  69.018  1.00  0.00    -0.095 SA 
HETATM    3  C   UNL     1      -7.702   9.122  70.543  1.00  0.00    -0.134 C  
HETATM    4  C   UNL     1      -8.439   7.805  70.478  1.00  0.00    -0.127 C  
HETATM    5  O   UNL     1     -11.035   7.448  66.920  1.00  0.00    -0.324 OA 
HETATM    6  CA  UNL     1      -9.168   7.368  69.421  1.00  0.00    -0.145 C  
HETATM    7  CA  UNL     1      -9.729   9.665  66.965  1.00  0.00    -0.181 C  
HETATM    8  N   UNL     1      -9.341   8.155  68.330  1.00  0.00    -0.134 N  
HETATM    9  C   UNL     1      -9.853   6.031  69.502  1.00  0.00    -0.161 C  
HETATM   10  OXT UNL     1      -9.394   5.103  70.155  1.00  0.00    -0.140 OA 
HETATM   11  C   UNL     1     -10.161   8.191  67.255  1.00  0.00    -0.241 C  
HETATM   12  O   UNL     1     -10.998   5.866  68.822  1.00  0.00    -0.300 OA 
ENDROOT
BRANCH   4  13
HETATM   13  C   UNL     1      -8.406   7.095  71.839  1.00  0.00    -0.105 C  
BRANCH  13  14
HETATM   14  S   UNL     1      -9.438   8.028  73.004  1.00  0.00    -0.268 SA 
BRANCH  14  15
HETATM   15  C   UNL     1     -11.018   7.632  72.446  1.00  0.00    -0.301 A  
HETATM   16  N   UNL     1     -11.651   6.491  72.591  1.00  0.00    -0.203 NA 
HETATM   17  C   UNL     1     -11.515   9.808  71.256  1.00  0.00    -0.385 C  
HETATM   18  N   UNL     1     -12.805   6.612  71.845  1.00  0.00    -0.267 NA 
HETATM   19  N   UNL     1     -11.768   8.454  71.661  1.00  0.00    -0.281 NA 
HETATM   20  N   UNL     1     -12.882   7.807  71.269  1.00  0.00    -0.275 NA 
ENDBRANCH  14  15
ENDBRANCH  13  14
ENDBRANCH   4  13
BRANCH   7  21
HETATM   21  N   UNL     1     -10.914  10.610  67.206  1.00  0.00    -0.300 N  
HETATM   22  H   UNL     1     -11.679  10.148  67.697  1.00  0.00     0.000 HD 
HETATM   23  O   UNL     1     -12.286  12.406  67.309  1.00  0.00    -0.478 OA 
HETATM   24  C   UNL     1     -11.207  11.959  66.916  1.00  0.00    -0.325 C  
BRANCH  24  25
HETATM   25  C   UNL     1     -10.373  12.833  65.980  1.00  0.00    -0.276 C  
BRANCH  25  26
HETATM   26  C   UNL     1     -10.017  14.231  66.322  1.00  0.00    -0.306 A  
HETATM   27  H2  UNL     1      -9.804  18.420  65.573  1.00  0.00     0.000 HD 
HETATM   28  H1  UNL     1     -11.297  17.702  64.973  1.00  0.00     0.000 HD 
HETATM   29  C   UNL     1      -8.822  14.587  66.940  1.00  0.00    -0.234 A  
HETATM   30  N   UNL     1     -10.733  15.329  65.853  1.00  0.00    -0.322 NA 
HETATM   31  N   UNL     1     -10.411  17.607  65.469  1.00  0.00    -0.638 NA 
HETATM   32  S   UNL     1      -8.545  16.270  66.816  1.00  0.00    -0.267 SA 
HETATM   33  C   UNL     1     -10.031  16.431  65.986  1.00  0.00    -0.345 A  
ENDBRANCH  25  26
BRANCH  25  34
HETATM   34  N   UNL     1     -10.073  12.569  64.737  1.00  0.00    -0.428 NA 
HETATM   35  H   UNL     1      -9.104  12.715  64.451  1.00  0.00     0.000 HD 
BRANCH  34  36
HETATM   36  O   UNL     1     -10.964  12.104  63.761  1.00  0.00    -0.353 OA 
HETATM   37  C   UNL     1     -12.131  12.831  63.479  1.00  0.00    -0.559 C  
ENDBRANCH  34  36
ENDBRANCH  25  34
ENDBRANCH  24  25
ENDBRANCH   7  21
TORSDOF 8
ENDMDL
MODEL       40
REMARK 921   NORMALIZED FREE ENERGY PREDICTED BY IDOCK:   -6.51 KCAL/MOL
REMARK 922        TOTAL FREE ENERGY PREDICTED BY IDOCK:  -10.72 KCAL/MOL
REMARK 923 INTER-LIGAND FREE ENERGY PREDICTED BY IDOCK:   -9.81 KCAL/MOL
REMARK 924 INTRA-LIGAND FREE ENERGY PREDICTED BY IDOCK:   -0.90 KCAL/MOL
REMARK 927      BINDING AFFINITY PREDICTED BY RF-SCORE:    0.00 PKD
ROOT
HETATM    1  C   UNL     1     -10.184  14.108  66.341  1.00  0.00    -0.290 C  
HETATM    2  S   UNL     1      -8.728  13.302  66.951  1.00  0.00    -0.083 SA 
HETATM    3  C   UNL     1      -8.782  11.680  66.149  1.00  0.00    -0.094 C  
HETATM    4  C   UNL     1      -9.838  11.426  65.099  1.00  0.00    -0.302 C  
HETATM    5  O   UNL     1     -13.265  14.200  65.382  1.00  0.00    -0.741 OA 
HETATM    6  CA  UNL     1     -10.906  12.224  64.853  1.00  0.00    -0.302 C  
HETATM    7  CA  UNL     1     -11.445  14.705  67.130  1.00  0.00    -0.368 C  
HETATM    8  N   UNL     1     -11.137  13.320  65.619  1.00  0.00    -0.281 N  
HETATM    9  C   UNL     1     -11.880  11.840  63.773  1.00  0.00    -0.380 C  
HETATM   10  OXT UNL     1     -11.535  11.221  62.776  1.00  0.00     0.381 OA 
HETATM   11  C   UNL     1     -12.168  14.165  65.853  1.00  0.00    -0.439 C  
HETATM   12  O   UNL     1     -13.163  12.205  63.922  1.00  0.00    -0.748 OA 
ENDROOT
BRANCH   4  13
HETATM   13  C   UNL     1      -9.645  10.045  64.456  1.00  0.00    -0.279 C  
BRANCH  13  14
HETATM   14  S   UNL     1      -8.418   9.122  65.425  1.00  0.00    -0.159 SA 
BRANCH  14  15
HETATM   15  C   UNL     1      -9.425   8.016  66.277  1.00  0.00    -0.172 A  
HETATM   16  N   UNL     1     -10.543   8.283  66.911  1.00  0.00    -0.299 NA 
HETATM   17  C   UNL     1      -7.994   5.951  65.979  1.00  0.00    -0.108 C  
HETATM   18  N   UNL     1     -10.889   7.115  67.557  1.00  0.00    -0.256 NA 
HETATM   19  N   UNL     1      -9.099   6.711  66.492  1.00  0.00    -0.146 NA 
HETATM   20  N   UNL     1     -10.009   6.151  67.311  1.00  0.00    -0.131 NA 
ENDBRANCH  14  15
ENDBRANCH  13  14
ENDBRANCH   4  13
BRANCH   7  21
HETATM   21  N   UNL     1     -12.227  14.289  68.383  1.00  0.00    -0.595 N  
HETATM   22  H   UNL     1     -12.860  13.510  68.199  1.00  0.00     0.000 HD 
HETATM   23  O   UNL     1     -13.033  14.101  70.488  1.00  0.00    -0.304 OA 
HETATM   24  C   UNL     1     -12.287  14.718  69.726  1.00  0.00    -0.249 C  
BRANCH  24  25
HETATM   25  C   UNL     1     -11.652  16.008  70.241  1.00  0.00    -0.324 C  
BRANCH  25  26
HETATM   26  C   UNL     1     -10.512  16.652  69.545  1.00  0.00    -0.281 A  
HETATM   27  H2  UNL     1      -8.716  18.869  66.381  1.00  0.00     0.000 HD 
HETATM   28  H1  UNL     1     -10.327  19.457  66.787  1.00  0.00     0.000 HD 
HETATM   29  C   UNL     1      -9.247  16.079  69.455  1.00  0.00    -0.202 A  
HETATM   30  N   UNL     1     -10.660  17.769  68.728  1.00  0.00    -0.229 NA 
HETATM   31  N   UNL     1      -9.550  18.822  66.967  1.00  0.00    -0.295 NA 
HETATM   32  S   UNL     1      -8.303  16.859  68.262  1.00  0.00    -0.233 SA 
HETATM   33  C   UNL     1      -9.606  17.925  67.961  1.00  0.00    -0.290 A  
ENDBRANCH  25  26
BRANCH  25  34
HETATM   34  N   UNL     1     -11.856  16.560  71.406  1.00  0.00    -0.590 NA 
HETATM   35  H   UNL     1     -12.032  17.565  71.421  1.00  0.00     0.000 HD 
BRANCH  34  36
HETATM   36  O   UNL     1     -11.854  15.894  72.639  1.00  0.00    -0.440 OA 
HETATM   37  C   UNL     1     -12.935  16.056  73.521  1.00  0.00    -0.586 C  
ENDBRANCH  34  36
ENDBRANCH  25  34
ENDBRANCH  24  25
ENDBRANCH   7  21
TORSDOF 8
ENDMDL
MODEL       41
REMARK 921   NORMALIZED FREE ENERGY PREDICTED BY IDOCK:   -6.51 KCAL/MOL
REMARK 922        TOTAL FREE ENERGY PREDICTED BY IDOCK:  -10.71 KCAL/MOL
REMARK 923 INTER-LIGAND FREE ENERGY PREDICTED BY IDOCK:   -9.20 KCAL/MOL
REMARK 924 INTRA-LIGAND FREE ENERGY PREDICTED BY IDOCK:   -1.51 KCAL/MOL
REMARK 927      BINDING AFFINITY PREDICTED BY RF-SCORE:    0.00 PKD
ROOT
HETATM    1  C   UNL     1     -10.967  11.445  69.625  1.00  0.00    -0.110 C  
HETATM    2  S   UNL     1     -12.316  11.155  70.736  1.00  0.00    -0.399 SA 
HETATM    3  C   UNL     1     -12.236   9.371  71.033  1.00  0.00    -0.279 C  
HETATM    4  C   UNL     1     -11.062   8.597  70.481  1.00  0.00    -0.268 C  
HETATM    5  O   UNL     1      -9.014  10.684  67.169  1.00  0.00    -0.137 OA 
HETATM    6  CA  UNL     1     -10.165   9.071  69.582  1.00  0.00    -0.206 C  
HETATM    7  CA  UNL     1     -10.958  12.059  68.143  1.00  0.00    -0.230 C  
HETATM    8  N   UNL     1     -10.314  10.309  69.047  1.00  0.00    -0.198 N  
HETATM    9  C   UNL     1      -9.044   8.180  69.120  1.00  0.00    -0.148 C  
HETATM   10  OXT UNL     1      -8.556   7.321  69.841  1.00  0.00    -0.138 OA 
HETATM   11  C   UNL     1      -9.820  10.997  67.993  1.00  0.00    -0.171 C  
HETATM   12  O   UNL     1      -8.572   8.354  67.876  1.00  0.00    -0.130 OA 
ENDROOT
BRANCH   4  13
HETATM   13  C   UNL     1     -11.113   7.131  70.938  1.00  0.00    -0.263 C  
BRANCH  13  14
HETATM   14  S   UNL     1     -11.159   7.092  72.752  1.00  0.00    -0.270 SA 
BRANCH  14  15
HETATM   15  C   UNL     1      -9.533   7.504  73.138  1.00  0.00    -0.219 A  
HETATM   16  N   UNL     1      -9.028   8.707  73.282  1.00  0.00    -0.250 NA 
HETATM   17  C   UNL     1      -8.586   5.158  73.173  1.00  0.00    -0.110 C  
HETATM   18  N   UNL     1      -7.669   8.522  73.430  1.00  0.00    -0.379 NA 
HETATM   19  N   UNL     1      -8.525   6.591  73.228  1.00  0.00    -0.120 NA 
HETATM   20  N   UNL     1      -7.353   7.233  73.392  1.00  0.00    -0.071 NA 
ENDBRANCH  14  15
ENDBRANCH  13  14
ENDBRANCH   4  13
BRANCH   7  21
HETATM   21  N   UNL     1     -11.906  11.977  66.938  1.00  0.00    -0.260 N  
HETATM   22  H   UNL     1     -12.672  11.323  67.096  1.00  0.00     0.000 HD 
HETATM   23  O   UNL     1     -12.936  12.292  64.949  1.00  0.00    -0.662 OA 
HETATM   24  C   UNL     1     -11.978  12.584  65.666  1.00  0.00    -0.433 C  
BRANCH  24  25
HETATM   25  C   UNL     1     -10.851  13.410  65.048  1.00  0.00    -0.328 C  
BRANCH  25  26
HETATM   26  C   UNL     1     -10.355  14.656  65.679  1.00  0.00    -0.351 A  
HETATM   27  H2  UNL     1      -9.773  18.872  65.890  1.00  0.00     0.000 HD 
HETATM   28  H1  UNL     1     -11.345  18.440  65.223  1.00  0.00     0.000 HD 
HETATM   29  C   UNL     1      -9.112  14.758  66.298  1.00  0.00    -0.196 A  
HETATM   30  N   UNL     1     -10.979  15.889  65.510  1.00  0.00    -0.283 NA 
HETATM   31  N   UNL     1     -10.457  18.158  65.636  1.00  0.00    -0.624 NA 
HETATM   32  S   UNL     1      -8.683  16.395  66.545  1.00  0.00    -0.318 SA 
HETATM   33  C   UNL     1     -10.173  16.867  65.852  1.00  0.00    -0.314 A  
ENDBRANCH  25  26
BRANCH  25  34
HETATM   34  N   UNL     1     -10.358  13.270  63.847  1.00  0.00    -0.689 NA 
HETATM   35  H   UNL     1     -10.023  14.114  63.380  1.00  0.00     0.000 HD 
BRANCH  34  36
HETATM   36  O   UNL     1     -10.250  12.064  63.141  1.00  0.00    -0.410 OA 
HETATM   37  C   UNL     1      -9.388  11.059  63.607  1.00  0.00    -0.238 C  
ENDBRANCH  34  36
ENDBRANCH  25  34
ENDBRANCH  24  25
ENDBRANCH   7  21
TORSDOF 8
ENDMDL
MODEL       42
REMARK 921   NORMALIZED FREE ENERGY PREDICTED BY IDOCK:   -6.50 KCAL/MOL
REMARK 922        TOTAL FREE ENERGY PREDICTED BY IDOCK:  -10.69 KCAL/MOL
REMARK 923 INTER-LIGAND FREE ENERGY PREDICTED BY IDOCK:   -9.90 KCAL/MOL
REMARK 924 INTRA-LIGAND FREE ENERGY PREDICTED BY IDOCK:   -0.79 KCAL/MOL
REMARK 927      BINDING AFFINITY PREDICTED BY RF-SCORE:    0.00 PKD
ROOT
HETATM    1  C   UNL     1     -11.703  11.281  68.504  1.00  0.00    -0.308 C  
HETATM    2  S   UNL     1     -11.903  12.781  69.425  1.00  0.00    -0.273 SA 
HETATM    3  C   UNL     1     -11.467  14.067  68.228  1.00  0.00    -0.304 C  
HETATM    4  C   UNL     1     -11.221  13.667  66.792  1.00  0.00    -0.327 C  
HETATM    5  O   UNL     1     -10.258   9.379  66.331  1.00  0.00    -0.268 OA 
HETATM    6  CA  UNL     1     -11.070  12.394  66.349  1.00  0.00    -0.301 C  
HETATM    7  CA  UNL     1     -10.753  10.018  68.774  1.00  0.00    -0.223 C  
HETATM    8  N   UNL     1     -11.066  11.356  67.224  1.00  0.00    -0.287 N  
HETATM    9  C   UNL     1     -10.826  12.147  64.886  1.00  0.00    -0.308 C  
HETATM   10  OXT UNL     1     -11.279  12.881  64.017  1.00  0.00    -0.367 OA 
HETATM   11  C   UNL     1     -10.701  10.054  67.212  1.00  0.00    -0.244 C  
HETATM   12  O   UNL     1     -10.093  11.078  64.539  1.00  0.00    -0.270 OA 
ENDROOT
BRANCH   4  13
HETATM   13  C   UNL     1     -10.984  14.905  65.914  1.00  0.00    -0.338 C  
BRANCH  13  14
HETATM   14  S   UNL     1      -9.286  15.488  66.182  1.00  0.00    -0.349 SA 
BRANCH  14  15
HETATM   15  C   UNL     1      -9.507  17.195  66.144  1.00  0.00    -0.201 A  
HETATM   16  N   UNL     1     -10.643  17.852  66.167  1.00  0.00    -0.307 NA 
HETATM   17  C   UNL     1      -7.074  17.849  65.911  1.00  0.00    -0.262 C  
HETATM   18  N   UNL     1     -10.310  19.174  65.961  1.00  0.00    -0.468 NA 
HETATM   19  N   UNL     1      -8.490  18.083  65.964  1.00  0.00    -0.515 NA 
HETATM   20  N   UNL     1      -8.996  19.323  65.831  1.00  0.00    -0.408 NA 
ENDBRANCH  14  15
ENDBRANCH  13  14
ENDBRANCH   4  13
BRANCH   7  21
HETATM   21  N   UNL     1      -9.336   9.837  69.336  1.00  0.00    -0.189 N  
HETATM   22  H   UNL     1      -8.619  10.098  68.659  1.00  0.00     0.000 HD 
HETATM   23  O   UNL     1      -7.553   9.421  70.666  1.00  0.00    -0.134 OA 
HETATM   24  C   UNL     1      -8.781   9.399  70.557  1.00  0.00    -0.231 C  
BRANCH  24  25
HETATM   25  C   UNL     1      -9.581   8.713  71.663  1.00  0.00    -0.274 C  
BRANCH  25  26
HETATM   26  C   UNL     1     -11.014   8.370  71.496  1.00  0.00    -0.262 A  
HETATM   27  H2  UNL     1     -15.118   8.408  72.638  1.00  0.00     0.000 HD 
HETATM   28  H1  UNL     1     -14.309   9.937  72.976  1.00  0.00     0.000 HD 
HETATM   29  C   UNL     1     -11.457   7.121  71.070  1.00  0.00    -0.297 A  
HETATM   30  N   UNL     1     -12.044   9.179  71.966  1.00  0.00    -0.372 NA 
HETATM   31  N   UNL     1     -14.283   8.993  72.591  1.00  0.00    -0.558 NA 
HETATM   32  S   UNL     1     -13.127   6.925  71.379  1.00  0.00    -0.140 SA 
HETATM   33  C   UNL     1     -13.171   8.508  72.024  1.00  0.00    -0.369 A  
ENDBRANCH  25  26
BRANCH  25  34
HETATM   34  N   UNL     1      -9.207   8.552  72.903  1.00  0.00    -0.283 NA 
HETATM   35  H   UNL     1      -9.128   9.391  73.479  1.00  0.00     0.000 HD 
BRANCH  34  36
HETATM   36  O   UNL     1      -8.904   7.328  73.514  1.00  0.00    -0.140 OA 
HETATM   37  C   UNL     1      -9.865   6.691  74.316  1.00  0.00    -0.327 C  
ENDBRANCH  34  36
ENDBRANCH  25  34
ENDBRANCH  24  25
ENDBRANCH   7  21
TORSDOF 8
ENDMDL
MODEL       43
REMARK 921   NORMALIZED FREE ENERGY PREDICTED BY IDOCK:   -6.47 KCAL/MOL
REMARK 922        TOTAL FREE ENERGY PREDICTED BY IDOCK:  -10.66 KCAL/MOL
REMARK 923 INTER-LIGAND FREE ENERGY PREDICTED BY IDOCK:   -9.02 KCAL/MOL
REMARK 924 INTRA-LIGAND FREE ENERGY PREDICTED BY IDOCK:   -1.64 KCAL/MOL
REMARK 927      BINDING AFFINITY PREDICTED BY RF-SCORE:    0.00 PKD
ROOT
HETATM    1  C   UNL     1      -9.462   9.825  69.663  1.00  0.00    -0.219 C  
HETATM    2  S   UNL     1      -8.757  10.849  68.401  1.00  0.00    -0.152 SA 
HETATM    3  C   UNL     1      -9.965  12.187  68.227  1.00  0.00    -0.212 C  
HETATM    4  C   UNL     1     -11.115  12.256  69.204  1.00  0.00    -0.261 C  
HETATM    5  O   UNL     1     -11.909   8.406  71.220  1.00  0.00    -0.281 OA 
HETATM    6  CA  UNL     1     -11.465  11.275  70.071  1.00  0.00    -0.275 C  
HETATM    7  CA  UNL     1      -9.895   8.282  69.623  1.00  0.00    -0.184 C  
HETATM    8  N   UNL     1     -10.810  10.086  70.068  1.00  0.00    -0.280 N  
HETATM    9  C   UNL     1     -12.640  11.485  70.986  1.00  0.00    -0.357 C  
HETATM   10  OXT UNL     1     -12.952  12.594  71.402  1.00  0.00    -0.361 OA 
HETATM   11  C   UNL     1     -11.015   8.843  70.558  1.00  0.00    -0.241 C  
HETATM   12  O   UNL     1     -13.353  10.410  71.355  1.00  0.00    -0.349 OA 
ENDROOT
BRANCH   4  13
HETATM   13  C   UNL     1     -11.955  13.520  68.966  1.00  0.00    -0.335 C  
BRANCH  13  14
HETATM   14  S   UNL     1     -11.142  14.525  67.693  1.00  0.00    -0.317 SA 
BRANCH  14  15
HETATM   15  C   UNL     1     -11.970  14.007  66.276  1.00  0.00    -0.432 A  
HETATM   16  N   UNL     1     -12.675  12.911  66.120  1.00  0.00    -0.191 NA 
HETATM   17  C   UNL     1     -11.257  15.898  64.753  1.00  0.00    -0.355 C  
HETATM   18  N   UNL     1     -13.001  12.868  64.781  1.00  0.00    -0.788 NA 
HETATM   19  N   UNL     1     -11.886  14.648  65.077  1.00  0.00    -0.381 NA 
HETATM   20  N   UNL     1     -12.518  13.923  64.135  1.00  0.00    -0.693 NA 
ENDBRANCH  14  15
ENDBRANCH  13  14
ENDBRANCH   4  13
BRANCH   7  21
HETATM   21  N   UNL     1     -10.518   7.365  68.561  1.00  0.00    -0.221 N  
HETATM   22  H   UNL     1     -11.187   6.710  68.964  1.00  0.00     0.000 HD 
HETATM   23  O   UNL     1     -11.105   6.360  66.621  1.00  0.00    -0.292 OA 
HETATM   24  C   UNL     1     -10.393   7.206  67.164  1.00  0.00    -0.289 C  
BRANCH  24  25
HETATM   25  C   UNL     1      -9.299   7.862  66.323  1.00  0.00    -0.164 C  
BRANCH  25  26
HETATM   26  C   UNL     1      -7.865   7.764  66.688  1.00  0.00    -0.102 A  
HETATM   27  H2  UNL     1      -4.632   7.325  69.428  1.00  0.00     0.000 HD 
HETATM   28  H1  UNL     1      -6.023   6.332  69.860  1.00  0.00     0.000 HD 
HETATM   29  C   UNL     1      -6.874   8.556  66.115  1.00  0.00    -0.072 A  
HETATM   30  N   UNL     1      -7.413   7.043  67.789  1.00  0.00    -0.096 NA 
HETATM   31  N   UNL     1      -5.571   6.983  69.218  1.00  0.00    -0.015 NA 
HETATM   32  S   UNL     1      -5.431   8.491  67.030  1.00  0.00    -0.038 SA 
HETATM   33  C   UNL     1      -6.189   7.399  68.105  1.00  0.00    -0.043 A  
ENDBRANCH  25  26
BRANCH  25  34
HETATM   34  N   UNL     1      -9.475   8.731  65.364  1.00  0.00    -0.449 NA 
HETATM   35  H   UNL     1      -8.997   8.553  64.481  1.00  0.00     0.000 HD 
BRANCH  34  36
HETATM   36  O   UNL     1     -10.264   9.886  65.442  1.00  0.00    -0.273 OA 
HETATM   37  C   UNL     1      -9.918  11.019  64.688  1.00  0.00    -0.301 C  
ENDBRANCH  34  36
ENDBRANCH  25  34
ENDBRANCH  24  25
ENDBRANCH   7  21
TORSDOF 8
ENDMDL
MODEL       44
REMARK 921   NORMALIZED FREE ENERGY PREDICTED BY IDOCK:   -6.47 KCAL/MOL
REMARK 922        TOTAL FREE ENERGY PREDICTED BY IDOCK:  -10.66 KCAL/MOL
REMARK 923 INTER-LIGAND FREE ENERGY PREDICTED BY IDOCK:   -9.85 KCAL/MOL
REMARK 924 INTRA-LIGAND FREE ENERGY PREDICTED BY IDOCK:   -0.80 KCAL/MOL
REMARK 927      BINDING AFFINITY PREDICTED BY RF-SCORE:    0.00 PKD
ROOT
HETATM    1  C   UNL     1     -11.382  12.252  68.517  1.00  0.00    -0.286 C  
HETATM    2  S   UNL     1     -10.278  10.917  68.142  1.00  0.00    -0.184 SA 
HETATM    3  C   UNL     1     -10.459   9.814  69.566  1.00  0.00    -0.232 C  
HETATM    4  C   UNL     1     -11.525  10.123  70.591  1.00  0.00    -0.432 C  
HETATM    5  O   UNL     1     -12.847  14.338  70.498  1.00  0.00    -0.345 OA 
HETATM    6  CA  UNL     1     -12.221  11.284  70.671  1.00  0.00    -0.393 C  
HETATM    7  CA  UNL     1     -11.091  13.819  68.690  1.00  0.00    -0.267 C  
HETATM    8  N   UNL     1     -11.941  12.314  69.833  1.00  0.00    -0.327 N  
HETATM    9  C   UNL     1     -13.254  11.451  71.751  1.00  0.00    -0.367 C  
HETATM   10  OXT UNL     1     -13.894  10.505  72.192  1.00  0.00    -0.094 OA 
HETATM   11  C   UNL     1     -12.206  13.639  69.771  1.00  0.00    -0.291 C  
HETATM   12  O   UNL     1     -13.475  12.685  72.229  1.00  0.00    -0.561 OA 
ENDROOT
BRANCH   4  13
HETATM   13  C   UNL     1     -11.599   9.014  71.651  1.00  0.00    -0.356 C  
BRANCH  13  14
HETATM   14  S   UNL     1     -10.801   7.525  70.987  1.00  0.00    -0.239 SA 
BRANCH  14  15
HETATM   15  C   UNL     1     -10.366   6.702  72.435  1.00  0.00    -0.195 A  
HETATM   16  N   UNL     1     -10.798   6.945  73.650  1.00  0.00    -0.266 NA 
HETATM   17  C   UNL     1      -8.660   5.125  71.431  1.00  0.00    -0.128 C  
HETATM   18  N   UNL     1     -10.048   6.136  74.477  1.00  0.00    -0.324 NA 
HETATM   19  N   UNL     1      -9.398   5.745  72.496  1.00  0.00    -0.142 NA 
HETATM   20  N   UNL     1      -9.187   5.403  73.780  1.00  0.00    -0.126 NA 
ENDBRANCH  14  15
ENDBRANCH  13  14
ENDBRANCH   4  13
BRANCH   7  21
HETATM   21  N   UNL     1      -9.933  14.642  69.271  1.00  0.00    -0.391 N  
HETATM   22  H   UNL     1     -10.135  14.977  70.213  1.00  0.00     0.000 HD 
HETATM   23  O   UNL     1      -7.960  15.696  69.607  1.00  0.00    -0.206 OA 
HETATM   24  C   UNL     1      -8.658  15.048  68.824  1.00  0.00    -0.182 C  
BRANCH  24  25
HETATM   25  C   UNL     1      -8.175  14.916  67.381  1.00  0.00    -0.197 C  
BRANCH  25  26
HETATM   26  C   UNL     1      -9.111  14.977  66.233  1.00  0.00    -0.253 A  
HETATM   27  H2  UNL     1     -12.211  16.751  63.910  1.00  0.00     0.000 HD 
HETATM   28  H1  UNL     1     -11.109  17.946  64.590  1.00  0.00     0.000 HD 
HETATM   29  C   UNL     1      -9.793  13.867  65.742  1.00  0.00    -0.239 A  
HETATM   30  N   UNL     1      -9.568  16.176  65.693  1.00  0.00    -0.455 NA 
HETATM   31  N   UNL     1     -11.372  16.971  64.447  1.00  0.00    -1.052 NA 
HETATM   32  S   UNL     1     -11.075  14.340  64.714  1.00  0.00    -0.381 SA 
HETATM   33  C   UNL     1     -10.634  15.974  64.953  1.00  0.00    -0.214 A  
ENDBRANCH  25  26
BRANCH  25  34
HETATM   34  N   UNL     1      -6.990  14.529  66.993  1.00  0.00    -0.326 NA 
HETATM   35  H   UNL     1      -6.564  15.039  66.219  1.00  0.00     0.000 HD 
BRANCH  34  36
HETATM   36  O   UNL     1      -6.252  13.474  67.546  1.00  0.00    -0.255 OA 
HETATM   37  C   UNL     1      -6.650  12.148  67.315  1.00  0.00    -0.146 C  
ENDBRANCH  34  36
ENDBRANCH  25  34
ENDBRANCH  24  25
ENDBRANCH   7  21
TORSDOF 8
ENDMDL
MODEL       45
REMARK 921   NORMALIZED FREE ENERGY PREDICTED BY IDOCK:   -6.46 KCAL/MOL
REMARK 922        TOTAL FREE ENERGY PREDICTED BY IDOCK:  -10.63 KCAL/MOL
REMARK 923 INTER-LIGAND FREE ENERGY PREDICTED BY IDOCK:   -9.24 KCAL/MOL
REMARK 924 INTRA-LIGAND FREE ENERGY PREDICTED BY IDOCK:   -1.39 KCAL/MOL
REMARK 927      BINDING AFFINITY PREDICTED BY RF-SCORE:    0.00 PKD
ROOT
HETATM    1  C   UNL     1      -9.546   9.925  69.664  1.00  0.00    -0.227 C  
HETATM    2  S   UNL     1      -8.791  10.893  68.386  1.00  0.00    -0.153 SA 
HETATM    3  C   UNL     1      -9.920  12.296  68.205  1.00  0.00    -0.210 C  
HETATM    4  C   UNL     1     -11.058  12.443  69.188  1.00  0.00    -0.260 C  
HETATM    5  O   UNL     1     -12.060   8.668  71.252  1.00  0.00    -0.290 OA 
HETATM    6  CA  UNL     1     -11.458  11.494  70.069  1.00  0.00    -0.220 C  
HETATM    7  CA  UNL     1     -10.068   8.409  69.644  1.00  0.00    -0.199 C  
HETATM    8  N   UNL     1     -10.874  10.269  70.075  1.00  0.00    -0.292 N  
HETATM    9  C   UNL     1     -12.613  11.782  70.989  1.00  0.00    -0.310 C  
HETATM   10  OXT UNL     1     -12.857  12.911  71.394  1.00  0.00    -0.367 OA 
HETATM   11  C   UNL     1     -11.147   9.044  70.580  1.00  0.00    -0.254 C  
HETATM   12  O   UNL     1     -13.384  10.754  71.374  1.00  0.00    -0.310 OA 
ENDROOT
BRANCH   4  13
HETATM   13  C   UNL     1     -11.825  13.751  68.942  1.00  0.00    -0.360 C  
BRANCH  13  14
HETATM   14  S   UNL     1     -11.062  14.614  67.539  1.00  0.00    -0.325 SA 
BRANCH  14  15
HETATM   15  C   UNL     1     -11.996  14.009  66.225  1.00  0.00    -0.432 A  
HETATM   16  N   UNL     1     -12.728  12.920  66.203  1.00  0.00    -0.191 NA 
HETATM   17  C   UNL     1     -11.358  15.763  64.517  1.00  0.00    -0.316 C  
HETATM   18  N   UNL     1     -13.147  12.783  64.896  1.00  0.00    -0.821 NA 
HETATM   19  N   UNL     1     -11.985  14.556  64.978  1.00  0.00    -0.396 NA 
HETATM   20  N   UNL     1     -12.693  13.776  64.140  1.00  0.00    -0.644 NA 
ENDBRANCH  14  15
ENDBRANCH  13  14
ENDBRANCH   4  13
BRANCH   7  21
HETATM   21  N   UNL     1     -10.751   7.519  68.596  1.00  0.00    -0.371 N  
HETATM   22  H   UNL     1     -11.624   7.121  68.940  1.00  0.00     0.000 HD 
HETATM   23  O   UNL     1     -11.294   6.397  66.708  1.00  0.00    -0.257 OA 
HETATM   24  C   UNL     1     -10.468   7.116  67.273  1.00  0.00    -0.301 C  
BRANCH  24  25
HETATM   25  C   UNL     1      -9.126   7.341  66.579  1.00  0.00    -0.155 C  
BRANCH  25  26
HETATM   26  C   UNL     1      -8.843   8.570  65.798  1.00  0.00    -0.190 A  
HETATM   27  H2  UNL     1      -9.821  11.654  63.026  1.00  0.00     0.000 HD 
HETATM   28  H1  UNL     1     -11.191  11.194  64.035  1.00  0.00     0.000 HD 
HETATM   29  C   UNL     1      -7.621   8.820  65.182  1.00  0.00    -0.096 A  
HETATM   30  N   UNL     1      -9.836   9.468  65.417  1.00  0.00    -0.266 NA 
HETATM   31  N   UNL     1     -10.205  11.097  63.790  1.00  0.00    -0.344 NA 
HETATM   32  S   UNL     1      -7.756  10.089  64.043  1.00  0.00    -0.134 SA 
HETATM   33  C   UNL     1      -9.407  10.251  64.455  1.00  0.00    -0.277 A  
ENDBRANCH  25  26
BRANCH  25  34
HETATM   34  N   UNL     1      -8.190   6.450  66.396  1.00  0.00    -0.112 NA 
HETATM   35  H   UNL     1      -7.853   6.318  65.442  1.00  0.00     0.000 HD 
BRANCH  34  36
HETATM   36  O   UNL     1      -7.607   5.658  67.395  1.00  0.00    -0.087 OA 
HETATM   37  C   UNL     1      -6.768   6.249  68.353  1.00  0.00    -0.068 C  
ENDBRANCH  34  36
ENDBRANCH  25  34
ENDBRANCH  24  25
ENDBRANCH   7  21
TORSDOF 8
ENDMDL
MODEL       46
REMARK 921   NORMALIZED FREE ENERGY PREDICTED BY IDOCK:   -6.44 KCAL/MOL
REMARK 922        TOTAL FREE ENERGY PREDICTED BY IDOCK:  -10.60 KCAL/MOL
REMARK 923 INTER-LIGAND FREE ENERGY PREDICTED BY IDOCK:   -9.07 KCAL/MOL
REMARK 924 INTRA-LIGAND FREE ENERGY PREDICTED BY IDOCK:   -1.53 KCAL/MOL
REMARK 927      BINDING AFFINITY PREDICTED BY RF-SCORE:    0.00 PKD
ROOT
HETATM    1  C   UNL     1      -9.783  12.296  67.012  1.00  0.00    -0.205 C  
HETATM    2  S   UNL     1     -11.428  12.140  67.653  1.00  0.00    -0.337 SA 
HETATM    3  C   UNL     1     -11.509  13.438  68.913  1.00  0.00    -0.304 C  
HETATM    4  C   UNL     1     -10.354  14.405  69.033  1.00  0.00    -0.204 C  
HETATM    5  O   UNL     1      -6.614  12.863  67.256  1.00  0.00    -0.157 OA 
HETATM    6  CA  UNL     1      -9.146  14.259  68.435  1.00  0.00    -0.194 C  
HETATM    7  CA  UNL     1      -8.584  11.233  66.967  1.00  0.00    -0.148 C  
HETATM    8  N   UNL     1      -8.866  13.147  67.709  1.00  0.00    -0.179 N  
HETATM    9  C   UNL     1      -8.087  15.305  68.649  1.00  0.00    -0.156 C  
HETATM   10  OXT UNL     1      -8.364  16.483  68.836  1.00  0.00    -0.235 OA 
HETATM   11  C   UNL     1      -7.764  12.541  67.212  1.00  0.00    -0.146 C  
HETATM   12  O   UNL     1      -6.803  14.918  68.621  1.00  0.00    -0.099 OA 
ENDROOT
BRANCH   4  13
HETATM   13  C   UNL     1     -10.663  15.495  70.070  1.00  0.00    -0.318 C  
BRANCH  13  14
HETATM   14  S   UNL     1     -12.458  15.557  70.327  1.00  0.00    -0.296 SA 
BRANCH  14  15
HETATM   15  C   UNL     1     -12.553  15.510  72.046  1.00  0.00    -0.404 A  
HETATM   16  N   UNL     1     -12.183  16.443  72.890  1.00  0.00    -0.493 NA 
HETATM   17  C   UNL     1     -13.447  13.153  72.273  1.00  0.00    -0.568 C  
HETATM   18  N   UNL     1     -12.309  15.879  74.143  1.00  0.00    -0.590 NA 
HETATM   19  N   UNL     1     -12.932  14.406  72.749  1.00  0.00    -0.461 NA 
HETATM   20  N   UNL     1     -12.761  14.633  74.065  1.00  0.00    -0.397 NA 
ENDBRANCH  14  15
ENDBRANCH  13  14
ENDBRANCH   4  13
BRANCH   7  21
HETATM   21  N   UNL     1      -8.089  10.127  67.909  1.00  0.00    -0.108 N  
HETATM   22  H   UNL     1      -7.072  10.069  67.932  1.00  0.00     0.000 HD 
HETATM   23  O   UNL     1      -7.953   8.442  69.413  1.00  0.00    -0.107 OA 
HETATM   24  C   UNL     1      -8.695   9.171  68.752  1.00  0.00    -0.132 C  
BRANCH  24  25
HETATM   25  C   UNL     1     -10.188   8.848  68.744  1.00  0.00    -0.206 C  
BRANCH  25  26
HETATM   26  C   UNL     1     -10.973   8.731  69.997  1.00  0.00    -0.209 A  
HETATM   27  H2  UNL     1     -13.869   6.925  72.546  1.00  0.00     0.000 HD 
HETATM   28  H1  UNL     1     -12.948   5.738  71.623  1.00  0.00     0.000 HD 
HETATM   29  C   UNL     1     -11.507   9.826  70.670  1.00  0.00    -0.324 A  
HETATM   30  N   UNL     1     -11.440   7.514  70.484  1.00  0.00    -0.267 NA 
HETATM   31  N   UNL     1     -13.122   6.709  71.885  1.00  0.00    -0.190 NA 
HETATM   32  S   UNL     1     -12.678   9.332  71.813  1.00  0.00    -0.412 SA 
HETATM   33  C   UNL     1     -12.386   7.705  71.375  1.00  0.00    -0.333 A  
ENDBRANCH  25  26
BRANCH  25  34
HETATM   34  N   UNL     1     -10.884   8.431  67.720  1.00  0.00    -0.494 NA 
HETATM   35  H   UNL     1     -11.519   9.102  67.285  1.00  0.00     0.000 HD 
BRANCH  34  36
HETATM   36  O   UNL     1     -10.837   7.145  67.167  1.00  0.00    -0.333 OA 
HETATM   37  C   UNL     1      -9.757   6.776  66.350  1.00  0.00    -0.064 C  
ENDBRANCH  34  36
ENDBRANCH  25  34
ENDBRANCH  24  25
ENDBRANCH   7  21
TORSDOF 8
ENDMDL
MODEL       47
REMARK 921   NORMALIZED FREE ENERGY PREDICTED BY IDOCK:   -6.42 KCAL/MOL
REMARK 922        TOTAL FREE ENERGY PREDICTED BY IDOCK:  -10.58 KCAL/MOL
REMARK 923 INTER-LIGAND FREE ENERGY PREDICTED BY IDOCK:   -9.30 KCAL/MOL
REMARK 924 INTRA-LIGAND FREE ENERGY PREDICTED BY IDOCK:   -1.28 KCAL/MOL
REMARK 927      BINDING AFFINITY PREDICTED BY RF-SCORE:    0.00 PKD
ROOT
HETATM    1  C   UNL     1     -11.101  11.760  63.854  1.00  0.00    -0.408 C  
HETATM    2  S   UNL     1      -9.546  11.253  63.172  1.00  0.00    -0.369 SA 
HETATM    3  C   UNL     1      -8.678  10.544  64.595  1.00  0.00    -0.183 C  
HETATM    4  C   UNL     1      -9.431  10.380  65.894  1.00  0.00    -0.237 C  
HETATM    5  O   UNL     1     -13.001  12.969  66.167  1.00  0.00    -0.044 OA 
HETATM    6  CA  UNL     1     -10.642  10.924  66.172  1.00  0.00    -0.206 C  
HETATM    7  CA  UNL     1     -11.783  13.209  63.913  1.00  0.00    -0.456 C  
HETATM    8  N   UNL     1     -11.250  11.744  65.278  1.00  0.00    -0.288 N  
HETATM    9  C   UNL     1     -11.271  10.675  67.515  1.00  0.00    -0.253 C  
HETATM   10  OXT UNL     1     -11.083   9.640  68.140  1.00  0.00    -0.176 OA 
HETATM   11  C   UNL     1     -12.265  12.638  65.286  1.00  0.00    -0.475 C  
HETATM   12  O   UNL     1     -12.069  11.626  68.024  1.00  0.00    -0.597 OA 
ENDROOT
BRANCH   4  13
HETATM   13  C   UNL     1      -8.566   9.657  66.937  1.00  0.00    -0.128 C  
BRANCH  13  14
HETATM   14  S   UNL     1      -8.136   8.015  66.294  1.00  0.00    -0.117 SA 
BRANCH  14  15
HETATM   15  C   UNL     1      -9.213   7.011  67.186  1.00  0.00    -0.137 A  
HETATM   16  N   UNL     1     -10.414   6.618  66.832  1.00  0.00    -0.268 NA 
HETATM   17  C   UNL     1      -7.792   6.747  69.263  1.00  0.00    -0.110 C  
HETATM   18  N   UNL     1     -10.931   5.970  67.934  1.00  0.00    -0.294 NA 
HETATM   19  N   UNL     1      -8.973   6.593  68.460  1.00  0.00    -0.121 NA 
HETATM   20  N   UNL     1     -10.059   5.955  68.935  1.00  0.00    -0.165 NA 
ENDBRANCH  14  15
ENDBRANCH  13  14
ENDBRANCH   4  13
BRANCH   7  21
HETATM   21  N   UNL     1     -11.258  14.639  64.102  1.00  0.00    -0.572 N  
HETATM   22  H   UNL     1     -11.447  15.228  63.292  1.00  0.00     0.000 HD 
HETATM   23  O   UNL     1     -10.342  16.534  64.932  1.00  0.00    -0.591 OA 
HETATM   24  C   UNL     1     -10.578  15.340  65.121  1.00  0.00    -0.430 C  
BRANCH  24  25
HETATM   25  C   UNL     1      -9.942  14.673  66.339  1.00  0.00    -0.283 C  
BRANCH  25  26
HETATM   26  C   UNL     1     -10.350  15.015  67.723  1.00  0.00    -0.245 A  
HETATM   27  H2  UNL     1     -12.982  14.922  71.073  1.00  0.00     0.000 HD 
HETATM   28  H1  UNL     1     -12.934  13.386  70.209  1.00  0.00     0.000 HD 
HETATM   29  C   UNL     1     -10.167  16.274  68.286  1.00  0.00    -0.253 A  
HETATM   30  N   UNL     1     -11.155  14.186  68.500  1.00  0.00    -0.245 NA 
HETATM   31  N   UNL     1     -12.598  14.342  70.325  1.00  0.00    -0.348 NA 
HETATM   32  S   UNL     1     -11.100  16.453  69.707  1.00  0.00    -0.236 SA 
HETATM   33  C   UNL     1     -11.662  14.851  69.512  1.00  0.00    -0.320 A  
ENDBRANCH  25  26
BRANCH  25  34
HETATM   34  N   UNL     1      -8.868  13.930  66.343  1.00  0.00    -0.461 NA 
HETATM   35  H   UNL     1      -8.498  13.641  65.437  1.00  0.00     0.000 HD 
BRANCH  34  36
HETATM   36  O   UNL     1      -8.178  13.495  67.482  1.00  0.00    -0.160 OA 
HETATM   37  C   UNL     1      -6.928  12.870  67.345  1.00  0.00    -0.124 C  
ENDBRANCH  34  36
ENDBRANCH  25  34
ENDBRANCH  24  25
ENDBRANCH   7  21
TORSDOF 8
ENDMDL
MODEL       48
REMARK 921   NORMALIZED FREE ENERGY PREDICTED BY IDOCK:   -6.41 KCAL/MOL
REMARK 922        TOTAL FREE ENERGY PREDICTED BY IDOCK:  -10.57 KCAL/MOL
REMARK 923 INTER-LIGAND FREE ENERGY PREDICTED BY IDOCK:   -9.42 KCAL/MOL
REMARK 924 INTRA-LIGAND FREE ENERGY PREDICTED BY IDOCK:   -1.15 KCAL/MOL
REMARK 927      BINDING AFFINITY PREDICTED BY RF-SCORE:    0.00 PKD
ROOT
HETATM    1  C   UNL     1     -10.257  14.816  69.024  1.00  0.00    -0.237 C  
HETATM    2  S   UNL     1     -11.866  14.394  69.634  1.00  0.00    -0.340 SA 
HETATM    3  C   UNL     1     -11.952  12.603  69.377  1.00  0.00    -0.260 C  
HETATM    4  C   UNL     1     -10.711  11.877  68.912  1.00  0.00    -0.236 C  
HETATM    5  O   UNL     1      -7.758  14.548  66.996  1.00  0.00    -0.126 OA 
HETATM    6  CA  UNL     1      -9.586  12.471  68.445  1.00  0.00    -0.176 C  
HETATM    7  CA  UNL     1      -9.825  15.821  67.851  1.00  0.00    -0.217 C  
HETATM    8  N   UNL     1      -9.528  13.820  68.299  1.00  0.00    -0.212 N  
HETATM    9  C   UNL     1      -8.426  11.617  68.014  1.00  0.00    -0.151 C  
HETATM   10  OXT UNL     1      -8.188  10.533  68.531  1.00  0.00    -0.111 OA 
HETATM   11  C   UNL     1      -8.740  14.712  67.658  1.00  0.00    -0.177 C  
HETATM   12  O   UNL     1      -7.632  12.077  67.036  1.00  0.00    -0.149 OA 
ENDROOT
BRANCH   4  13
HETATM   13  C   UNL     1     -10.952  10.361  68.869  1.00  0.00    -0.245 C  
BRANCH  13  14
HETATM   14  S   UNL     1     -10.583   9.670  70.507  1.00  0.00    -0.322 SA 
BRANCH  14  15
HETATM   15  C   UNL     1     -12.115   9.026  70.953  1.00  0.00    -0.198 A  
HETATM   16  N   UNL     1     -13.199   9.694  71.272  1.00  0.00    -0.369 NA 
HETATM   17  C   UNL     1     -11.486   6.576  70.895  1.00  0.00    -0.351 C  
HETATM   18  N   UNL     1     -14.105   8.747  71.699  1.00  0.00    -0.399 NA 
HETATM   19  N   UNL     1     -12.348   7.697  71.142  1.00  0.00    -0.297 NA 
HETATM   20  N   UNL     1     -13.592   7.524  71.628  1.00  0.00    -0.377 NA 
ENDBRANCH  14  15
ENDBRANCH  13  14
ENDBRANCH   4  13
BRANCH   7  21
HETATM   21  N   UNL     1     -10.420  16.206  66.489  1.00  0.00    -0.303 N  
HETATM   22  H   UNL     1     -10.809  15.401  65.999  1.00  0.00     0.000 HD 
HETATM   23  O   UNL     1     -11.146  17.332  64.666  1.00  0.00    -1.052 OA 
HETATM   24  C   UNL     1     -10.560  17.399  65.749  1.00  0.00    -0.182 C  
BRANCH  24  25
HETATM   25  C   UNL     1      -9.862  18.711  66.101  1.00  0.00    -0.287 C  
BRANCH  25  26
HETATM   26  C   UNL     1      -8.384  18.830  66.131  1.00  0.00    -0.176 A  
HETATM   27  H2  UNL     1      -4.429  17.303  66.554  1.00  0.00     0.000 HD 
HETATM   28  H1  UNL     1      -5.499  16.182  65.716  1.00  0.00     0.000 HD 
HETATM   29  C   UNL     1      -7.714  19.891  66.732  1.00  0.00    -0.290 A  
HETATM   30  N   UNL     1      -7.536  17.787  65.771  1.00  0.00    -0.541 NA 
HETATM   31  N   UNL     1      -5.344  17.089  66.155  1.00  0.00    -0.313 NA 
HETATM   32  S   UNL     1      -6.059  19.524  66.955  1.00  0.00    -0.179 SA 
HETATM   33  C   UNL     1      -6.320  18.004  66.218  1.00  0.00    -0.218 A  
ENDBRANCH  25  26
BRANCH  25  34
HETATM   34  N   UNL     1     -10.423  19.774  66.611  1.00  0.00    -0.475 NA 
HETATM   35  H   UNL     1     -10.435  20.617  66.035  1.00  0.00     0.000 HD 
BRANCH  34  36
HETATM   36  O   UNL     1     -11.010  19.860  67.881  1.00  0.00    -0.194 OA 
HETATM   37  C   UNL     1     -10.207  19.765  69.028  1.00  0.00    -0.266 C  
ENDBRANCH  34  36
ENDBRANCH  25  34
ENDBRANCH  24  25
ENDBRANCH   7  21
TORSDOF 8
ENDMDL
MODEL       49
REMARK 921   NORMALIZED FREE ENERGY PREDICTED BY IDOCK:   -6.40 KCAL/MOL
REMARK 922        TOTAL FREE ENERGY PREDICTED BY IDOCK:  -10.55 KCAL/MOL
REMARK 923 INTER-LIGAND FREE ENERGY PREDICTED BY IDOCK:   -9.72 KCAL/MOL
REMARK 924 INTRA-LIGAND FREE ENERGY PREDICTED BY IDOCK:   -0.84 KCAL/MOL
REMARK 927      BINDING AFFINITY PREDICTED BY RF-SCORE:    0.00 PKD
ROOT
HETATM    1  C   UNL     1     -11.471  11.366  68.463  1.00  0.00    -0.297 C  
HETATM    2  S   UNL     1     -10.392   9.987  68.187  1.00  0.00    -0.207 SA 
HETATM    3  C   UNL     1     -10.493   9.061  69.740  1.00  0.00    -0.218 C  
HETATM    4  C   UNL     1     -11.500   9.498  70.779  1.00  0.00    -0.378 C  
HETATM    5  O   UNL     1     -12.819  13.683  70.262  1.00  0.00    -0.164 OA 
HETATM    6  CA  UNL     1     -12.188  10.665  70.760  1.00  0.00    -0.375 C  
HETATM    7  CA  UNL     1     -11.168  12.940  68.433  1.00  0.00    -0.270 C  
HETATM    8  N   UNL     1     -11.954  11.588  69.792  1.00  0.00    -0.334 N  
HETATM    9  C   UNL     1     -13.159  10.966  71.869  1.00  0.00    -0.432 C  
HETATM   10  OXT UNL     1     -13.774  10.084  72.453  1.00  0.00    -0.297 OA 
HETATM   11  C   UNL     1     -12.220  12.898  69.589  1.00  0.00    -0.141 C  
HETATM   12  O   UNL     1     -13.351  12.250  72.208  1.00  0.00    -0.515 OA 
ENDROOT
BRANCH   4  13
HETATM   13  C   UNL     1     -11.516   8.522  71.965  1.00  0.00    -0.361 C  
BRANCH  13  14
HETATM   14  S   UNL     1     -12.084   6.902  71.374  1.00  0.00    -0.377 SA 
BRANCH  14  15
HETATM   15  C   UNL     1     -10.884   5.862  72.038  1.00  0.00    -0.252 A  
HETATM   16  N   UNL     1     -10.502   5.784  73.292  1.00  0.00    -0.217 NA 
HETATM   17  C   UNL     1     -10.138   4.777  69.878  1.00  0.00    -0.229 C  
HETATM   18  N   UNL     1      -9.420   4.929  73.296  1.00  0.00    -0.123 NA 
HETATM   19  N   UNL     1     -10.086   5.054  71.286  1.00  0.00    -0.199 NA 
HETATM   20  N   UNL     1      -9.156   4.483  72.074  1.00  0.00    -0.128 NA 
ENDBRANCH  14  15
ENDBRANCH  13  14
ENDBRANCH   4  13
BRANCH   7  21
HETATM   21  N   UNL     1      -9.978  13.816  68.848  1.00  0.00    -0.416 N  
HETATM   22  H   UNL     1      -9.823  13.801  69.856  1.00  0.00     0.000 HD 
HETATM   23  O   UNL     1      -8.172  15.179  68.859  1.00  0.00    -0.156 OA 
HETATM   24  C   UNL     1      -9.045  14.637  68.179  1.00  0.00    -0.187 C  
BRANCH  24  25
HETATM   25  C   UNL     1      -9.170  15.055  66.715  1.00  0.00    -0.257 C  
BRANCH  25  26
HETATM   26  C   UNL     1      -9.803  14.179  65.700  1.00  0.00    -0.249 A  
HETATM   27  H2  UNL     1     -13.071  12.782  63.351  1.00  0.00     0.000 HD 
HETATM   28  H1  UNL     1     -13.097  14.530  63.572  1.00  0.00     0.000 HD 
HETATM   29  C   UNL     1      -9.536  12.817  65.592  1.00  0.00    -0.042 A  
HETATM   30  N   UNL     1     -10.883  14.583  64.922  1.00  0.00    -0.408 NA 
HETATM   31  N   UNL     1     -12.639  13.631  63.717  1.00  0.00    -0.703 NA 
HETATM   32  S   UNL     1     -10.710  12.037  64.624  1.00  0.00    -0.328 SA 
HETATM   33  C   UNL     1     -11.478  13.545  64.380  1.00  0.00    -0.394 A  
ENDBRANCH  25  26
BRANCH  25  34
HETATM   34  N   UNL     1      -8.575  16.069  66.146  1.00  0.00    -0.330 NA 
HETATM   35  H   UNL     1      -7.779  15.863  65.542  1.00  0.00     0.000 HD 
BRANCH  34  36
HETATM   36  O   UNL     1      -8.934  17.416  66.293  1.00  0.00    -0.365 OA 
HETATM   37  C   UNL     1     -10.286  17.766  66.439  1.00  0.00    -0.365 C  
ENDBRANCH  34  36
ENDBRANCH  25  34
ENDBRANCH  24  25
ENDBRANCH   7  21
TORSDOF 8
ENDMDL
MODEL       50
REMARK 921   NORMALIZED FREE ENERGY PREDICTED BY IDOCK:   -6.39 KCAL/MOL
REMARK 922        TOTAL FREE ENERGY PREDICTED BY IDOCK:  -10.54 KCAL/MOL
REMARK 923 INTER-LIGAND FREE ENERGY PREDICTED BY IDOCK:   -9.25 KCAL/MOL
REMARK 924 INTRA-LIGAND FREE ENERGY PREDICTED BY IDOCK:   -1.29 KCAL/MOL
REMARK 927      BINDING AFFINITY PREDICTED BY RF-SCORE:    0.00 PKD
ROOT
HETATM    1  C   UNL     1     -10.673  11.417  66.659  1.00  0.00    -0.269 C  
HETATM    2  S   UNL     1     -11.847  12.415  65.785  1.00  0.00    -0.352 SA 
HETATM    3  C   UNL     1     -11.169  14.087  65.938  1.00  0.00    -0.308 C  
HETATM    4  C   UNL     1      -9.800  14.260  66.555  1.00  0.00    -0.299 C  
HETATM    5  O   UNL     1      -8.571  10.816  69.035  1.00  0.00    -0.163 OA 
HETATM    6  CA  UNL     1      -9.114  13.298  67.220  1.00  0.00    -0.221 C  
HETATM    7  CA  UNL     1     -10.869  10.462  67.932  1.00  0.00    -0.279 C  
HETATM    8  N   UNL     1      -9.672  12.081  67.439  1.00  0.00    -0.181 N  
HETATM    9  C   UNL     1      -7.757  13.618  67.785  1.00  0.00    -0.164 C  
HETATM   10  OXT UNL     1      -7.009  14.431  67.259  1.00  0.00    -0.209 OA 
HETATM   11  C   UNL     1      -9.438  11.014  68.237  1.00  0.00    -0.172 C  
HETATM   12  O   UNL     1      -7.369  12.974  68.896  1.00  0.00    -0.095 OA 
ENDROOT
BRANCH   4  13
HETATM   13  C   UNL     1      -9.354  15.728  66.487  1.00  0.00    -0.283 C  
BRANCH  13  14
HETATM   14  S   UNL     1     -10.321  16.684  67.690  1.00  0.00    -0.312 SA 
BRANCH  14  15
HETATM   15  C   UNL     1     -10.397  18.219  66.916  1.00  0.00    -0.385 A  
HETATM   16  N   UNL     1     -10.577  18.460  65.638  1.00  0.00    -0.596 NA 
HETATM   17  C   UNL     1      -9.937  19.651  68.951  1.00  0.00    -0.438 C  
HETATM   18  N   UNL     1     -10.406  19.820  65.490  1.00  0.00    -0.420 NA 
HETATM   19  N   UNL     1     -10.155  19.398  67.554  1.00  0.00    -0.372 NA 
HETATM   20  N   UNL     1     -10.143  20.400  66.656  1.00  0.00    -0.406 NA 
ENDBRANCH  14  15
ENDBRANCH  13  14
ENDBRANCH   4  13
BRANCH   7  21
HETATM   21  N   UNL     1     -11.729  10.523  69.201  1.00  0.00    -0.471 N  
HETATM   22  H   UNL     1     -12.473  11.216  69.127  1.00  0.00     0.000 HD 
HETATM   23  O   UNL     1     -12.640  10.151  71.238  1.00  0.00    -0.336 OA 
HETATM   24  C   UNL     1     -11.745   9.855  70.444  1.00  0.00    -0.258 C  
BRANCH  24  25
HETATM   25  C   UNL     1     -10.620   8.952  70.944  1.00  0.00    -0.233 C  
BRANCH  25  26
HETATM   26  C   UNL     1     -10.666   7.478  70.781  1.00  0.00    -0.229 A  
HETATM   27  H2  UNL     1      -9.933   3.466  72.011  1.00  0.00     0.000 HD 
HETATM   28  H1  UNL     1     -10.382   4.513  73.356  1.00  0.00     0.000 HD 
HETATM   29  C   UNL     1     -10.416   6.834  69.574  1.00  0.00    -0.220 A  
HETATM   30  N   UNL     1     -10.734   6.601  71.860  1.00  0.00    -0.219 NA 
HETATM   31  N   UNL     1     -10.227   4.380  72.357  1.00  0.00    -0.187 NA 
HETATM   32  S   UNL     1     -10.143   5.163  69.815  1.00  0.00    -0.276 SA 
HETATM   33  C   UNL     1     -10.403   5.386  71.490  1.00  0.00    -0.225 A  
ENDBRANCH  25  26
BRANCH  25  34
HETATM   34  N   UNL     1      -9.639   9.300  71.732  1.00  0.00    -0.248 NA 
HETATM   35  H   UNL     1      -9.859   9.945  72.492  1.00  0.00     0.000 HD 
BRANCH  34  36
HETATM   36  O   UNL     1      -8.310   8.867  71.626  1.00  0.00    -0.284 OA 
HETATM   37  C   UNL     1      -7.703   8.207  72.705  1.00  0.00    -0.136 C  
ENDBRANCH  34  36
ENDBRANCH  25  34
ENDBRANCH  24  25
ENDBRANCH   7  21
TORSDOF 8
ENDMDL
MODEL       51
REMARK 921   NORMALIZED FREE ENERGY PREDICTED BY IDOCK:   -6.38 KCAL/MOL
REMARK 922        TOTAL FREE ENERGY PREDICTED BY IDOCK:  -10.52 KCAL/MOL
REMARK 923 INTER-LIGAND FREE ENERGY PREDICTED BY IDOCK:   -9.11 KCAL/MOL
REMARK 924 INTRA-LIGAND FREE ENERGY PREDICTED BY IDOCK:   -1.41 KCAL/MOL
REMARK 927      BINDING AFFINITY PREDICTED BY RF-SCORE:    0.00 PKD
ROOT
HETATM    1  C   UNL     1     -11.259  10.914  67.592  1.00  0.00    -0.309 C  
HETATM    2  S   UNL     1     -11.281  11.742  69.158  1.00  0.00    -0.264 SA 
HETATM    3  C   UNL     1     -11.370  13.493  68.703  1.00  0.00    -0.288 C  
HETATM    4  C   UNL     1     -11.566  13.854  67.249  1.00  0.00    -0.393 C  
HETATM    5  O   UNL     1     -10.433  10.597  64.487  1.00  0.00    -0.345 OA 
HETATM    6  CA  UNL     1     -11.456  12.994  66.207  1.00  0.00    -0.337 C  
HETATM    7  CA  UNL     1     -10.166   9.927  66.958  1.00  0.00    -0.233 C  
HETATM    8  N   UNL     1     -11.079  11.706  66.413  1.00  0.00    -0.298 N  
HETATM    9  C   UNL     1     -11.677  13.499  64.808  1.00  0.00    -0.370 C  
HETATM   10  OXT UNL     1     -12.449  14.416  64.561  1.00  0.00    -0.608 OA 
HETATM   11  C   UNL     1     -10.624  10.676  65.664  1.00  0.00    -0.105 C  
HETATM   12  O   UNL     1     -11.005  12.906  63.809  1.00  0.00    -0.413 OA 
ENDROOT
BRANCH   4  13
HETATM   13  C   UNL     1     -11.735  15.372  67.083  1.00  0.00     0.040 C  
BRANCH  13  14
HETATM   14  S   UNL     1     -10.089  16.126  66.957  1.00  0.00    -0.276 SA 
BRANCH  14  15
HETATM   15  C   UNL     1     -10.476  17.666  66.291  1.00  0.00    -0.292 A  
HETATM   16  N   UNL     1     -11.035  17.914  65.130  1.00  0.00    -0.584 NA 
HETATM   17  C   UNL     1      -9.522  19.092  68.151  1.00  0.00    -0.342 C  
HETATM   18  N   UNL     1     -10.992  19.285  64.984  1.00  0.00    -0.210 NA 
HETATM   19  N   UNL     1     -10.124  18.848  66.870  1.00  0.00    -0.340 NA 
HETATM   20  N   UNL     1     -10.432  19.863  66.041  1.00  0.00    -0.495 NA 
ENDBRANCH  14  15
ENDBRANCH  13  14
ENDBRANCH   4  13
BRANCH   7  21
HETATM   21  N   UNL     1      -8.634   9.851  66.996  1.00  0.00    -0.128 N  
HETATM   22  H   UNL     1      -8.229   9.785  66.062  1.00  0.00     0.000 HD 
HETATM   23  O   UNL     1      -6.468   9.809  67.648  1.00  0.00    -0.066 OA 
HETATM   24  C   UNL     1      -7.646   9.848  68.005  1.00  0.00    -0.085 C  
BRANCH  24  25
HETATM   25  C   UNL     1      -7.946   9.684  69.494  1.00  0.00    -0.125 C  
BRANCH  25  26
HETATM   26  C   UNL     1      -8.952   8.714  69.989  1.00  0.00    -0.147 A  
HETATM   27  H2  UNL     1     -11.856   5.632  69.517  1.00  0.00     0.000 HD 
HETATM   28  H1  UNL     1     -10.492   5.449  68.417  1.00  0.00     0.000 HD 
HETATM   29  C   UNL     1      -9.872   9.011  70.990  1.00  0.00    -0.282 A  
HETATM   30  N   UNL     1      -9.221   7.510  69.346  1.00  0.00    -0.149 NA 
HETATM   31  N   UNL     1     -10.946   5.948  69.181  1.00  0.00    -0.341 NA 
HETATM   32  S   UNL     1     -11.128   7.852  71.032  1.00  0.00    -0.253 SA 
HETATM   33  C   UNL     1     -10.367   7.013  69.751  1.00  0.00    -0.212 A  
ENDBRANCH  25  26
BRANCH  25  34
HETATM   34  N   UNL     1      -7.555  10.477  70.454  1.00  0.00    -0.405 NA 
HETATM   35  H   UNL     1      -8.273  10.836  71.084  1.00  0.00     0.000 HD 
BRANCH  34  36
HETATM   36  O   UNL     1      -6.234  10.880  70.696  1.00  0.00    -0.289 OA 
HETATM   37  C   UNL     1      -5.798  12.140  70.258  1.00  0.00    -0.161 C  
ENDBRANCH  34  36
ENDBRANCH  25  34
ENDBRANCH  24  25
ENDBRANCH   7  21
TORSDOF 8
ENDMDL
MODEL       52
REMARK 921   NORMALIZED FREE ENERGY PREDICTED BY IDOCK:   -6.36 KCAL/MOL
REMARK 922        TOTAL FREE ENERGY PREDICTED BY IDOCK:  -10.50 KCAL/MOL
REMARK 923 INTER-LIGAND FREE ENERGY PREDICTED BY IDOCK:   -9.42 KCAL/MOL
REMARK 924 INTRA-LIGAND FREE ENERGY PREDICTED BY IDOCK:   -1.08 KCAL/MOL
REMARK 927      BINDING AFFINITY PREDICTED BY RF-SCORE:    0.00 PKD
ROOT
HETATM    1  C   UNL     1      -9.194  15.483  65.978  1.00  0.00    -0.326 C  
HETATM    2  S   UNL     1      -8.420  14.844  67.439  1.00  0.00    -0.209 SA 
HETATM    3  C   UNL     1      -9.580  13.575  68.005  1.00  0.00    -0.221 C  
HETATM    4  C   UNL     1     -10.757  13.224  67.125  1.00  0.00    -0.264 C  
HETATM    5  O   UNL     1     -11.730  16.385  64.195  1.00  0.00    -0.921 OA 
HETATM    6  CA  UNL     1     -11.163  13.933  66.043  1.00  0.00    -0.300 C  
HETATM    7  CA  UNL     1      -9.673  16.972  65.626  1.00  0.00     0.073 C  
HETATM    8  N   UNL     1     -10.546  15.094  65.708  1.00  0.00    -0.330 N  
HETATM    9  C   UNL     1     -12.359  13.463  65.261  1.00  0.00    -0.469 C  
HETATM   10  OXT UNL     1     -12.649  12.278  65.165  1.00  0.00    -0.585 OA 
HETATM   11  C   UNL     1     -10.803  16.159  64.915  1.00  0.00    -0.334 C  
HETATM   12  O   UNL     1     -13.115  14.386  64.649  1.00  0.00    -0.481 OA 
ENDROOT
BRANCH   4  13
HETATM   13  C   UNL     1     -11.550  12.051  67.719  1.00  0.00    -0.330 C  
BRANCH  13  14
HETATM   14  S   UNL     1     -10.389  10.929  68.548  1.00  0.00    -0.198 SA 
BRANCH  14  15
HETATM   15  C   UNL     1      -9.625  10.180  67.199  1.00  0.00    -0.169 A  
HETATM   16  N   UNL     1     -10.202   9.523  66.220  1.00  0.00    -0.255 NA 
HETATM   17  C   UNL     1      -7.229  10.664  67.852  1.00  0.00    -0.087 C  
HETATM   18  N   UNL     1      -9.171   8.985  65.478  1.00  0.00    -0.216 NA 
HETATM   19  N   UNL     1      -8.274  10.084  67.056  1.00  0.00    -0.117 NA 
HETATM   20  N   UNL     1      -7.990   9.319  65.986  1.00  0.00    -0.108 NA 
ENDBRANCH  14  15
ENDBRANCH  13  14
ENDBRANCH   4  13
BRANCH   7  21
HETATM   21  N   UNL     1     -10.291  18.123  66.431  1.00  0.00    -0.394 N  
HETATM   22  H   UNL     1     -11.275  18.264  66.206  1.00  0.00     0.000 HD 
HETATM   23  O   UNL     1     -10.652  19.827  67.874  1.00  0.00    -0.416 OA 
HETATM   24  C   UNL     1      -9.833  19.034  67.407  1.00  0.00    -0.324 C  
BRANCH  24  25
HETATM   25  C   UNL     1      -8.362  19.236  67.765  1.00  0.00    -0.300 C  
BRANCH  25  26
HETATM   26  C   UNL     1      -7.320  19.422  66.726  1.00  0.00    -0.220 A  
HETATM   27  H2  UNL     1      -5.838  20.889  63.011  1.00  0.00     0.000 HD 
HETATM   28  H1  UNL     1      -6.923  22.030  63.802  1.00  0.00     0.000 HD 
HETATM   29  C   UNL     1      -6.443  18.416  66.333  1.00  0.00    -0.200 A  
HETATM   30  N   UNL     1      -7.276  20.536  65.893  1.00  0.00    -0.158 NA 
HETATM   31  N   UNL     1      -6.420  21.143  63.809  1.00  0.00    -0.277 NA 
HETATM   32  S   UNL     1      -5.669  18.817  64.862  1.00  0.00    -0.246 SA 
HETATM   33  C   UNL     1      -6.512  20.304  64.850  1.00  0.00    -0.293 A  
ENDBRANCH  25  26
BRANCH  25  34
HETATM   34  N   UNL     1      -7.819  19.055  68.938  1.00  0.00    -0.326 NA 
HETATM   35  H   UNL     1      -8.380  18.574  69.642  1.00  0.00     0.000 HD 
BRANCH  34  36
HETATM   36  O   UNL     1      -6.533  19.466  69.317  1.00  0.00    -0.284 OA 
HETATM   37  C   UNL     1      -6.378  20.463  70.293  1.00  0.00    -0.133 C  
ENDBRANCH  34  36
ENDBRANCH  25  34
ENDBRANCH  24  25
ENDBRANCH   7  21
TORSDOF 8
ENDMDL
MODEL       53
REMARK 921   NORMALIZED FREE ENERGY PREDICTED BY IDOCK:   -6.31 KCAL/MOL
REMARK 922        TOTAL FREE ENERGY PREDICTED BY IDOCK:  -10.42 KCAL/MOL
REMARK 923 INTER-LIGAND FREE ENERGY PREDICTED BY IDOCK:   -9.14 KCAL/MOL
REMARK 924 INTRA-LIGAND FREE ENERGY PREDICTED BY IDOCK:   -1.28 KCAL/MOL
REMARK 927      BINDING AFFINITY PREDICTED BY RF-SCORE:    0.00 PKD
ROOT
HETATM    1  C   UNL     1     -11.025  11.709  66.452  1.00  0.00    -0.295 C  
HETATM    2  S   UNL     1     -12.230  12.635  65.540  1.00  0.00    -0.363 SA 
HETATM    3  C   UNL     1     -11.661  14.345  65.715  1.00  0.00    -0.353 C  
HETATM    4  C   UNL     1     -10.326  14.601  66.375  1.00  0.00    -0.293 C  
HETATM    5  O   UNL     1      -8.967  11.235  68.894  1.00  0.00    -0.142 OA 
HETATM    6  CA  UNL     1      -9.604  13.682  67.061  1.00  0.00    -0.251 C  
HETATM    7  CA  UNL     1     -11.202  10.742  67.718  1.00  0.00    -0.316 C  
HETATM    8  N   UNL     1     -10.092  12.432  67.263  1.00  0.00    -0.208 N  
HETATM    9  C   UNL     1      -8.288  14.083  67.669  1.00  0.00    -0.187 C  
HETATM   10  OXT UNL     1      -7.574  14.941  67.167  1.00  0.00    -0.200 OA 
HETATM   11  C   UNL     1      -9.819  11.380  68.069  1.00  0.00    -0.184 C  
HETATM   12  O   UNL     1      -7.896  13.463  68.793  1.00  0.00    -0.107 OA 
ENDROOT
BRANCH   4  13
HETATM   13  C   UNL     1      -9.969  16.093  66.320  1.00  0.00    -0.317 C  
BRANCH  13  14
HETATM   14  S   UNL     1     -10.659  16.908  67.788  1.00  0.00    -0.321 SA 
BRANCH  14  15
HETATM   15  C   UNL     1     -10.165  18.537  67.533  1.00  0.00    -0.385 A  
HETATM   16  N   UNL     1     -10.861  19.504  66.984  1.00  0.00    -0.477 NA 
HETATM   17  C   UNL     1      -7.798  18.315  68.399  1.00  0.00    -0.305 C  
HETATM   18  N   UNL     1      -9.988  20.565  66.861  1.00  0.00    -0.416 NA 
HETATM   19  N   UNL     1      -8.903  18.989  67.778  1.00  0.00    -0.289 NA 
HETATM   20  N   UNL     1      -8.788  20.256  67.340  1.00  0.00    -0.345 NA 
ENDBRANCH  14  15
ENDBRANCH  13  14
ENDBRANCH   4  13
BRANCH   7  21
HETATM   21  N   UNL     1     -12.105  10.747  68.959  1.00  0.00    -0.510 N  
HETATM   22  H   UNL     1     -12.826  11.466  68.906  1.00  0.00     0.000 HD 
HETATM   23  O   UNL     1     -13.096  10.275  70.937  1.00  0.00    -0.386 OA 
HETATM   24  C   UNL     1     -12.183  10.004  70.156  1.00  0.00    -0.046 C  
BRANCH  24  25
HETATM   25  C   UNL     1     -11.100   9.038  70.634  1.00  0.00    -0.265 C  
BRANCH  25  26
HETATM   26  C   UNL     1     -10.627   7.912  69.793  1.00  0.00    -0.242 A  
HETATM   27  H2  UNL     1      -8.631   6.220  66.431  1.00  0.00     0.000 HD 
HETATM   28  H1  UNL     1      -7.803   7.642  67.062  1.00  0.00     0.000 HD 
HETATM   29  C   UNL     1     -11.395   6.783  69.524  1.00  0.00    -0.237 A  
HETATM   30  N   UNL     1      -9.475   7.983  69.015  1.00  0.00    -0.151 NA 
HETATM   31  N   UNL     1      -8.561   6.963  67.127  1.00  0.00    -0.120 NA 
HETATM   32  S   UNL     1     -10.740   5.893  68.219  1.00  0.00    -0.215 SA 
HETATM   33  C   UNL     1      -9.468   7.031  68.111  1.00  0.00    -0.123 A  
ENDBRANCH  25  26
BRANCH  25  34
HETATM   34  N   UNL     1     -10.637   8.935  71.851  1.00  0.00    -0.348 NA 
HETATM   35  H   UNL     1      -9.764   9.422  72.059  1.00  0.00     0.000 HD 
BRANCH  34  36
HETATM   36  O   UNL     1     -11.231   8.213  72.895  1.00  0.00    -0.381 OA 
HETATM   37  C   UNL     1     -10.578   7.090  73.427  1.00  0.00    -0.364 C  
ENDBRANCH  34  36
ENDBRANCH  25  34
ENDBRANCH  24  25
ENDBRANCH   7  21
TORSDOF 8
ENDMDL
MODEL       54
REMARK 921   NORMALIZED FREE ENERGY PREDICTED BY IDOCK:   -6.30 KCAL/MOL
REMARK 922        TOTAL FREE ENERGY PREDICTED BY IDOCK:  -10.40 KCAL/MOL
REMARK 923 INTER-LIGAND FREE ENERGY PREDICTED BY IDOCK:   -8.63 KCAL/MOL
REMARK 924 INTRA-LIGAND FREE ENERGY PREDICTED BY IDOCK:   -1.77 KCAL/MOL
REMARK 927      BINDING AFFINITY PREDICTED BY RF-SCORE:    0.00 PKD
ROOT
HETATM    1  C   UNL     1      -8.072   8.671  70.890  1.00  0.00    -0.136 C  
HETATM    2  S   UNL     1      -7.302   8.409  69.316  1.00  0.00    -0.072 SA 
HETATM    3  C   UNL     1      -8.561   8.962  68.138  1.00  0.00    -0.130 C  
HETATM    4  C   UNL     1      -9.808   9.629  68.671  1.00  0.00    -0.171 C  
HETATM    5  O   UNL     1     -10.579   8.714  72.924  1.00  0.00    -0.036 OA 
HETATM    6  CA  UNL     1     -10.188   9.653  69.972  1.00  0.00    -0.255 C  
HETATM    7  CA  UNL     1      -8.408   7.632  72.064  1.00  0.00    -0.110 C  
HETATM    8  N   UNL     1      -9.468   8.990  70.912  1.00  0.00    -0.244 N  
HETATM    9  C   UNL     1     -11.461  10.356  70.355  1.00  0.00    -0.337 C  
HETATM   10  OXT UNL     1     -11.877  11.329  69.741  1.00  0.00    -0.301 OA 
HETATM   11  C   UNL     1      -9.649   8.576  72.187  1.00  0.00    -0.312 C  
HETATM   12  O   UNL     1     -12.144   9.893  71.413  1.00  0.00    -0.360 OA 
ENDROOT
BRANCH   4  13
HETATM   13  C   UNL     1     -10.692  10.130  67.519  1.00  0.00    -0.290 C  
BRANCH  13  14
HETATM   14  S   UNL     1     -10.051  11.731  66.953  1.00  0.00    -0.210 SA 
BRANCH  14  15
HETATM   15  C   UNL     1     -11.428  12.379  66.148  1.00  0.00    -0.379 A  
HETATM   16  N   UNL     1     -12.074  11.860  65.131  1.00  0.00    -0.295 NA 
HETATM   17  C   UNL     1     -11.603  14.538  67.457  1.00  0.00    -0.381 C  
HETATM   18  N   UNL     1     -12.993  12.816  64.750  1.00  0.00    -0.844 NA 
HETATM   19  N   UNL     1     -11.950  13.608  66.418  1.00  0.00    -0.403 NA 
HETATM   20  N   UNL     1     -12.920  13.889  65.528  1.00  0.00    -0.697 NA 
ENDBRANCH  14  15
ENDBRANCH  13  14
ENDBRANCH   4  13
BRANCH   7  21
HETATM   21  N   UNL     1      -8.865   6.168  72.109  1.00  0.00    -0.138 N  
HETATM   22  H   UNL     1      -8.246   5.590  72.678  1.00  0.00     0.000 HD 
HETATM   23  O   UNL     1     -10.000   4.228  71.848  1.00  0.00    -0.174 OA 
HETATM   24  C   UNL     1      -9.929   5.423  71.556  1.00  0.00    -0.181 C  
BRANCH  24  25
HETATM   25  C   UNL     1     -10.866   5.948  70.470  1.00  0.00    -0.296 C  
BRANCH  25  26
HETATM   26  C   UNL     1     -10.576   5.763  69.028  1.00  0.00    -0.281 A  
HETATM   27  H2  UNL     1      -7.996   5.251  65.676  1.00  0.00     0.000 HD 
HETATM   28  H1  UNL     1      -7.420   4.399  67.107  1.00  0.00     0.000 HD 
HETATM   29  C   UNL     1     -11.256   6.437  68.018  1.00  0.00    -0.155 A  
HETATM   30  N   UNL     1      -9.454   5.081  68.564  1.00  0.00    -0.130 NA 
HETATM   31  N   UNL     1      -8.129   4.971  66.648  1.00  0.00    -0.107 NA 
HETATM   32  S   UNL     1     -10.420   6.319  66.531  1.00  0.00    -0.041 SA 
HETATM   33  C   UNL     1      -9.232   5.360  67.300  1.00  0.00    -0.111 A  
ENDBRANCH  25  26
BRANCH  25  34
HETATM   34  N   UNL     1     -11.863   6.773  70.640  1.00  0.00    -0.412 NA 
HETATM   35  H   UNL     1     -11.944   7.548  69.980  1.00  0.00     0.000 HD 
BRANCH  34  36
HETATM   36  O   UNL     1     -12.831   6.690  71.650  1.00  0.00    -0.323 OA 
HETATM   37  C   UNL     1     -14.100   7.255  71.448  1.00  0.00    -0.319 C  
ENDBRANCH  34  36
ENDBRANCH  25  34
ENDBRANCH  24  25
ENDBRANCH   7  21
TORSDOF 8
ENDMDL
MODEL       55
REMARK 921   NORMALIZED FREE ENERGY PREDICTED BY IDOCK:   -6.24 KCAL/MOL
REMARK 922        TOTAL FREE ENERGY PREDICTED BY IDOCK:  -10.31 KCAL/MOL
REMARK 923 INTER-LIGAND FREE ENERGY PREDICTED BY IDOCK:   -9.33 KCAL/MOL
REMARK 924 INTRA-LIGAND FREE ENERGY PREDICTED BY IDOCK:   -0.98 KCAL/MOL
REMARK 927      BINDING AFFINITY PREDICTED BY RF-SCORE:    0.00 PKD
ROOT
HETATM    1  C   UNL     1     -11.365  11.842  63.748  1.00  0.00    -0.438 C  
HETATM    2  S   UNL     1      -9.773  11.405  63.103  1.00  0.00    -0.372 SA 
HETATM    3  C   UNL     1      -8.826  10.975  64.586  1.00  0.00    -0.013 C  
HETATM    4  C   UNL     1      -9.548  10.906  65.912  1.00  0.00    -0.257 C  
HETATM    5  O   UNL     1     -13.355  13.149  65.928  1.00  0.00     0.072 OA 
HETATM    6  CA  UNL     1     -10.804  11.361  66.143  1.00  0.00    -0.255 C  
HETATM    7  CA  UNL     1     -12.187  13.214  63.636  1.00  0.00    -0.479 C  
HETATM    8  N   UNL     1     -11.499  11.996  65.165  1.00  0.00    -0.313 N  
HETATM    9  C   UNL     1     -11.394  11.227  67.520  1.00  0.00    -0.288 C  
HETATM   10  OXT UNL     1     -11.098  10.305  68.268  1.00  0.00    -0.261 OA 
HETATM   11  C   UNL     1     -12.597  12.780  65.081  1.00  0.00    -0.444 C  
HETATM   12  O   UNL     1     -12.278  12.154  67.921  1.00  0.00    -0.438 OA 
ENDROOT
BRANCH   4  13
HETATM   13  C   UNL     1      -8.606  10.412  67.019  1.00  0.00    -0.130 C  
BRANCH  13  14
HETATM   14  S   UNL     1      -7.981   8.771  66.558  1.00  0.00    -0.104 SA 
BRANCH  14  15
HETATM   15  C   UNL     1      -9.188   7.749  67.236  1.00  0.00    -0.139 A  
HETATM   16  N   UNL     1     -10.257   7.274  66.641  1.00  0.00    -0.204 NA 
HETATM   17  C   UNL     1      -8.268   7.653  69.592  1.00  0.00    -0.128 C  
HETATM   18  N   UNL     1     -10.983   6.646  67.632  1.00  0.00    -0.310 NA 
HETATM   19  N   UNL     1      -9.226   7.399  68.552  1.00  0.00    -0.143 NA 
HETATM   20  N   UNL     1     -10.363   6.723  68.803  1.00  0.00    -0.185 NA 
ENDBRANCH  14  15
ENDBRANCH  13  14
ENDBRANCH   4  13
BRANCH   7  21
HETATM   21  N   UNL     1     -11.805  14.700  63.630  1.00  0.00    -0.605 N  
HETATM   22  H   UNL     1     -11.875  15.111  62.700  1.00  0.00     0.000 HD 
HETATM   23  O   UNL     1     -11.194  16.797  64.219  1.00  0.00    -1.163 OA 
HETATM   24  C   UNL     1     -11.381  15.639  64.595  1.00  0.00    -0.349 C  
BRANCH  24  25
HETATM   25  C   UNL     1     -10.946  15.271  66.013  1.00  0.00    -0.317 C  
BRANCH  25  26
HETATM   26  C   UNL     1      -9.519  15.098  66.375  1.00  0.00    -0.296 A  
HETATM   27  H2  UNL     1      -6.330  13.583  68.760  1.00  0.00     0.000 HD 
HETATM   28  H1  UNL     1      -7.641  12.421  68.568  1.00  0.00     0.000 HD 
HETATM   29  C   UNL     1      -8.586  16.130  66.322  1.00  0.00    -0.338 A  
HETATM   30  N   UNL     1      -9.034  13.962  67.016  1.00  0.00    -0.237 NA 
HETATM   31  N   UNL     1      -7.231  13.329  68.352  1.00  0.00    -0.101 NA 
HETATM   32  S   UNL     1      -7.166  15.718  67.180  1.00  0.00    -0.173 SA 
HETATM   33  C   UNL     1      -7.854  14.195  67.542  1.00  0.00    -0.192 A  
ENDBRANCH  25  26
BRANCH  25  34
HETATM   34  N   UNL     1     -11.723  14.860  66.979  1.00  0.00    -0.314 NA 
HETATM   35  H   UNL     1     -12.102  13.916  66.902  1.00  0.00     0.000 HD 
BRANCH  34  36
HETATM   36  O   UNL     1     -12.081  15.603  68.112  1.00  0.00    -0.088 OA 
HETATM   37  C   UNL     1     -11.819  15.092  69.393  1.00  0.00    -0.329 C  
ENDBRANCH  34  36
ENDBRANCH  25  34
ENDBRANCH  24  25
ENDBRANCH   7  21
TORSDOF 8
ENDMDL
MODEL       56
REMARK 921   NORMALIZED FREE ENERGY PREDICTED BY IDOCK:   -6.23 KCAL/MOL
REMARK 922        TOTAL FREE ENERGY PREDICTED BY IDOCK:  -10.29 KCAL/MOL
REMARK 923 INTER-LIGAND FREE ENERGY PREDICTED BY IDOCK:   -8.38 KCAL/MOL
REMARK 924 INTRA-LIGAND FREE ENERGY PREDICTED BY IDOCK:   -1.92 KCAL/MOL
REMARK 927      BINDING AFFINITY PREDICTED BY RF-SCORE:    0.00 PKD
ROOT
HETATM    1  C   UNL     1     -10.976  10.024  70.716  1.00  0.00    -0.305 C  
HETATM    2  S   UNL     1     -12.568   9.369  71.135  1.00  0.00    -0.247 SA 
HETATM    3  C   UNL     1     -12.176   8.013  72.269  1.00  0.00    -0.318 C  
HETATM    4  C   UNL     1     -10.746   7.840  72.725  1.00  0.00    -0.417 C  
HETATM    5  O   UNL     1      -7.826   9.792  70.044  1.00  0.00    -0.146 OA 
HETATM    6  CA  UNL     1      -9.672   8.468  72.187  1.00  0.00    -0.317 C  
HETATM    7  CA  UNL     1     -10.258  10.170  69.290  1.00  0.00    -0.223 C  
HETATM    8  N   UNL     1      -9.817   9.280  71.109  1.00  0.00    -0.290 N  
HETATM    9  C   UNL     1      -8.302   8.194  72.745  1.00  0.00    -0.181 C  
HETATM   10  OXT UNL     1      -8.123   7.914  73.922  1.00  0.00    -0.172 OA 
HETATM   11  C   UNL     1      -9.013   9.840  70.177  1.00  0.00    -0.195 C  
HETATM   12  O   UNL     1      -7.253   8.273  71.911  1.00  0.00    -0.077 OA 
ENDROOT
BRANCH   4  13
HETATM   13  C   UNL     1     -10.639   6.720  73.770  1.00  0.00    -0.295 C  
BRANCH  13  14
HETATM   14  S   UNL     1     -11.014   5.138  72.962  1.00  0.00    -0.315 SA 
BRANCH  14  15
HETATM   15  C   UNL     1      -9.601   4.905  72.007  1.00  0.00    -0.154 A  
HETATM   16  N   UNL     1      -8.416   4.519  72.419  1.00  0.00    -0.109 NA 
HETATM   17  C   UNL     1     -10.561   5.651  69.788  1.00  0.00    -0.329 C  
HETATM   18  N   UNL     1      -7.588   4.633  71.322  1.00  0.00    -0.077 NA 
HETATM   19  N   UNL     1      -9.524   5.219  70.684  1.00  0.00    -0.161 NA 
HETATM   20  N   UNL     1      -8.256   5.066  70.259  1.00  0.00    -0.087 NA 
ENDBRANCH  14  15
ENDBRANCH  13  14
ENDBRANCH   4  13
BRANCH   7  21
HETATM   21  N   UNL     1     -10.222   9.322  68.011  1.00  0.00    -0.198 N  
HETATM   22  H   UNL     1     -10.348   8.329  68.205  1.00  0.00     0.000 HD 
HETATM   23  O   UNL     1     -10.122   8.617  65.864  1.00  0.00    -0.102 OA 
HETATM   24  C   UNL     1     -10.057   9.578  66.633  1.00  0.00    -0.252 C  
BRANCH  24  25
HETATM   25  C   UNL     1      -9.603  10.919  66.061  1.00  0.00    -0.209 C  
BRANCH  25  26
HETATM   26  C   UNL     1     -10.523  11.797  65.297  1.00  0.00    -0.274 A  
HETATM   27  H2  UNL     1     -13.944  14.297  64.853  1.00  0.00     0.000 HD 
HETATM   28  H1  UNL     1     -13.158  14.499  66.417  1.00  0.00     0.000 HD 
HETATM   29  C   UNL     1     -10.920  11.534  63.989  1.00  0.00    -0.383 A  
HETATM   30  N   UNL     1     -11.247  12.828  65.887  1.00  0.00    -0.290 NA 
HETATM   31  N   UNL     1     -13.183  14.068  65.493  1.00  0.00    -0.633 NA 
HETATM   32  S   UNL     1     -12.274  12.486  63.557  1.00  0.00    -0.524 SA 
HETATM   33  C   UNL     1     -12.232  13.208  65.106  1.00  0.00    -0.450 A  
ENDBRANCH  25  26
BRANCH  25  34
HETATM   34  N   UNL     1      -8.373  11.347  65.971  1.00  0.00    -0.351 NA 
HETATM   35  H   UNL     1      -7.987  11.462  65.033  1.00  0.00     0.000 HD 
BRANCH  34  36
HETATM   36  O   UNL     1      -7.535  11.661  67.049  1.00  0.00    -0.141 OA 
HETATM   37  C   UNL     1      -7.845  12.750  67.879  1.00  0.00    -0.156 C  
ENDBRANCH  34  36
ENDBRANCH  25  34
ENDBRANCH  24  25
ENDBRANCH   7  21
TORSDOF 8
ENDMDL
MODEL       57
REMARK 921   NORMALIZED FREE ENERGY PREDICTED BY IDOCK:   -6.15 KCAL/MOL
REMARK 922        TOTAL FREE ENERGY PREDICTED BY IDOCK:  -10.18 KCAL/MOL
REMARK 923 INTER-LIGAND FREE ENERGY PREDICTED BY IDOCK:   -8.35 KCAL/MOL
REMARK 924 INTRA-LIGAND FREE ENERGY PREDICTED BY IDOCK:   -1.83 KCAL/MOL
REMARK 927      BINDING AFFINITY PREDICTED BY RF-SCORE:    0.00 PKD
ROOT
HETATM    1  C   UNL     1      -7.451  11.171  68.693  1.00  0.00    -0.119 C  
HETATM    2  S   UNL     1      -7.469  12.328  67.351  1.00  0.00    -0.157 SA 
HETATM    3  C   UNL     1      -9.235  12.568  67.030  1.00  0.00    -0.214 C  
HETATM    4  C   UNL     1     -10.234  11.945  67.977  1.00  0.00    -0.199 C  
HETATM    5  O   UNL     1      -8.542   8.615  70.336  1.00  0.00    -0.134 OA 
HETATM    6  CA  UNL     1      -9.943  11.024  68.928  1.00  0.00    -0.188 C  
HETATM    7  CA  UNL     1      -6.799   9.710  68.792  1.00  0.00    -0.051 C  
HETATM    8  N   UNL     1      -8.683  10.533  69.049  1.00  0.00    -0.154 N  
HETATM    9  C   UNL     1     -11.046  10.489  69.799  1.00  0.00    -0.295 C  
HETATM   10  OXT UNL     1     -12.021  11.164  70.102  1.00  0.00    -0.303 OA 
HETATM   11  C   UNL     1      -8.085   9.481  69.651  1.00  0.00    -0.128 C  
HETATM   12  O   UNL     1     -10.936   9.233  70.257  1.00  0.00    -0.230 OA 
ENDROOT
BRANCH   4  13
HETATM   13  C   UNL     1     -11.666  12.359  67.607  1.00  0.00    -0.346 C  
BRANCH  13  14
HETATM   14  S   UNL     1     -11.769  14.172  67.634  1.00  0.00    -0.401 SA 
BRANCH  14  15
HETATM   15  C   UNL     1     -12.101  14.514  65.980  1.00  0.00    -0.287 A  
HETATM   16  N   UNL     1     -12.954  13.899  65.195  1.00  0.00    -0.773 NA 
HETATM   17  C   UNL     1     -10.395  16.355  65.663  1.00  0.00    -0.350 C  
HETATM   18  N   UNL     1     -12.746  14.426  63.937  1.00  0.00    -0.721 NA 
HETATM   19  N   UNL     1     -11.404  15.423  65.243  1.00  0.00    -0.288 NA 
HETATM   20  N   UNL     1     -11.796  15.354  63.957  1.00  0.00    -0.398 NA 
ENDBRANCH  14  15
ENDBRANCH  13  14
ENDBRANCH   4  13
BRANCH   7  21
HETATM   21  N   UNL     1      -6.616   8.543  67.811  1.00  0.00    -0.061 N  
HETATM   22  H   UNL     1      -5.672   8.159  67.843  1.00  0.00     0.000 HD 
HETATM   23  O   UNL     1      -6.938   6.920  66.269  1.00  0.00    -0.065 OA 
HETATM   24  C   UNL     1      -7.432   7.871  66.876  1.00  0.00    -0.091 C  
BRANCH  24  25
HETATM   25  C   UNL     1      -8.804   8.370  66.425  1.00  0.00    -0.153 C  
BRANCH  25  26
HETATM   26  C   UNL     1      -8.954   9.438  65.408  1.00  0.00    -0.206 A  
HETATM   27  H2  UNL     1     -11.149  11.759  62.588  1.00  0.00     0.000 HD 
HETATM   28  H1  UNL     1     -12.099  11.356  64.017  1.00  0.00     0.000 HD 
HETATM   29  C   UNL     1      -8.002   9.700  64.427  1.00  0.00    -0.138 A  
HETATM   30  N   UNL     1     -10.151  10.117  65.197  1.00  0.00    -0.312 NA 
HETATM   31  N   UNL     1     -11.214  11.328  63.511  1.00  0.00    -0.249 NA 
HETATM   32  S   UNL     1      -8.651  10.686  63.190  1.00  0.00    -0.145 SA 
HETATM   33  C   UNL     1     -10.135  10.734  64.038  1.00  0.00    -0.345 A  
ENDBRANCH  25  26
BRANCH  25  34
HETATM   34  N   UNL     1      -9.949   8.108  66.995  1.00  0.00    -0.231 NA 
HETATM   35  H   UNL     1     -10.361   8.842  67.572  1.00  0.00     0.000 HD 
BRANCH  34  36
HETATM   36  O   UNL     1     -10.663   6.907  66.884  1.00  0.00    -0.318 OA 
HETATM   37  C   UNL     1     -10.939   6.151  68.035  1.00  0.00    -0.305 C  
ENDBRANCH  34  36
ENDBRANCH  25  34
ENDBRANCH  24  25
ENDBRANCH   7  21
TORSDOF 8
ENDMDL
MODEL       58
REMARK 921   NORMALIZED FREE ENERGY PREDICTED BY IDOCK:   -6.14 KCAL/MOL
REMARK 922        TOTAL FREE ENERGY PREDICTED BY IDOCK:  -10.16 KCAL/MOL
REMARK 923 INTER-LIGAND FREE ENERGY PREDICTED BY IDOCK:   -8.48 KCAL/MOL
REMARK 924 INTRA-LIGAND FREE ENERGY PREDICTED BY IDOCK:   -1.69 KCAL/MOL
REMARK 927      BINDING AFFINITY PREDICTED BY RF-SCORE:    0.00 PKD
ROOT
HETATM    1  C   UNL     1     -10.918   9.893  70.786  1.00  0.00    -0.337 C  
HETATM    2  S   UNL     1     -12.505   9.234  71.217  1.00  0.00    -0.300 SA 
HETATM    3  C   UNL     1     -12.102   7.901  72.375  1.00  0.00    -0.286 C  
HETATM    4  C   UNL     1     -10.670   7.746  72.832  1.00  0.00    -0.446 C  
HETATM    5  O   UNL     1      -7.768   9.672  70.114  1.00  0.00    -0.135 OA 
HETATM    6  CA  UNL     1      -9.601   8.372  72.281  1.00  0.00    -0.304 C  
HETATM    7  CA  UNL     1     -10.203  10.019  69.356  1.00  0.00    -0.222 C  
HETATM    8  N   UNL     1      -9.753   9.165  71.190  1.00  0.00    -0.290 N  
HETATM    9  C   UNL     1      -8.229   8.118  72.842  1.00  0.00    -0.175 C  
HETATM   10  OXT UNL     1      -8.047   7.860  74.025  1.00  0.00    -0.180 OA 
HETATM   11  C   UNL     1      -8.955   9.714  70.247  1.00  0.00    -0.219 C  
HETATM   12  O   UNL     1      -7.182   8.190  72.006  1.00  0.00    -0.076 OA 
ENDROOT
BRANCH   4  13
HETATM   13  C   UNL     1     -10.554   6.645  73.896  1.00  0.00    -0.242 C  
BRANCH  13  14
HETATM   14  S   UNL     1     -10.935   5.049  73.120  1.00  0.00    -0.331 SA 
BRANCH  14  15
HETATM   15  C   UNL     1      -9.547   4.818  72.128  1.00  0.00    -0.153 A  
HETATM   16  N   UNL     1      -8.344   4.460  72.511  1.00  0.00    -0.107 NA 
HETATM   17  C   UNL     1     -10.586   5.500  69.923  1.00  0.00    -0.317 C  
HETATM   18  N   UNL     1      -7.552   4.564  71.387  1.00  0.00    -0.071 NA 
HETATM   19  N   UNL     1      -9.516   5.104  70.796  1.00  0.00    -0.159 NA 
HETATM   20  N   UNL     1      -8.259   4.962  70.336  1.00  0.00    -0.086 NA 
ENDBRANCH  14  15
ENDBRANCH  13  14
ENDBRANCH   4  13
BRANCH   7  21
HETATM   21  N   UNL     1     -10.162   9.149  68.092  1.00  0.00    -0.198 N  
HETATM   22  H   UNL     1     -10.159   8.153  68.311  1.00  0.00     0.000 HD 
HETATM   23  O   UNL     1     -10.137   8.408  65.955  1.00  0.00    -0.104 OA 
HETATM   24  C   UNL     1     -10.127   9.388  66.702  1.00  0.00    -0.262 C  
BRANCH  24  25
HETATM   25  C   UNL     1      -9.872  10.758  66.075  1.00  0.00    -0.235 C  
BRANCH  25  26
HETATM   26  C   UNL     1     -10.970  11.723  65.828  1.00  0.00    -0.301 A  
HETATM   27  H2  UNL     1     -13.077  14.613  63.512  1.00  0.00     0.000 HD 
HETATM   28  H1  UNL     1     -12.414  13.311  62.526  1.00  0.00     0.000 HD 
HETATM   29  C   UNL     1     -11.462  12.588  66.800  1.00  0.00    -0.362 A  
HETATM   30  N   UNL     1     -11.446  12.013  64.553  1.00  0.00    -0.327 NA 
HETATM   31  N   UNL     1     -12.575  13.727  63.444  1.00  0.00    -0.789 NA 
HETATM   32  S   UNL     1     -12.409  13.826  66.098  1.00  0.00    -0.428 SA 
HETATM   33  C   UNL     1     -12.139  13.129  64.560  1.00  0.00    -0.404 A  
ENDBRANCH  25  26
BRANCH  25  34
HETATM   34  N   UNL     1      -8.768  11.153  65.500  1.00  0.00    -0.337 NA 
HETATM   35  H   UNL     1      -8.375  12.042  65.810  1.00  0.00     0.000 HD 
BRANCH  34  36
HETATM   36  O   UNL     1      -8.077  10.464  64.495  1.00  0.00    -0.164 OA 
HETATM   37  C   UNL     1      -6.839   9.866  64.783  1.00  0.00    -0.129 C  
ENDBRANCH  34  36
ENDBRANCH  25  34
ENDBRANCH  24  25
ENDBRANCH   7  21
TORSDOF 8
ENDMDL
MODEL       59
REMARK 921   NORMALIZED FREE ENERGY PREDICTED BY IDOCK:   -6.13 KCAL/MOL
REMARK 922        TOTAL FREE ENERGY PREDICTED BY IDOCK:  -10.16 KCAL/MOL
REMARK 923 INTER-LIGAND FREE ENERGY PREDICTED BY IDOCK:   -8.67 KCAL/MOL
REMARK 924 INTRA-LIGAND FREE ENERGY PREDICTED BY IDOCK:   -1.50 KCAL/MOL
REMARK 927      BINDING AFFINITY PREDICTED BY RF-SCORE:    0.00 PKD
ROOT
HETATM    1  C   UNL     1      -8.919   6.280  68.567  1.00  0.00    -0.123 C  
HETATM    2  S   UNL     1     -10.659   6.466  68.294  1.00  0.00    -0.286 SA 
HETATM    3  C   UNL     1     -10.754   7.855  67.136  1.00  0.00    -0.236 C  
HETATM    4  C   UNL     1      -9.471   8.404  66.556  1.00  0.00    -0.284 C  
HETATM    5  O   UNL     1      -5.908   7.378  68.960  1.00  0.00    -0.021 OA 
HETATM    6  CA  UNL     1      -8.223   8.104  66.995  1.00  0.00    -0.115 C  
HETATM    7  CA  UNL     1      -8.068   6.364  69.923  1.00  0.00    -0.121 C  
HETATM    8  N   UNL     1      -8.046   7.304  68.077  1.00  0.00    -0.119 N  
HETATM    9  C   UNL     1      -7.035   8.732  66.320  1.00  0.00    -0.081 C  
HETATM   10  OXT UNL     1      -7.042   9.028  65.132  1.00  0.00    -0.085 OA 
HETATM   11  C   UNL     1      -7.043   7.004  68.932  1.00  0.00    -0.085 C  
HETATM   12  O   UNL     1      -5.937   8.959  67.057  1.00  0.00    -0.054 OA 
ENDROOT
BRANCH   4  13
HETATM   13  C   UNL     1      -9.766   9.490  65.512  1.00  0.00    -0.273 C  
BRANCH  13  14
HETATM   14  S   UNL     1      -9.881  11.091  66.360  1.00  0.00    -0.220 SA 
BRANCH  14  15
HETATM   15  C   UNL     1     -11.135  11.857  65.463  1.00  0.00    -0.304 A  
HETATM   16  N   UNL     1     -12.319  12.220  65.898  1.00  0.00    -0.519 NA 
HETATM   17  C   UNL     1      -9.982  11.874  63.211  1.00  0.00    -0.380 C  
HETATM   18  N   UNL     1     -13.010  12.640  64.781  1.00  0.00    -0.867 NA 
HETATM   19  N   UNL     1     -11.075  12.076  64.120  1.00  0.00    -0.339 NA 
HETATM   20  N   UNL     1     -12.259  12.551  63.690  1.00  0.00    -0.546 NA 
ENDBRANCH  14  15
ENDBRANCH  13  14
ENDBRANCH   4  13
BRANCH   7  21
HETATM   21  N   UNL     1      -8.156   7.214  71.198  1.00  0.00    -0.103 N  
HETATM   22  H   UNL     1      -7.249   7.319  71.652  1.00  0.00     0.000 HD 
HETATM   23  O   UNL     1      -8.864   8.521  72.904  1.00  0.00    -0.320 OA 
HETATM   24  C   UNL     1      -9.182   7.885  71.897  1.00  0.00    -0.154 C  
BRANCH  24  25
HETATM   25  C   UNL     1     -10.671   7.707  71.608  1.00  0.00    -0.211 C  
BRANCH  25  26
HETATM   26  C   UNL     1     -11.544   8.853  71.256  1.00  0.00    -0.304 A  
HETATM   27  H2  UNL     1     -12.314  12.740  69.692  1.00  0.00     0.000 HD 
HETATM   28  H1  UNL     1     -11.086  11.873  68.771  1.00  0.00     0.000 HD 
HETATM   29  C   UNL     1     -12.577   9.306  72.070  1.00  0.00    -0.390 A  
HETATM   30  N   UNL     1     -11.267   9.717  70.200  1.00  0.00    -0.253 NA 
HETATM   31  N   UNL     1     -11.768  11.893  69.529  1.00  0.00    -0.322 NA 
HETATM   32  S   UNL     1     -13.103  10.859  71.587  1.00  0.00    -0.377 SA 
HETATM   33  C   UNL     1     -11.960  10.826  70.315  1.00  0.00    -0.351 A  
ENDBRANCH  25  26
BRANCH  25  34
HETATM   34  N   UNL     1     -11.382   6.636  71.839  1.00  0.00    -0.265 NA 
HETATM   35  H   UNL     1     -12.395   6.751  71.886  1.00  0.00     0.000 HD 
BRANCH  34  36
HETATM   36  O   UNL     1     -10.876   5.343  72.027  1.00  0.00    -0.231 OA 
HETATM   37  C   UNL     1     -11.167   4.646  73.210  1.00  0.00    -0.325 C  
ENDBRANCH  34  36
ENDBRANCH  25  34
ENDBRANCH  24  25
ENDBRANCH   7  21
TORSDOF 8
ENDMDL
MODEL       60
REMARK 921   NORMALIZED FREE ENERGY PREDICTED BY IDOCK:   -6.12 KCAL/MOL
REMARK 922        TOTAL FREE ENERGY PREDICTED BY IDOCK:  -10.15 KCAL/MOL
REMARK 923 INTER-LIGAND FREE ENERGY PREDICTED BY IDOCK:   -8.66 KCAL/MOL
REMARK 924 INTRA-LIGAND FREE ENERGY PREDICTED BY IDOCK:   -1.49 KCAL/MOL
REMARK 927      BINDING AFFINITY PREDICTED BY RF-SCORE:    0.00 PKD
ROOT
HETATM    1  C   UNL     1      -8.637   6.682  68.443  1.00  0.00    -0.124 C  
HETATM    2  S   UNL     1     -10.384   6.630  68.148  1.00  0.00    -0.211 SA 
HETATM    3  C   UNL     1     -10.661   8.034  67.039  1.00  0.00    -0.294 C  
HETATM    4  C   UNL     1      -9.462   8.780  66.501  1.00  0.00    -0.281 C  
HETATM    5  O   UNL     1      -5.818   8.179  68.926  1.00  0.00    -0.034 OA 
HETATM    6  CA  UNL     1      -8.190   8.644  66.949  1.00  0.00    -0.105 C  
HETATM    7  CA  UNL     1      -7.823   6.834  69.816  1.00  0.00    -0.115 C  
HETATM    8  N   UNL     1      -7.914   7.837  68.005  1.00  0.00    -0.120 N  
HETATM    9  C   UNL     1      -7.095   9.458  66.317  1.00  0.00    -0.088 C  
HETATM   10  OXT UNL     1      -7.130   9.794  65.140  1.00  0.00    -0.108 OA 
HETATM   11  C   UNL     1      -6.888   7.650  68.865  1.00  0.00    -0.061 C  
HETATM   12  O   UNL     1      -6.049   9.810  67.080  1.00  0.00    -0.061 OA 
ENDROOT
BRANCH   4  13
HETATM   13  C   UNL     1      -9.897   9.853  65.491  1.00  0.00    -0.311 C  
BRANCH  13  14
HETATM   14  S   UNL     1     -10.460  11.315  66.407  1.00  0.00    -0.264 SA 
BRANCH  14  15
HETATM   15  C   UNL     1     -11.443  12.093  65.227  1.00  0.00    -0.336 A  
HETATM   16  N   UNL     1     -11.639  11.722  63.983  1.00  0.00    -0.361 NA 
HETATM   17  C   UNL     1     -12.158  14.073  66.629  1.00  0.00    -0.456 C  
HETATM   18  N   UNL     1     -12.367  12.740  63.404  1.00  0.00    -0.700 NA 
HETATM   19  N   UNL     1     -12.059  13.290  65.429  1.00  0.00    -0.395 NA 
HETATM   20  N   UNL     1     -12.623  13.705  64.280  1.00  0.00    -0.664 NA 
ENDBRANCH  14  15
ENDBRANCH  13  14
ENDBRANCH   4  13
BRANCH   7  21
HETATM   21  N   UNL     1      -8.045   7.615  71.119  1.00  0.00    -0.097 N  
HETATM   22  H   UNL     1      -7.178   8.010  71.482  1.00  0.00     0.000 HD 
HETATM   23  O   UNL     1      -8.953   8.629  72.926  1.00  0.00    -0.343 OA 
HETATM   24  C   UNL     1      -9.153   7.921  71.938  1.00  0.00    -0.146 C  
BRANCH  24  25
HETATM   25  C   UNL     1     -10.527   7.269  71.795  1.00  0.00    -0.197 C  
BRANCH  25  26
HETATM   26  C   UNL     1     -11.758   8.071  71.590  1.00  0.00    -0.283 A  
HETATM   27  H2  UNL     1     -14.226  11.502  72.127  1.00  0.00     0.000 HD 
HETATM   28  H1  UNL     1     -12.519  11.915  71.983  1.00  0.00     0.000 HD 
HETATM   29  C   UNL     1     -13.037   7.524  71.596  1.00  0.00    -0.358 A  
HETATM   30  N   UNL     1     -11.763   9.463  71.604  1.00  0.00    -0.381 NA 
HETATM   31  N   UNL     1     -13.259  11.213  71.973  1.00  0.00    -0.447 NA 
HETATM   32  S   UNL     1     -14.226   8.744  71.747  1.00  0.00    -0.319 SA 
HETATM   33  C   UNL     1     -12.984   9.920  71.762  1.00  0.00    -0.449 A  
ENDBRANCH  25  26
BRANCH  25  34
HETATM   34  N   UNL     1     -10.823   6.022  72.046  1.00  0.00    -0.241 NA 
HETATM   35  H   UNL     1     -11.650   5.846  72.617  1.00  0.00     0.000 HD 
BRANCH  34  36
HETATM   36  O   UNL     1     -10.104   4.905  71.600  1.00  0.00    -0.185 OA 
HETATM   37  C   UNL     1      -9.320   4.173  72.506  1.00  0.00    -0.120 C  
ENDBRANCH  34  36
ENDBRANCH  25  34
ENDBRANCH  24  25
ENDBRANCH   7  21
TORSDOF 8
ENDMDL
MODEL       61
REMARK 921   NORMALIZED FREE ENERGY PREDICTED BY IDOCK:   -6.10 KCAL/MOL
REMARK 922        TOTAL FREE ENERGY PREDICTED BY IDOCK:  -10.12 KCAL/MOL
REMARK 923 INTER-LIGAND FREE ENERGY PREDICTED BY IDOCK:   -8.56 KCAL/MOL
REMARK 924 INTRA-LIGAND FREE ENERGY PREDICTED BY IDOCK:   -1.56 KCAL/MOL
REMARK 927      BINDING AFFINITY PREDICTED BY RF-SCORE:    0.00 PKD
ROOT
HETATM    1  C   UNL     1      -8.398   9.298  67.985  1.00  0.00    -0.120 C  
HETATM    2  S   UNL     1     -10.103   9.455  67.529  1.00  0.00    -0.231 SA 
HETATM    3  C   UNL     1     -10.357  11.247  67.473  1.00  0.00    -0.194 C  
HETATM    4  C   UNL     1      -9.159  12.154  67.632  1.00  0.00    -0.181 C  
HETATM    5  O   UNL     1      -5.728  10.165  69.580  1.00  0.00    -0.037 OA 
HETATM    6  CA  UNL     1      -7.928  11.760  68.042  1.00  0.00    -0.141 C  
HETATM    7  CA  UNL     1      -7.725   8.577  69.249  1.00  0.00    -0.093 C  
HETATM    8  N   UNL     1      -7.705  10.474  68.417  1.00  0.00    -0.099 N  
HETATM    9  C   UNL     1      -6.828  12.779  68.156  1.00  0.00    -0.094 C  
HETATM   10  OXT UNL     1      -6.773  13.761  67.428  1.00  0.00    -0.220 OA 
HETATM   11  C   UNL     1      -6.754   9.792  69.095  1.00  0.00    -0.053 C  
HETATM   12  O   UNL     1      -5.880  12.584  69.086  1.00  0.00    -0.071 OA 
ENDROOT
BRANCH   4  13
HETATM   13  C   UNL     1      -9.559  13.623  67.436  1.00  0.00    -0.226 C  
BRANCH  13  14
HETATM   14  S   UNL     1     -11.293  13.685  66.903  1.00  0.00    -0.341 SA 
BRANCH  14  15
HETATM   15  C   UNL     1     -11.247  14.969  65.757  1.00  0.00    -0.318 A  
HETATM   16  N   UNL     1     -10.737  16.167  65.923  1.00  0.00    -0.292 NA 
HETATM   17  C   UNL     1     -12.526  13.817  63.903  1.00  0.00    -0.202 C  
HETATM   18  N   UNL     1     -11.081  16.874  64.790  1.00  0.00    -0.855 NA 
HETATM   19  N   UNL     1     -11.862  14.918  64.543  1.00  0.00    -0.426 NA 
HETATM   20  N   UNL     1     -11.773  16.120  63.945  1.00  0.00    -0.880 NA 
ENDBRANCH  14  15
ENDBRANCH  13  14
ENDBRANCH   4  13
BRANCH   7  21
HETATM   21  N   UNL     1      -8.113   8.407  70.724  1.00  0.00    -0.103 N  
HETATM   22  H   UNL     1      -7.306   8.473  71.344  1.00  0.00     0.000 HD 
HETATM   23  O   UNL     1      -9.244   8.136  72.665  1.00  0.00    -0.209 OA 
HETATM   24  C   UNL     1      -9.312   8.183  71.435  1.00  0.00    -0.155 C  
BRANCH  24  25
HETATM   25  C   UNL     1     -10.635   7.796  70.779  1.00  0.00    -0.218 C  
BRANCH  25  26
HETATM   26  C   UNL     1     -11.906   8.485  71.109  1.00  0.00    -0.284 A  
HETATM   27  H2  UNL     1     -14.224  11.727  72.617  1.00  0.00     0.000 HD 
HETATM   28  H1  UNL     1     -12.783  12.268  71.758  1.00  0.00     0.000 HD 
HETATM   29  C   UNL     1     -13.007   7.837  71.663  1.00  0.00    -0.345 A  
HETATM   30  N   UNL     1     -12.034   9.871  71.113  1.00  0.00    -0.353 NA 
HETATM   31  N   UNL     1     -13.390  11.510  72.070  1.00  0.00    -0.422 NA 
HETATM   32  S   UNL     1     -14.128   8.963  72.295  1.00  0.00    -0.372 SA 
HETATM   33  C   UNL     1     -13.111  10.234  71.772  1.00  0.00    -0.465 A  
ENDBRANCH  25  26
BRANCH  25  34
HETATM   34  N   UNL     1     -10.860   6.729  70.060  1.00  0.00    -0.248 NA 
HETATM   35  H   UNL     1     -11.830   6.531  69.812  1.00  0.00     0.000 HD 
BRANCH  34  36
HETATM   36  O   UNL     1      -9.886   5.833  69.598  1.00  0.00    -0.158 OA 
HETATM   37  C   UNL     1      -9.866   5.461  68.245  1.00  0.00    -0.150 C  
ENDBRANCH  34  36
ENDBRANCH  25  34
ENDBRANCH  24  25
ENDBRANCH   7  21
TORSDOF 8
ENDMDL
MODEL       62
REMARK 921   NORMALIZED FREE ENERGY PREDICTED BY IDOCK:   -6.10 KCAL/MOL
REMARK 922        TOTAL FREE ENERGY PREDICTED BY IDOCK:  -10.11 KCAL/MOL
REMARK 923 INTER-LIGAND FREE ENERGY PREDICTED BY IDOCK:   -8.55 KCAL/MOL
REMARK 924 INTRA-LIGAND FREE ENERGY PREDICTED BY IDOCK:   -1.56 KCAL/MOL
REMARK 927      BINDING AFFINITY PREDICTED BY RF-SCORE:    0.00 PKD
ROOT
HETATM    1  C   UNL     1      -9.181   8.690  71.692  1.00  0.00    -0.256 C  
HETATM    2  S   UNL     1      -8.311   9.213  70.240  1.00  0.00    -0.193 SA 
HETATM    3  C   UNL     1      -9.549  10.179  69.338  1.00  0.00    -0.232 C  
HETATM    4  C   UNL     1     -10.872  10.467  70.008  1.00  0.00    -0.320 C  
HETATM    5  O   UNL     1     -11.785   7.677  73.309  1.00  0.00    -0.142 OA 
HETATM    6  CA  UNL     1     -11.319   9.877  71.143  1.00  0.00    -0.370 C  
HETATM    7  CA  UNL     1      -9.490   7.215  72.239  1.00  0.00    -0.138 C  
HETATM    8  N   UNL     1     -10.597   8.894  71.740  1.00  0.00    -0.341 N  
HETATM    9  C   UNL     1     -12.664  10.263  71.694  1.00  0.00    -0.456 C  
HETATM   10  OXT UNL     1     -13.127  11.387  71.552  1.00  0.00    -0.416 OA 
HETATM   11  C   UNL     1     -10.810   7.936  72.669  1.00  0.00    -0.364 C  
HETATM   12  O   UNL     1     -13.361   9.335  72.368  1.00  0.00    -0.445 OA 
ENDROOT
BRANCH   4  13
HETATM   13  C   UNL     1     -11.733  11.394  69.136  1.00  0.00    -0.342 C  
BRANCH  13  14
HETATM   14  S   UNL     1     -10.636  12.362  68.062  1.00  0.00    -0.229 SA 
BRANCH  14  15
HETATM   15  C   UNL     1     -11.705  12.781  66.780  1.00  0.00    -0.392 A  
HETATM   16  N   UNL     1     -12.241  11.974  65.894  1.00  0.00    -0.430 NA 
HETATM   17  C   UNL     1     -11.714  15.284  67.147  1.00  0.00    -0.053 C  
HETATM   18  N   UNL     1     -12.887  12.793  64.992  1.00  0.00    -0.821 NA 
HETATM   19  N   UNL     1     -12.033  14.064  66.460  1.00  0.00    -0.424 NA 
HETATM   20  N   UNL     1     -12.760  14.072  65.328  1.00  0.00    -0.674 NA 
ENDBRANCH  14  15
ENDBRANCH  13  14
ENDBRANCH   4  13
BRANCH   7  21
HETATM   21  N   UNL     1      -9.826   5.871  71.579  1.00  0.00    -0.165 N  
HETATM   22  H   UNL     1     -10.431   5.296  72.166  1.00  0.00     0.000 HD 
HETATM   23  O   UNL     1     -10.004   4.127  70.149  1.00  0.00    -0.209 OA 
HETATM   24  C   UNL     1      -9.505   5.233  70.362  1.00  0.00    -0.166 C  
BRANCH  24  25
HETATM   25  C   UNL     1      -8.429   5.728  69.397  1.00  0.00    -0.112 C  
BRANCH  25  26
HETATM   26  C   UNL     1      -8.770   6.409  68.124  1.00  0.00    -0.116 A  
HETATM   27  H2  UNL     1      -8.042   9.114  64.914  1.00  0.00     0.000 HD 
HETATM   28  H1  UNL     1      -6.578   8.291  65.449  1.00  0.00     0.000 HD 
HETATM   29  C   UNL     1     -10.048   6.869  67.822  1.00  0.00    -0.161 A  
HETATM   30  N   UNL     1      -7.807   6.853  67.224  1.00  0.00    -0.108 NA 
HETATM   31  N   UNL     1      -7.587   8.427  65.516  1.00  0.00    -0.088 NA 
HETATM   32  S   UNL     1     -10.014   7.949  66.497  1.00  0.00    -0.140 SA 
HETATM   33  C   UNL     1      -8.324   7.720  66.383  1.00  0.00    -0.131 A  
ENDBRANCH  25  26
BRANCH  25  34
HETATM   34  N   UNL     1      -7.157   5.438  69.440  1.00  0.00    -0.062 NA 
HETATM   35  H   UNL     1      -6.837   4.657  68.866  1.00  0.00     0.000 HD 
BRANCH  34  36
HETATM   36  O   UNL     1      -6.191   6.105  70.207  1.00  0.00    -0.029 OA 
HETATM   37  C   UNL     1      -5.962   5.712  71.535  1.00  0.00    -0.029 C  
ENDBRANCH  34  36
ENDBRANCH  25  34
ENDBRANCH  24  25
ENDBRANCH   7  21
TORSDOF 8
ENDMDL
MODEL       63
REMARK 921   NORMALIZED FREE ENERGY PREDICTED BY IDOCK:   -6.08 KCAL/MOL
REMARK 922        TOTAL FREE ENERGY PREDICTED BY IDOCK:  -10.09 KCAL/MOL
REMARK 923 INTER-LIGAND FREE ENERGY PREDICTED BY IDOCK:   -7.97 KCAL/MOL
REMARK 924 INTRA-LIGAND FREE ENERGY PREDICTED BY IDOCK:   -2.11 KCAL/MOL
REMARK 927      BINDING AFFINITY PREDICTED BY RF-SCORE:    0.00 PKD
ROOT
HETATM    1  C   UNL     1      -8.935   7.520  67.980  1.00  0.00    -0.129 C  
HETATM    2  S   UNL     1     -10.590   7.846  67.438  1.00  0.00    -0.228 SA 
HETATM    3  C   UNL     1     -10.854   9.572  67.919  1.00  0.00    -0.180 C  
HETATM    4  C   UNL     1      -9.685  10.360  68.463  1.00  0.00    -0.174 C  
HETATM    5  O   UNL     1      -6.437   7.794  70.008  1.00  0.00    -0.033 OA 
HETATM    6  CA  UNL     1      -8.496   9.832  68.844  1.00  0.00    -0.129 C  
HETATM    7  CA  UNL     1      -8.379   6.428  69.014  1.00  0.00    -0.118 C  
HETATM    8  N   UNL     1      -8.297   8.490  68.820  1.00  0.00    -0.121 N  
HETATM    9  C   UNL     1      -7.421  10.743  69.371  1.00  0.00    -0.124 C  
HETATM   10  OXT UNL     1      -7.306  11.901  68.993  1.00  0.00    -0.104 OA 
HETATM   11  C   UNL     1      -7.409   7.612  69.338  1.00  0.00    -0.087 C  
HETATM   12  O   UNL     1      -6.565  10.250  70.279  1.00  0.00    -0.118 OA 
ENDROOT
BRANCH   4  13
HETATM   13  C   UNL     1     -10.079  11.826  68.697  1.00  0.00    -0.189 C  
BRANCH  13  14
HETATM   14  S   UNL     1     -11.865  11.995  68.426  1.00  0.00    -0.218 SA 
BRANCH  14  15
HETATM   15  C   UNL     1     -11.899  12.809  66.909  1.00  0.00    -0.371 A  
HETATM   16  N   UNL     1     -12.023  12.270  65.719  1.00  0.00    -0.567 NA 
HETATM   17  C   UNL     1     -11.517  15.156  67.772  1.00  0.00    -0.318 C  
HETATM   18  N   UNL     1     -11.837  13.303  64.824  1.00  0.00    -0.354 NA 
HETATM   19  N   UNL     1     -11.677  14.145  66.765  1.00  0.00    -0.391 NA 
HETATM   20  N   UNL     1     -11.620  14.451  65.456  1.00  0.00    -0.341 NA 
ENDBRANCH  14  15
ENDBRANCH  13  14
ENDBRANCH   4  13
BRANCH   7  21
HETATM   21  N   UNL     1      -8.905   5.818  70.321  1.00  0.00    -0.139 N  
HETATM   22  H   UNL     1      -8.921   4.799  70.289  1.00  0.00     0.000 HD 
HETATM   23  O   UNL     1      -9.689   5.499  72.419  1.00  0.00    -0.153 OA 
HETATM   24  C   UNL     1      -9.371   6.319  71.555  1.00  0.00    -0.148 C  
BRANCH  24  25
HETATM   25  C   UNL     1      -9.698   7.788  71.813  1.00  0.00    -0.164 C  
BRANCH  25  26
HETATM   26  C   UNL     1     -11.033   8.359  71.511  1.00  0.00    -0.262 A  
HETATM   27  H2  UNL     1     -14.118  11.277  71.863  1.00  0.00     0.000 HD 
HETATM   28  H1  UNL     1     -12.508  11.993  71.861  1.00  0.00     0.000 HD 
HETATM   29  C   UNL     1     -12.189   7.590  71.409  1.00  0.00    -0.335 A  
HETATM   30  N   UNL     1     -11.292   9.726  71.532  1.00  0.00    -0.345 NA 
HETATM   31  N   UNL     1     -13.106  11.170  71.787  1.00  0.00    -0.470 NA 
HETATM   32  S   UNL     1     -13.587   8.572  71.469  1.00  0.00    -0.264 SA 
HETATM   33  C   UNL     1     -12.584   9.952  71.592  1.00  0.00    -0.424 A  
ENDBRANCH  25  26
BRANCH  25  34
HETATM   34  N   UNL     1      -8.843   8.734  72.097  1.00  0.00    -0.388 NA 
HETATM   35  H   UNL     1      -8.996   9.645  71.665  1.00  0.00     0.000 HD 
BRANCH  34  36
HETATM   36  O   UNL     1      -7.735   8.606  72.945  1.00  0.00    -0.355 OA 
HETATM   37  C   UNL     1      -7.919   8.223  74.282  1.00  0.00    -0.233 C  
ENDBRANCH  34  36
ENDBRANCH  25  34
ENDBRANCH  24  25
ENDBRANCH   7  21
TORSDOF 8
ENDMDL
MODEL       64
REMARK 921   NORMALIZED FREE ENERGY PREDICTED BY IDOCK:   -6.07 KCAL/MOL
REMARK 922        TOTAL FREE ENERGY PREDICTED BY IDOCK:  -10.06 KCAL/MOL
REMARK 923 INTER-LIGAND FREE ENERGY PREDICTED BY IDOCK:   -7.77 KCAL/MOL
REMARK 924 INTRA-LIGAND FREE ENERGY PREDICTED BY IDOCK:   -2.29 KCAL/MOL
REMARK 927      BINDING AFFINITY PREDICTED BY RF-SCORE:    0.00 PKD
ROOT
HETATM    1  C   UNL     1     -11.093  11.895  65.510  1.00  0.00    -0.304 C  
HETATM    2  S   UNL     1      -9.948  10.626  65.041  1.00  0.00    -0.323 SA 
HETATM    3  C   UNL     1      -9.600   9.781  66.604  1.00  0.00    -0.187 C  
HETATM    4  C   UNL     1     -10.400  10.163  67.828  1.00  0.00    -0.253 C  
HETATM    5  O   UNL     1     -12.276  14.149  67.496  1.00  0.00    -0.370 OA 
HETATM    6  CA  UNL     1     -11.206  11.248  67.929  1.00  0.00    -0.290 C  
HETATM    7  CA  UNL     1     -10.990  13.488  65.367  1.00  0.00    -0.292 C  
HETATM    8  N   UNL     1     -11.298  12.136  66.906  1.00  0.00    -0.323 N  
HETATM    9  C   UNL     1     -11.940  11.503  69.216  1.00  0.00    -0.330 C  
HETATM   10  OXT UNL     1     -12.307  10.594  69.949  1.00  0.00    -0.309 OA 
HETATM   11  C   UNL     1     -11.752  13.397  66.729  1.00  0.00    -0.385 C  
HETATM   12  O   UNL     1     -12.201  12.776  69.552  1.00  0.00    -0.222 OA 
ENDROOT
BRANCH   4  13
HETATM   13  C   UNL     1     -10.043   9.257  69.016  1.00  0.00    -0.199 C  
BRANCH  13  14
HETATM   14  S   UNL     1     -10.455   7.543  68.580  1.00  0.00    -0.146 SA 
BRANCH  14  15
HETATM   15  C   UNL     1     -11.003   6.934  70.094  1.00  0.00    -0.281 A  
HETATM   16  N   UNL     1     -12.240   6.874  70.528  1.00  0.00    -0.287 NA 
HETATM   17  C   UNL     1      -8.738   6.396  71.086  1.00  0.00    -0.135 C  
HETATM   18  N   UNL     1     -12.151   6.460  71.841  1.00  0.00    -0.337 NA 
HETATM   19  N   UNL     1     -10.167   6.536  71.093  1.00  0.00    -0.191 NA 
HETATM   20  N   UNL     1     -10.888   6.256  72.195  1.00  0.00    -0.231 NA 
ENDBRANCH  14  15
ENDBRANCH  13  14
ENDBRANCH   4  13
BRANCH   7  21
HETATM   21  N   UNL     1      -9.847  14.507  65.480  1.00  0.00    -0.500 N  
HETATM   22  H   UNL     1      -9.675  14.990  64.599  1.00  0.00     0.000 HD 
HETATM   23  O   UNL     1      -8.178  15.838  66.229  1.00  0.00    -0.243 OA 
HETATM   24  C   UNL     1      -8.977  14.941  66.503  1.00  0.00    -0.253 C  
BRANCH  24  25
HETATM   25  C   UNL     1      -8.824  14.238  67.851  1.00  0.00    -0.179 C  
BRANCH  25  26
HETATM   26  C   UNL     1      -8.043  12.986  67.997  1.00  0.00    -0.157 A  
HETATM   27  H2  UNL     1      -5.796  10.110  70.197  1.00  0.00     0.000 HD 
HETATM   28  H1  UNL     1      -7.141  10.770  71.125  1.00  0.00     0.000 HD 
HETATM   29  C   UNL     1      -7.109  12.553  67.061  1.00  0.00     0.039 A  
HETATM   30  N   UNL     1      -8.002  12.255  69.181  1.00  0.00     0.259 NA 
HETATM   31  N   UNL     1      -6.617  10.714  70.252  1.00  0.00    -0.224 NA 
HETATM   32  S   UNL     1      -6.108  11.329  67.713  1.00  0.00    -0.051 SA 
HETATM   33  C   UNL     1      -6.988  11.421  69.176  1.00  0.00    -0.118 A  
ENDBRANCH  25  26
BRANCH  25  34
HETATM   34  N   UNL     1      -9.499  14.493  68.939  1.00  0.00    -0.323 NA 
HETATM   35  H   UNL     1      -9.883  13.695  69.447  1.00  0.00     0.000 HD 
BRANCH  34  36
HETATM   36  O   UNL     1      -9.745  15.766  69.470  1.00  0.00    -0.261 OA 
HETATM   37  C   UNL     1     -10.935  16.011  70.173  1.00  0.00    -0.367 C  
ENDBRANCH  34  36
ENDBRANCH  25  34
ENDBRANCH  24  25
ENDBRANCH   7  21
TORSDOF 8
ENDMDL
MODEL       65
REMARK 921   NORMALIZED FREE ENERGY PREDICTED BY IDOCK:   -6.04 KCAL/MOL
REMARK 922        TOTAL FREE ENERGY PREDICTED BY IDOCK:  -10.02 KCAL/MOL
REMARK 923 INTER-LIGAND FREE ENERGY PREDICTED BY IDOCK:   -8.63 KCAL/MOL
REMARK 924 INTRA-LIGAND FREE ENERGY PREDICTED BY IDOCK:   -1.39 KCAL/MOL
REMARK 927      BINDING AFFINITY PREDICTED BY RF-SCORE:    0.00 PKD
ROOT
HETATM    1  C   UNL     1     -11.982  12.524  69.675  1.00  0.00    -0.272 C  
HETATM    2  S   UNL     1     -11.552  14.024  70.514  1.00  0.00    -0.014 SA 
HETATM    3  C   UNL     1     -11.086  15.139  69.165  1.00  0.00    -0.258 C  
HETATM    4  C   UNL     1     -11.303  14.683  67.741  1.00  0.00    -0.338 C  
HETATM    5  O   UNL     1     -11.652  10.294  67.363  1.00  0.00    -0.198 OA 
HETATM    6  CA  UNL     1     -11.605  13.416  67.362  1.00  0.00    -0.354 C  
HETATM    7  CA  UNL     1     -11.366  11.050  69.806  1.00  0.00    -0.292 C  
HETATM    8  N   UNL     1     -11.670  12.419  68.281  1.00  0.00    -0.332 N  
HETATM    9  C   UNL     1     -11.790  13.108  65.902  1.00  0.00    -0.406 C  
HETATM   10  OXT UNL     1     -12.224  13.936  65.112  1.00  0.00    -0.383 OA 
HETATM   11  C   UNL     1     -11.677  11.067  68.274  1.00  0.00    -0.229 C  
HETATM   12  O   UNL     1     -11.471  11.878  65.471  1.00  0.00    -0.321 OA 
ENDROOT
BRANCH   4  13
HETATM   13  C   UNL     1     -10.961  15.806  66.751  1.00  0.00    -0.192 C  
BRANCH  13  14
HETATM   14  S   UNL     1     -10.312  17.221  67.685  1.00  0.00    -0.358 SA 
BRANCH  14  15
HETATM   15  C   UNL     1      -9.059  17.769  66.638  1.00  0.00    -0.266 A  
HETATM   16  N   UNL     1      -8.125  17.045  66.067  1.00  0.00    -0.492 NA 
HETATM   17  C   UNL     1      -9.585  20.242  66.741  1.00  0.00    -0.411 C  
HETATM   18  N   UNL     1      -7.277  17.948  65.461  1.00  0.00    -0.464 NA 
HETATM   19  N   UNL     1      -8.823  19.083  66.369  1.00  0.00    -0.326 NA 
HETATM   20  N   UNL     1      -7.693  19.196  65.645  1.00  0.00    -0.439 NA 
ENDBRANCH  14  15
ENDBRANCH  13  14
ENDBRANCH   4  13
BRANCH   7  21
HETATM   21  N   UNL     1      -9.957  10.489  70.042  1.00  0.00    -0.400 N  
HETATM   22  H   UNL     1      -9.925   9.852  70.838  1.00  0.00     0.000 HD 
HETATM   23  O   UNL     1      -7.758   9.978  69.886  1.00  0.00    -0.150 OA 
HETATM   24  C   UNL     1      -8.694  10.637  69.430  1.00  0.00    -0.023 C  
BRANCH  24  25
HETATM   25  C   UNL     1      -8.371  11.703  68.384  1.00  0.00    -0.157 C  
BRANCH  25  26
HETATM   26  C   UNL     1      -7.944  11.348  67.009  1.00  0.00    -0.158 A  
HETATM   27  H2  UNL     1      -8.506   9.642  63.145  1.00  0.00     0.000 HD 
HETATM   28  H1  UNL     1      -9.962  10.423  63.757  1.00  0.00     0.000 HD 
HETATM   29  C   UNL     1      -6.673  10.872  66.701  1.00  0.00    -0.127 A  
HETATM   30  N   UNL     1      -8.835  11.238  65.946  1.00  0.00    -0.191 NA 
HETATM   31  N   UNL     1      -8.977  10.186  63.869  1.00  0.00    -0.222 NA 
HETATM   32  S   UNL     1      -6.638  10.179  65.139  1.00  0.00    -0.120 SA 
HETATM   33  C   UNL     1      -8.290  10.577  64.951  1.00  0.00    -0.135 A  
ENDBRANCH  25  26
BRANCH  25  34
HETATM   34  N   UNL     1      -8.214  12.980  68.603  1.00  0.00    -0.330 NA 
HETATM   35  H   UNL     1      -8.602  13.356  69.468  1.00  0.00     0.000 HD 
BRANCH  34  36
HETATM   36  O   UNL     1      -7.558  13.882  67.753  1.00  0.00    -0.136 OA 
HETATM   37  C   UNL     1      -6.357  14.481  68.163  1.00  0.00    -0.141 C  
ENDBRANCH  34  36
ENDBRANCH  25  34
ENDBRANCH  24  25
ENDBRANCH   7  21
TORSDOF 8
ENDMDL
MODEL       66
REMARK 921   NORMALIZED FREE ENERGY PREDICTED BY IDOCK:   -6.04 KCAL/MOL
REMARK 922        TOTAL FREE ENERGY PREDICTED BY IDOCK:  -10.02 KCAL/MOL
REMARK 923 INTER-LIGAND FREE ENERGY PREDICTED BY IDOCK:   -9.43 KCAL/MOL
REMARK 924 INTRA-LIGAND FREE ENERGY PREDICTED BY IDOCK:   -0.59 KCAL/MOL
REMARK 927      BINDING AFFINITY PREDICTED BY RF-SCORE:    0.00 PKD
ROOT
HETATM    1  C   UNL     1     -10.385  10.705  69.272  1.00  0.00    -0.218 C  
HETATM    2  S   UNL     1     -10.042   9.930  67.715  1.00  0.00    -0.192 SA 
HETATM    3  C   UNL     1     -10.871  11.010  66.521  1.00  0.00    -0.209 C  
HETATM    4  C   UNL     1     -11.472  12.306  67.011  1.00  0.00    -0.419 C  
HETATM    5  O   UNL     1     -12.237  12.324  71.363  1.00  0.00    -0.077 OA 
HETATM    6  CA  UNL     1     -11.653  12.642  68.312  1.00  0.00    -0.332 C  
HETATM    7  CA  UNL     1     -11.140  10.136  70.567  1.00  0.00    -0.327 C  
HETATM    8  N   UNL     1     -11.350  11.762  69.300  1.00  0.00    -0.269 N  
HETATM    9  C   UNL     1     -12.269  13.972  68.651  1.00  0.00    -0.183 C  
HETATM   10  OXT UNL     1     -12.119  14.958  67.942  1.00  0.00    -0.257 OA 
HETATM   11  C   UNL     1     -11.617  11.624  70.618  1.00  0.00     0.235 C  
HETATM   12  O   UNL     1     -12.995  14.063  69.775  1.00  0.00     0.057 OA 
ENDROOT
BRANCH   4  13
HETATM   13  C   UNL     1     -12.020  13.131  65.837  1.00  0.00    -0.427 C  
BRANCH  13  14
HETATM   14  S   UNL     1     -10.625  13.662  64.804  1.00  0.00    -0.427 SA 
BRANCH  14  15
HETATM   15  C   UNL     1     -10.721  15.374  64.965  1.00  0.00    -0.438 A  
HETATM   16  N   UNL     1     -11.517  16.192  64.319  1.00  0.00    -0.668 NA 
HETATM   17  C   UNL     1      -8.843  15.664  66.636  1.00  0.00    -0.292 C  
HETATM   18  N   UNL     1     -11.112  17.461  64.676  1.00  0.00    -0.851 NA 
HETATM   19  N   UNL     1      -9.865  16.107  65.730  1.00  0.00    -0.421 NA 
HETATM   20  N   UNL     1     -10.099  17.418  65.533  1.00  0.00    -0.579 NA 
ENDBRANCH  14  15
ENDBRANCH  13  14
ENDBRANCH   4  13
BRANCH   7  21
HETATM   21  N   UNL     1     -12.335   9.200  70.793  1.00  0.00    -0.488 N  
HETATM   22  H   UNL     1     -13.223   9.653  70.579  1.00  0.00     0.000 HD 
HETATM   23  O   UNL     1     -13.657   7.422  71.249  1.00  0.00    -0.355 OA 
HETATM   24  C   UNL     1     -12.509   7.867  71.224  1.00  0.00    -0.264 C  
BRANCH  24  25
HETATM   25  C   UNL     1     -11.402   7.020  71.848  1.00  0.00    -0.257 C  
BRANCH  25  26
HETATM   26  C   UNL     1     -10.059   7.577  72.143  1.00  0.00    -0.194 A  
HETATM   27  H2  UNL     1      -5.886   8.079  71.449  1.00  0.00     0.000 HD 
HETATM   28  H1  UNL     1      -6.811   7.977  69.953  1.00  0.00     0.000 HD 
HETATM   29  C   UNL     1      -9.554   7.713  73.432  1.00  0.00    -0.288 A  
HETATM   30  N   UNL     1      -9.100   7.797  71.158  1.00  0.00    -0.141 NA 
HETATM   31  N   UNL     1      -6.785   8.004  70.972  1.00  0.00    -0.040 NA 
HETATM   32  S   UNL     1      -7.866   7.986  73.404  1.00  0.00    -0.182 SA 
HETATM   33  C   UNL     1      -7.911   7.942  71.695  1.00  0.00    -0.093 A  
ENDBRANCH  25  26
BRANCH  25  34
HETATM   34  N   UNL     1     -11.406   5.722  71.988  1.00  0.00    -0.258 NA 
HETATM   35  H   UNL     1     -11.114   5.166  71.183  1.00  0.00     0.000 HD 
BRANCH  34  36
HETATM   36  O   UNL     1     -11.776   5.024  73.145  1.00  0.00    -0.313 OA 
HETATM   37  C   UNL     1     -10.792   4.626  74.064  1.00  0.00    -0.263 C  
ENDBRANCH  34  36
ENDBRANCH  25  34
ENDBRANCH  24  25
ENDBRANCH   7  21
TORSDOF 8
ENDMDL
MODEL       67
REMARK 921   NORMALIZED FREE ENERGY PREDICTED BY IDOCK:   -6.04 KCAL/MOL
REMARK 922        TOTAL FREE ENERGY PREDICTED BY IDOCK:  -10.02 KCAL/MOL
REMARK 923 INTER-LIGAND FREE ENERGY PREDICTED BY IDOCK:   -9.20 KCAL/MOL
REMARK 924 INTRA-LIGAND FREE ENERGY PREDICTED BY IDOCK:   -0.82 KCAL/MOL
REMARK 927      BINDING AFFINITY PREDICTED BY RF-SCORE:    0.00 PKD
ROOT
HETATM    1  C   UNL     1     -11.833  12.247  68.003  1.00  0.00    -0.305 C  
HETATM    2  S   UNL     1     -11.745  13.210  69.488  1.00  0.00    -0.303 SA 
HETATM    3  C   UNL     1     -11.075  14.793  68.918  1.00  0.00    -0.252 C  
HETATM    4  C   UNL     1     -10.910  15.018  67.434  1.00  0.00    -0.305 C  
HETATM    5  O   UNL     1     -10.775  11.259  65.117  1.00  0.00    -0.288 OA 
HETATM    6  CA  UNL     1     -11.003  14.058  66.481  1.00  0.00    -0.306 C  
HETATM    7  CA  UNL     1     -11.138  10.850  67.632  1.00  0.00    -0.313 C  
HETATM    8  N   UNL     1     -11.194  12.759  66.828  1.00  0.00    -0.281 N  
HETATM    9  C   UNL     1     -10.811  14.431  65.037  1.00  0.00    -0.407 C  
HETATM   10  OXT UNL     1     -11.118  15.534  64.604  1.00  0.00    -0.412 OA 
HETATM   11  C   UNL     1     -11.082  11.550  66.234  1.00  0.00    -0.263 C  
HETATM   12  O   UNL     1     -10.294  13.510  64.210  1.00  0.00    -0.406 OA 
ENDROOT
BRANCH   4  13
HETATM   13  C   UNL     1     -10.445  16.454  67.149  1.00  0.00    -0.297 C  
BRANCH  13  14
HETATM   14  S   UNL     1     -10.126  17.283  68.732  1.00  0.00    -0.343 SA 
BRANCH  14  15
HETATM   15  C   UNL     1      -9.675  18.858  68.202  1.00  0.00    -0.347 A  
HETATM   16  N   UNL     1     -10.451  19.908  68.076  1.00  0.00    -0.399 NA 
HETATM   17  C   UNL     1      -7.247  18.363  67.687  1.00  0.00    -0.214 C  
HETATM   18  N   UNL     1      -9.671  20.874  67.476  1.00  0.00    -0.346 NA 
HETATM   19  N   UNL     1      -8.437  19.167  67.727  1.00  0.00    -0.294 NA 
HETATM   20  N   UNL     1      -8.440  20.428  67.254  1.00  0.00    -0.347 NA 
ENDBRANCH  14  15
ENDBRANCH  13  14
ENDBRANCH   4  13
BRANCH   7  21
HETATM   21  N   UNL     1      -9.781  10.206  67.944  1.00  0.00    -0.145 N  
HETATM   22  H   UNL     1      -9.014  10.874  67.873  1.00  0.00     0.000 HD 
HETATM   23  O   UNL     1      -8.127   8.773  68.519  1.00  0.00    -0.113 OA 
HETATM   24  C   UNL     1      -9.332   8.918  68.305  1.00  0.00    -0.143 C  
BRANCH  24  25
HETATM   25  C   UNL     1     -10.201   7.662  68.247  1.00  0.00    -0.195 C  
BRANCH  25  26
HETATM   26  C   UNL     1     -10.326   6.741  69.402  1.00  0.00    -0.199 A  
HETATM   27  H2  UNL     1     -11.800   5.570  73.224  1.00  0.00     0.000 HD 
HETATM   28  H1  UNL     1     -13.010   6.420  72.265  1.00  0.00     0.000 HD 
HETATM   29  C   UNL     1      -9.253   6.033  69.936  1.00  0.00    -0.148 A  
HETATM   30  N   UNL     1     -11.466   6.677  70.197  1.00  0.00    -0.376 NA 
HETATM   31  N   UNL     1     -12.076   6.020  72.350  1.00  0.00    -0.216 NA 
HETATM   32  S   UNL     1      -9.638   5.405  71.478  1.00  0.00    -0.155 SA 
HETATM   33  C   UNL     1     -11.204   6.075  71.335  1.00  0.00    -0.262 A  
ENDBRANCH  25  26
BRANCH  25  34
HETATM   34  N   UNL     1     -10.734   7.139  67.177  1.00  0.00    -0.371 NA 
HETATM   35  H   UNL     1     -10.909   7.764  66.389  1.00  0.00     0.000 HD 
BRANCH  34  36
HETATM   36  O   UNL     1     -11.090   5.793  67.014  1.00  0.00    -0.210 OA 
HETATM   37  C   UNL     1     -10.451   5.016  66.034  1.00  0.00    -0.242 C  
ENDBRANCH  34  36
ENDBRANCH  25  34
ENDBRANCH  24  25
ENDBRANCH   7  21
TORSDOF 8
ENDMDL
MODEL       68
REMARK 921   NORMALIZED FREE ENERGY PREDICTED BY IDOCK:   -6.02 KCAL/MOL
REMARK 922        TOTAL FREE ENERGY PREDICTED BY IDOCK:  -10.00 KCAL/MOL
REMARK 923 INTER-LIGAND FREE ENERGY PREDICTED BY IDOCK:   -8.38 KCAL/MOL
REMARK 924 INTRA-LIGAND FREE ENERGY PREDICTED BY IDOCK:   -1.61 KCAL/MOL
REMARK 927      BINDING AFFINITY PREDICTED BY RF-SCORE:    0.00 PKD
ROOT
HETATM    1  C   UNL     1      -9.589  11.171  66.641  1.00  0.00    -0.190 C  
HETATM    2  S   UNL     1     -11.144  11.400  67.459  1.00  0.00    -0.296 SA 
HETATM    3  C   UNL     1     -10.900  12.927  68.400  1.00  0.00    -0.254 C  
HETATM    4  C   UNL     1      -9.627  13.714  68.188  1.00  0.00    -0.221 C  
HETATM    5  O   UNL     1      -6.369  11.294  66.440  1.00  0.00    -0.134 OA 
HETATM    6  CA  UNL     1      -8.534  13.268  67.521  1.00  0.00    -0.202 C  
HETATM    7  CA  UNL     1      -8.549   9.954  66.716  1.00  0.00    -0.128 C  
HETATM    8  N   UNL     1      -8.491  12.000  67.038  1.00  0.00    -0.179 N  
HETATM    9  C   UNL     1      -7.334  14.165  67.391  1.00  0.00    -0.120 C  
HETATM   10  OXT UNL     1      -7.434  15.383  67.338  1.00  0.00    -0.173 OA 
HETATM   11  C   UNL     1      -7.546  11.147  66.582  1.00  0.00    -0.147 C  
HETATM   12  O   UNL     1      -6.122  13.592  67.324  1.00  0.00    -0.327 OA 
ENDROOT
BRANCH   4  13
HETATM   13  C   UNL     1      -9.661  15.029  68.980  1.00  0.00    -0.225 C  
BRANCH  13  14
HETATM   14  S   UNL     1     -11.238  15.864  68.648  1.00  0.00    -0.377 SA 
BRANCH  14  15
HETATM   15  C   UNL     1     -10.745  17.084  67.538  1.00  0.00    -0.266 A  
HETATM   16  N   UNL     1     -10.562  18.359  67.785  1.00  0.00    -0.411 NA 
HETATM   17  C   UNL     1     -10.664  15.641  65.460  1.00  0.00    -0.389 C  
HETATM   18  N   UNL     1     -10.328  18.944  66.558  1.00  0.00    -0.405 NA 
HETATM   19  N   UNL     1     -10.596  16.870  66.201  1.00  0.00    -0.248 NA 
HETATM   20  N   UNL     1     -10.353  18.042  65.584  1.00  0.00    -0.615 NA 
ENDBRANCH  14  15
ENDBRANCH  13  14
ENDBRANCH   4  13
BRANCH   7  21
HETATM   21  N   UNL     1      -8.079   9.005  67.828  1.00  0.00    -0.109 N  
HETATM   22  H   UNL     1      -7.069   8.870  67.816  1.00  0.00     0.000 HD 
HETATM   23  O   UNL     1      -7.976   7.623  69.616  1.00  0.00    -0.118 OA 
HETATM   24  C   UNL     1      -8.701   8.275  68.863  1.00  0.00    -0.137 C  
BRANCH  24  25
HETATM   25  C   UNL     1     -10.211   8.077  68.981  1.00  0.00    -0.210 C  
BRANCH  25  26
HETATM   26  C   UNL     1     -10.891   7.996  70.297  1.00  0.00    -0.241 A  
HETATM   27  H2  UNL     1     -13.374   6.134  73.216  1.00  0.00     0.000 HD 
HETATM   28  H1  UNL     1     -12.383   4.974  72.333  1.00  0.00     0.000 HD 
HETATM   29  C   UNL     1     -11.505   9.085  70.909  1.00  0.00    -0.291 A  
HETATM   30  N   UNL     1     -11.176   6.788  70.926  1.00  0.00    -0.274 NA 
HETATM   31  N   UNL     1     -12.653   5.940  72.520  1.00  0.00     0.098 NA 
HETATM   32  S   UNL     1     -12.529   8.576  72.180  1.00  0.00    -0.389 SA 
HETATM   33  C   UNL     1     -12.076   6.957  71.867  1.00  0.00    -0.333 A  
ENDBRANCH  25  26
BRANCH  25  34
HETATM   34  N   UNL     1     -11.027   7.745  68.017  1.00  0.00    -0.462 NA 
HETATM   35  H   UNL     1     -12.015   7.965  68.147  1.00  0.00     0.000 HD 
BRANCH  34  36
HETATM   36  O   UNL     1     -10.665   7.113  66.820  1.00  0.00    -0.307 OA 
HETATM   37  C   UNL     1     -10.572   5.713  66.771  1.00  0.00    -0.304 C  
ENDBRANCH  34  36
ENDBRANCH  25  34
ENDBRANCH  24  25
ENDBRANCH   7  21
TORSDOF 8
ENDMDL
MODEL       69
REMARK 921   NORMALIZED FREE ENERGY PREDICTED BY IDOCK:   -6.01 KCAL/MOL
REMARK 922        TOTAL FREE ENERGY PREDICTED BY IDOCK:   -9.98 KCAL/MOL
REMARK 923 INTER-LIGAND FREE ENERGY PREDICTED BY IDOCK:   -8.99 KCAL/MOL
REMARK 924 INTRA-LIGAND FREE ENERGY PREDICTED BY IDOCK:   -0.99 KCAL/MOL
REMARK 927      BINDING AFFINITY PREDICTED BY RF-SCORE:    0.00 PKD
ROOT
HETATM    1  C   UNL     1     -11.349  12.987  67.441  1.00  0.00    -0.305 C  
HETATM    2  S   UNL     1     -10.018  13.685  68.379  1.00  0.00    -0.217 SA 
HETATM    3  C   UNL     1      -9.491  15.093  67.371  1.00  0.00    -0.204 C  
HETATM    4  C   UNL     1     -10.311  15.462  66.156  1.00  0.00    -0.325 C  
HETATM    5  O   UNL     1     -12.844  12.146  64.705  1.00  0.00    -0.555 OA 
HETATM    6  CA  UNL     1     -11.287  14.697  65.609  1.00  0.00    -0.338 C  
HETATM    7  CA  UNL     1     -11.521  11.518  66.821  1.00  0.00    -0.157 C  
HETATM    8  N   UNL     1     -11.555  13.463  66.106  1.00  0.00    -0.333 N  
HETATM    9  C   UNL     1     -12.019  15.195  64.393  1.00  0.00    -0.310 C  
HETATM   10  OXT UNL     1     -12.206  16.387  64.189  1.00  0.00    -0.716 OA 
HETATM   11  C   UNL     1     -12.221  12.357  65.703  1.00  0.00    -0.250 C  
HETATM   12  O   UNL     1     -12.483  14.288  63.520  1.00  0.00    -0.798 OA 
ENDROOT
BRANCH   4  13
HETATM   13  C   UNL     1      -9.774  16.747  65.507  1.00  0.00     0.160 C  
BRANCH  13  14
HETATM   14  S   UNL     1      -8.995  17.763  66.793  1.00  0.00    -0.266 SA 
BRANCH  14  15
HETATM   15  C   UNL     1      -7.345  17.716  66.305  1.00  0.00    -0.310 A  
HETATM   16  N   UNL     1      -6.457  16.790  66.583  1.00  0.00    -0.227 NA 
HETATM   17  C   UNL     1      -7.281  19.942  65.104  1.00  0.00    -0.002 C  
HETATM   18  N   UNL     1      -5.256  17.274  66.108  1.00  0.00    -0.337 NA 
HETATM   19  N   UNL     1      -6.725  18.733  65.645  1.00  0.00    -0.334 NA 
HETATM   20  N   UNL     1      -5.410  18.464  65.538  1.00  0.00    -0.160 NA 
ENDBRANCH  14  15
ENDBRANCH  13  14
ENDBRANCH   4  13
BRANCH   7  21
HETATM   21  N   UNL     1     -10.566  10.500  66.184  1.00  0.00    -0.162 N  
HETATM   22  H   UNL     1     -10.190  10.830  65.295  1.00  0.00     0.000 HD 
HETATM   23  O   UNL     1      -9.266   8.698  65.760  1.00  0.00    -0.212 OA 
HETATM   24  C   UNL     1     -10.079   9.220  66.525  1.00  0.00    -0.273 C  
BRANCH  24  25
HETATM   25  C   UNL     1     -10.644   8.364  67.657  1.00  0.00    -0.195 C  
BRANCH  25  26
HETATM   26  C   UNL     1     -10.297   8.614  69.077  1.00  0.00    -0.213 A  
HETATM   27  H2  UNL     1      -9.012   7.446  72.967  1.00  0.00     0.000 HD 
HETATM   28  H1  UNL     1      -8.165   6.580  71.688  1.00  0.00     0.000 HD 
HETATM   29  C   UNL     1     -11.024   9.466  69.903  1.00  0.00    -0.229 A  
HETATM   30  N   UNL     1      -9.363   7.852  69.772  1.00  0.00    -0.153 NA 
HETATM   31  N   UNL     1      -8.837   7.291  71.974  1.00  0.00    -0.124 NA 
HETATM   32  S   UNL     1     -10.625   9.215  71.546  1.00  0.00    -0.337 SA 
HETATM   33  C   UNL     1      -9.497   8.024  71.067  1.00  0.00    -0.157 A  
ENDBRANCH  25  26
BRANCH  25  34
HETATM   34  N   UNL     1     -11.281   7.231  67.528  1.00  0.00    -0.541 NA 
HETATM   35  H   UNL     1     -12.253   7.206  67.837  1.00  0.00     0.000 HD 
BRANCH  34  36
HETATM   36  O   UNL     1     -10.746   6.047  67.002  1.00  0.00    -0.276 OA 
HETATM   37  C   UNL     1     -10.147   5.111  67.860  1.00  0.00    -0.137 C  
ENDBRANCH  34  36
ENDBRANCH  25  34
ENDBRANCH  24  25
ENDBRANCH   7  21
TORSDOF 8
ENDMDL
MODEL       70
REMARK 921   NORMALIZED FREE ENERGY PREDICTED BY IDOCK:   -6.00 KCAL/MOL
REMARK 922        TOTAL FREE ENERGY PREDICTED BY IDOCK:   -9.97 KCAL/MOL
REMARK 923 INTER-LIGAND FREE ENERGY PREDICTED BY IDOCK:   -8.31 KCAL/MOL
REMARK 924 INTRA-LIGAND FREE ENERGY PREDICTED BY IDOCK:   -1.66 KCAL/MOL
REMARK 927      BINDING AFFINITY PREDICTED BY RF-SCORE:    0.00 PKD
ROOT
HETATM    1  C   UNL     1      -9.684  12.186  67.757  1.00  0.00    -0.197 C  
HETATM    2  S   UNL     1     -11.429  11.937  67.942  1.00  0.00    -0.319 SA 
HETATM    3  C   UNL     1     -11.979  13.446  68.776  1.00  0.00    -0.324 C  
HETATM    4  C   UNL     1     -10.988  14.571  68.968  1.00  0.00    -0.272 C  
HETATM    5  O   UNL     1      -6.784  13.236  68.712  1.00  0.00    -0.088 OA 
HETATM    6  CA  UNL     1      -9.649  14.475  68.777  1.00  0.00    -0.193 C  
HETATM    7  CA  UNL     1      -8.450  11.318  68.301  1.00  0.00    -0.152 C  
HETATM    8  N   UNL     1      -9.083  13.286  68.449  1.00  0.00    -0.173 N  
HETATM    9  C   UNL     1      -8.784  15.682  69.011  1.00  0.00    -0.240 C  
HETATM   10  OXT UNL     1      -9.190  16.821  68.823  1.00  0.00    -0.250 OA 
HETATM   11  C   UNL     1      -7.841  12.752  68.435  1.00  0.00    -0.132 C  
HETATM   12  O   UNL     1      -7.524  15.485  69.430  1.00  0.00    -0.194 OA 
ENDROOT
BRANCH   4  13
HETATM   13  C   UNL     1     -11.673  15.801  69.583  1.00  0.00    -0.355 C  
BRANCH  13  14
HETATM   14  S   UNL     1     -13.301  15.303  70.211  1.00  0.00     0.290 SA 
BRANCH  14  15
HETATM   15  C   UNL     1     -13.026  15.322  71.911  1.00  0.00    -0.384 A  
HETATM   16  N   UNL     1     -12.606  16.330  72.639  1.00  0.00    -0.392 NA 
HETATM   17  C   UNL     1     -13.551  12.889  72.368  1.00  0.00    -0.478 C  
HETATM   18  N   UNL     1     -12.395  15.812  73.899  1.00  0.00    -0.553 NA 
HETATM   19  N   UNL     1     -13.108  14.214  72.700  1.00  0.00    -0.469 NA 
HETATM   20  N   UNL     1     -12.694  14.519  73.944  1.00  0.00    -0.371 NA 
ENDBRANCH  14  15
ENDBRANCH  13  14
ENDBRANCH   4  13
BRANCH   7  21
HETATM   21  N   UNL     1      -8.179  10.518  69.583  1.00  0.00    -0.362 N  
HETATM   22  H   UNL     1      -7.278  10.754  69.999  1.00  0.00     0.000 HD 
HETATM   23  O   UNL     1      -8.339   9.132  71.363  1.00  0.00    -0.321 OA 
HETATM   24  C   UNL     1      -8.868   9.537  70.327  1.00  0.00    -0.243 C  
BRANCH  24  25
HETATM   25  C   UNL     1     -10.113   8.805  69.830  1.00  0.00    -0.196 C  
BRANCH  25  26
HETATM   26  C   UNL     1     -10.045   7.777  68.763  1.00  0.00    -0.196 A  
HETATM   27  H2  UNL     1      -8.689   6.204  65.043  1.00  0.00     0.000 HD 
HETATM   28  H1  UNL     1      -7.430   7.092  65.899  1.00  0.00     0.000 HD 
HETATM   29  C   UNL     1     -11.153   7.064  68.315  1.00  0.00    -0.006 A  
HETATM   30  N   UNL     1      -8.923   7.596  67.959  1.00  0.00    -0.127 NA 
HETATM   31  N   UNL     1      -8.380   6.721  65.867  1.00  0.00    -0.132 NA 
HETATM   32  S   UNL     1     -10.821   6.282  66.832  1.00  0.00    -0.303 SA 
HETATM   33  C   UNL     1      -9.229   6.902  66.887  1.00  0.00    -0.145 A  
ENDBRANCH  25  26
BRANCH  25  34
HETATM   34  N   UNL     1     -11.353   9.120  70.090  1.00  0.00    -0.400 NA 
HETATM   35  H   UNL     1     -11.958   9.328  69.295  1.00  0.00     0.000 HD 
BRANCH  34  36
HETATM   36  O   UNL     1     -11.926   9.199  71.367  1.00  0.00    -0.297 OA 
HETATM   37  C   UNL     1     -13.049   8.415  71.677  1.00  0.00    -0.334 C  
ENDBRANCH  34  36
ENDBRANCH  25  34
ENDBRANCH  24  25
ENDBRANCH   7  21
TORSDOF 8
ENDMDL
MODEL       71
REMARK 921   NORMALIZED FREE ENERGY PREDICTED BY IDOCK:   -6.00 KCAL/MOL
REMARK 922        TOTAL FREE ENERGY PREDICTED BY IDOCK:   -9.97 KCAL/MOL
REMARK 923 INTER-LIGAND FREE ENERGY PREDICTED BY IDOCK:   -7.96 KCAL/MOL
REMARK 924 INTRA-LIGAND FREE ENERGY PREDICTED BY IDOCK:   -2.01 KCAL/MOL
REMARK 927      BINDING AFFINITY PREDICTED BY RF-SCORE:    0.00 PKD
ROOT
HETATM    1  C   UNL     1      -9.719  10.938  65.454  1.00  0.00    -0.238 C  
HETATM    2  S   UNL     1      -8.021  10.461  65.630  1.00  0.00    -0.151 SA 
HETATM    3  C   UNL     1      -7.845  10.200  67.413  1.00  0.00    -0.102 C  
HETATM    4  C   UNL     1      -9.081  10.258  68.280  1.00  0.00    -0.139 C  
HETATM    5  O   UNL     1     -12.425  12.433  66.382  1.00  0.00    -0.418 OA 
HETATM    6  CA  UNL     1     -10.294  10.715  67.883  1.00  0.00    -0.199 C  
HETATM    7  CA  UNL     1     -10.361  12.278  64.853  1.00  0.00    -0.290 C  
HETATM    8  N   UNL     1     -10.462  11.235  66.641  1.00  0.00    -0.238 N  
HETATM    9  C   UNL     1     -11.437  10.716  68.861  1.00  0.00    -0.265 C  
HETATM   10  OXT UNL     1     -11.534   9.880  69.750  1.00  0.00    -0.221 OA 
HETATM   11  C   UNL     1     -11.383  11.990  66.000  1.00  0.00    -0.343 C  
HETATM   12  O   UNL     1     -12.377  11.665  68.733  1.00  0.00    -0.374 OA 
ENDROOT
BRANCH   4  13
HETATM   13  C   UNL     1      -8.744   9.894  69.734  1.00  0.00    -0.212 C  
BRANCH  13  14
HETATM   14  S   UNL     1      -8.119   8.191  69.774  1.00  0.00    -0.118 SA 
BRANCH  14  15
HETATM   15  C   UNL     1      -9.553   7.316  70.154  1.00  0.00    -0.168 A  
HETATM   16  N   UNL     1      -9.983   6.969  71.344  1.00  0.00    -0.185 NA 
HETATM   17  C   UNL     1     -10.330   6.890  67.784  1.00  0.00    -0.203 C  
HETATM   18  N   UNL     1     -11.076   6.158  71.120  1.00  0.00    -0.292 NA 
HETATM   19  N   UNL     1     -10.371   6.766  69.214  1.00  0.00    -0.190 NA 
HETATM   20  N   UNL     1     -11.316   6.024  69.821  1.00  0.00    -0.380 NA 
ENDBRANCH  14  15
ENDBRANCH  13  14
ENDBRANCH   4  13
BRANCH   7  21
HETATM   21  N   UNL     1      -9.968  13.762  64.870  1.00  0.00    -0.620 N  
HETATM   22  H   UNL     1      -9.884  14.148  63.930  1.00  0.00     0.000 HD 
HETATM   23  O   UNL     1      -9.437  15.870  65.495  1.00  0.00    -0.369 OA 
HETATM   24  C   UNL     1      -9.694  14.724  65.866  1.00  0.00    -0.323 C  
BRANCH  24  25
HETATM   25  C   UNL     1      -9.494  14.392  67.344  1.00  0.00    -0.207 C  
BRANCH  25  26
HETATM   26  C   UNL     1     -10.400  14.916  68.394  1.00  0.00    -0.233 A  
HETATM   27  H2  UNL     1     -11.801  15.299  72.400  1.00  0.00     0.000 HD 
HETATM   28  H1  UNL     1     -10.043  15.204  72.305  1.00  0.00     0.000 HD 
HETATM   29  C   UNL     1     -11.774  15.054  68.221  1.00  0.00    -0.314 A  
HETATM   30  N   UNL     1      -9.999  15.099  69.714  1.00  0.00    -0.185 NA 
HETATM   31  N   UNL     1     -10.950  15.242  71.839  1.00  0.00    -0.158 NA 
HETATM   32  S   UNL     1     -12.561  15.282  69.722  1.00  0.00    -0.018 SA 
HETATM   33  C   UNL     1     -11.042  15.219  70.503  1.00  0.00    -0.306 A  
ENDBRANCH  25  26
BRANCH  25  34
HETATM   34  N   UNL     1      -8.443  13.829  67.876  1.00  0.00    -0.163 NA 
HETATM   35  H   UNL     1      -8.605  13.153  68.623  1.00  0.00     0.000 HD 
BRANCH  34  36
HETATM   36  O   UNL     1      -7.112  14.075  67.513  1.00  0.00    -0.176 OA 
HETATM   37  C   UNL     1      -6.552  15.343  67.732  1.00  0.00    -0.157 C  
ENDBRANCH  34  36
ENDBRANCH  25  34
ENDBRANCH  24  25
ENDBRANCH   7  21
TORSDOF 8
ENDMDL
MODEL       72
REMARK 921   NORMALIZED FREE ENERGY PREDICTED BY IDOCK:   -6.00 KCAL/MOL
REMARK 922        TOTAL FREE ENERGY PREDICTED BY IDOCK:   -9.96 KCAL/MOL
REMARK 923 INTER-LIGAND FREE ENERGY PREDICTED BY IDOCK:   -8.41 KCAL/MOL
REMARK 924 INTRA-LIGAND FREE ENERGY PREDICTED BY IDOCK:   -1.55 KCAL/MOL
REMARK 927      BINDING AFFINITY PREDICTED BY RF-SCORE:    0.00 PKD
ROOT
HETATM    1  C   UNL     1      -8.210  11.115  68.233  1.00  0.00    -0.134 C  
HETATM    2  S   UNL     1      -7.009  11.045  69.535  1.00  0.00    -0.103 SA 
HETATM    3  C   UNL     1      -6.775   9.267  69.790  1.00  0.00    -0.051 C  
HETATM    4  C   UNL     1      -7.438   8.304  68.832  1.00  0.00    -0.092 C  
HETATM    5  O   UNL     1     -10.828  10.100  66.640  1.00  0.00    -0.136 OA 
HETATM    6  CA  UNL     1      -8.387   8.634  67.922  1.00  0.00    -0.123 C  
HETATM    7  CA  UNL     1      -9.667  11.782  68.203  1.00  0.00    -0.192 C  
HETATM    8  N   UNL     1      -8.870   9.901  67.858  1.00  0.00    -0.128 N  
HETATM    9  C   UNL     1      -8.959   7.564  67.034  1.00  0.00    -0.130 C  
HETATM   10  OXT UNL     1      -8.304   6.594  66.677  1.00  0.00    -0.112 OA 
HETATM   11  C   UNL     1      -9.936  10.527  67.311  1.00  0.00    -0.186 C  
HETATM   12  O   UNL     1     -10.229   7.699  66.622  1.00  0.00    -0.258 OA 
ENDROOT
BRANCH   4  13
HETATM   13  C   UNL     1      -7.024   6.858  69.142  1.00  0.00    -0.078 C  
BRANCH  13  14
HETATM   14  S   UNL     1      -7.708   6.395  70.758  1.00  0.00    -0.103 SA 
BRANCH  14  15
HETATM   15  C   UNL     1      -9.385   6.696  70.513  1.00  0.00    -0.166 A  
HETATM   16  N   UNL     1     -10.086   7.712  70.959  1.00  0.00    -0.190 NA 
HETATM   17  C   UNL     1      -9.927   4.583  69.229  1.00  0.00    -0.122 C  
HETATM   18  N   UNL     1     -11.396   7.426  70.638  1.00  0.00    -0.278 NA 
HETATM   19  N   UNL     1     -10.227   5.817  69.901  1.00  0.00    -0.213 NA 
HETATM   20  N   UNL     1     -11.492   6.267  69.996  1.00  0.00    -0.426 NA 
ENDBRANCH  14  15
ENDBRANCH  13  14
ENDBRANCH   4  13
BRANCH   7  21
HETATM   21  N   UNL     1     -10.799  11.942  69.227  1.00  0.00    -0.425 N  
HETATM   22  H   UNL     1     -10.891  11.124  69.829  1.00  0.00     0.000 HD 
HETATM   23  O   UNL     1     -12.505  12.730  70.487  1.00  0.00    -0.289 OA 
HETATM   24  C   UNL     1     -11.745  12.942  69.541  1.00  0.00    -0.323 C  
BRANCH  24  25
HETATM   25  C   UNL     1     -12.020  14.163  68.666  1.00  0.00    -0.338 C  
BRANCH  25  26
HETATM   26  C   UNL     1     -11.890  14.115  67.189  1.00  0.00    -0.423 A  
HETATM   27  H2  UNL     1     -11.694  12.129  63.425  1.00  0.00     0.000 HD 
HETATM   28  H1  UNL     1     -12.847  11.377  64.526  1.00  0.00     0.000 HD 
HETATM   29  C   UNL     1     -11.001  14.912  66.474  1.00  0.00    -0.327 A  
HETATM   30  N   UNL     1     -12.470  13.117  66.412  1.00  0.00    -0.363 NA 
HETATM   31  N   UNL     1     -12.178  12.120  64.324  1.00  0.00    -0.392 NA 
HETATM   32  S   UNL     1     -10.804  14.331  64.878  1.00  0.00    -0.419 SA 
HETATM   33  C   UNL     1     -11.925  13.085  65.218  1.00  0.00    -0.407 A  
ENDBRANCH  25  26
BRANCH  25  34
HETATM   34  N   UNL     1     -12.174  15.393  69.078  1.00  0.00    -0.610 NA 
HETATM   35  H   UNL     1     -11.927  16.137  68.425  1.00  0.00     0.000 HD 
BRANCH  34  36
HETATM   36  O   UNL     1     -12.647  15.780  70.339  1.00  0.00    -0.402 OA 
HETATM   37  C   UNL     1     -11.739  15.999  71.387  1.00  0.00    -0.473 C  
ENDBRANCH  34  36
ENDBRANCH  25  34
ENDBRANCH  24  25
ENDBRANCH   7  21
TORSDOF 8
ENDMDL
MODEL       73
REMARK 921   NORMALIZED FREE ENERGY PREDICTED BY IDOCK:   -5.99 KCAL/MOL
REMARK 922        TOTAL FREE ENERGY PREDICTED BY IDOCK:   -9.95 KCAL/MOL
REMARK 923 INTER-LIGAND FREE ENERGY PREDICTED BY IDOCK:   -9.04 KCAL/MOL
REMARK 924 INTRA-LIGAND FREE ENERGY PREDICTED BY IDOCK:   -0.91 KCAL/MOL
REMARK 927      BINDING AFFINITY PREDICTED BY RF-SCORE:    0.00 PKD
ROOT
HETATM    1  C   UNL     1     -10.312  14.138  66.303  1.00  0.00    -0.292 C  
HETATM    2  S   UNL     1      -8.857  13.376  66.968  1.00  0.00    -0.180 SA 
HETATM    3  C   UNL     1      -8.880  11.721  66.232  1.00  0.00    -0.142 C  
HETATM    4  C   UNL     1      -9.917  11.412  65.177  1.00  0.00    -0.310 C  
HETATM    5  O   UNL     1     -13.380  14.153  65.297  1.00  0.00    -0.715 OA 
HETATM    6  CA  UNL     1     -10.990  12.186  64.884  1.00  0.00    -0.309 C  
HETATM    7  CA  UNL     1     -11.592  14.752  67.049  1.00  0.00    -0.339 C  
HETATM    8  N   UNL     1     -11.246  13.310  65.601  1.00  0.00    -0.284 N  
HETATM    9  C   UNL     1     -11.944  11.747  63.807  1.00  0.00    -0.363 C  
HETATM   10  OXT UNL     1     -11.577  11.092  62.840  1.00  0.00     0.361 OA 
HETATM   11  C   UNL     1     -12.289  14.151  65.785  1.00  0.00    -0.461 C  
HETATM   12  O   UNL     1     -13.233  12.102  63.921  1.00  0.00    -0.748 OA 
ENDROOT
BRANCH   4  13
HETATM   13  C   UNL     1      -9.698  10.008  64.594  1.00  0.00    -0.269 C  
BRANCH  13  14
HETATM   14  S   UNL     1      -8.752   9.025  65.791  1.00  0.00    -0.180 SA 
BRANCH  14  15
HETATM   15  C   UNL     1      -7.539   8.340  64.779  1.00  0.00    -0.103 A  
HETATM   16  N   UNL     1      -7.441   7.092  64.387  1.00  0.00    -0.092 NA 
HETATM   17  C   UNL     1      -6.114  10.413  64.503  1.00  0.00    -0.091 C  
HETATM   18  N   UNL     1      -6.231   7.005  63.730  1.00  0.00    -0.043 NA 
HETATM   19  N   UNL     1      -6.440   9.022  64.352  1.00  0.00    -0.074 NA 
HETATM   20  N   UNL     1      -5.611   8.179  63.709  1.00  0.00    -0.053 NA 
ENDBRANCH  14  15
ENDBRANCH  13  14
ENDBRANCH   4  13
BRANCH   7  21
HETATM   21  N   UNL     1     -12.388  14.377  68.307  1.00  0.00    -0.597 N  
HETATM   22  H   UNL     1     -13.123  13.699  68.108  1.00  0.00     0.000 HD 
HETATM   23  O   UNL     1     -13.154  14.188  70.427  1.00  0.00    -0.218 OA 
HETATM   24  C   UNL     1     -12.353  14.740  69.670  1.00  0.00    -0.215 C  
BRANCH  24  25
HETATM   25  C   UNL     1     -11.538  15.907  70.224  1.00  0.00    -0.354 C  
BRANCH  25  26
HETATM   26  C   UNL     1     -10.330  16.417  69.533  1.00  0.00    -0.278 A  
HETATM   27  H2  UNL     1      -6.129  16.944  69.052  1.00  0.00     0.000 HD 
HETATM   28  H1  UNL     1      -6.543  15.344  69.664  1.00  0.00     0.000 HD 
HETATM   29  C   UNL     1     -10.247  17.690  68.976  1.00  0.00    -0.314 A  
HETATM   30  N   UNL     1      -9.101  15.765  69.580  1.00  0.00    -0.253 NA 
HETATM   31  N   UNL     1      -6.836  16.258  69.319  1.00  0.00    -0.202 NA 
HETATM   32  S   UNL     1      -8.624  18.107  68.635  1.00  0.00    -0.220 SA 
HETATM   33  C   UNL     1      -8.133  16.574  69.212  1.00  0.00    -0.087 A  
ENDBRANCH  25  26
BRANCH  25  34
HETATM   34  N   UNL     1     -11.648  16.432  71.415  1.00  0.00    -0.597 NA 
HETATM   35  H   UNL     1     -11.776  17.443  71.468  1.00  0.00     0.000 HD 
BRANCH  34  36
HETATM   36  O   UNL     1     -11.604  15.729  72.626  1.00  0.00    -0.435 OA 
HETATM   37  C   UNL     1     -12.666  15.843  73.537  1.00  0.00    -0.585 C  
ENDBRANCH  34  36
ENDBRANCH  25  34
ENDBRANCH  24  25
ENDBRANCH   7  21
TORSDOF 8
ENDMDL
MODEL       74
REMARK 921   NORMALIZED FREE ENERGY PREDICTED BY IDOCK:   -5.99 KCAL/MOL
REMARK 922        TOTAL FREE ENERGY PREDICTED BY IDOCK:   -9.94 KCAL/MOL
REMARK 923 INTER-LIGAND FREE ENERGY PREDICTED BY IDOCK:   -8.89 KCAL/MOL
REMARK 924 INTRA-LIGAND FREE ENERGY PREDICTED BY IDOCK:   -1.06 KCAL/MOL
REMARK 927      BINDING AFFINITY PREDICTED BY RF-SCORE:    0.00 PKD
ROOT
HETATM    1  C   UNL     1     -11.577  10.904  68.261  1.00  0.00    -0.262 C  
HETATM    2  S   UNL     1     -10.478   9.606  67.765  1.00  0.00    -0.268 SA 
HETATM    3  C   UNL     1     -10.366   8.566  69.243  1.00  0.00    -0.221 C  
HETATM    4  C   UNL     1     -11.267   8.874  70.416  1.00  0.00    -0.259 C  
HETATM    5  O   UNL     1     -12.812  13.013  70.371  1.00  0.00    -0.031 OA 
HETATM    6  CA  UNL     1     -12.002  10.003  70.562  1.00  0.00    -0.272 C  
HETATM    7  CA  UNL     1     -11.346  12.489  68.322  1.00  0.00    -0.286 C  
HETATM    8  N   UNL     1     -11.918  11.004  69.649  1.00  0.00    -0.328 N  
HETATM    9  C   UNL     1     -12.855  10.174  71.789  1.00  0.00    -0.452 C  
HETATM   10  OXT UNL     1     -13.363   9.221  72.366  1.00  0.00    -0.445 OA 
HETATM   11  C   UNL     1     -12.260  12.310  69.578  1.00  0.00    -0.093 C  
HETATM   12  O   UNL     1     -13.062  11.418  72.246  1.00  0.00    -0.365 OA 
ENDROOT
BRANCH   4  13
HETATM   13  C   UNL     1     -11.109   7.815  71.517  1.00  0.00    -0.236 C  
BRANCH  13  14
HETATM   14  S   UNL     1      -9.588   6.875  71.202  1.00  0.00    -0.165 SA 
BRANCH  14  15
HETATM   15  C   UNL     1      -8.545   7.506  72.417  1.00  0.00    -0.122 A  
HETATM   16  N   UNL     1      -8.416   8.760  72.784  1.00  0.00    -0.381 NA 
HETATM   17  C   UNL     1      -7.398   5.339  73.041  1.00  0.00    -0.091 C  
HETATM   18  N   UNL     1      -7.359   8.778  73.670  1.00  0.00    -0.377 NA 
HETATM   19  N   UNL     1      -7.620   6.757  73.080  1.00  0.00    -0.087 NA 
HETATM   20  N   UNL     1      -6.864   7.559  73.852  1.00  0.00    -0.083 NA 
ENDBRANCH  14  15
ENDBRANCH  13  14
ENDBRANCH   4  13
BRANCH   7  21
HETATM   21  N   UNL     1     -10.156  13.392  68.672  1.00  0.00    -0.363 N  
HETATM   22  H   UNL     1      -9.966  13.406  69.674  1.00  0.00     0.000 HD 
HETATM   23  O   UNL     1      -8.371  14.780  68.585  1.00  0.00    -0.152 OA 
HETATM   24  C   UNL     1      -9.258  14.208  67.950  1.00  0.00    -0.196 C  
BRANCH  24  25
HETATM   25  C   UNL     1      -9.440  14.586  66.481  1.00  0.00    -0.289 C  
BRANCH  25  26
HETATM   26  C   UNL     1     -10.313  13.804  65.572  1.00  0.00    -0.321 A  
HETATM   27  H2  UNL     1     -11.054  11.057  62.401  1.00  0.00     0.000 HD 
HETATM   28  H1  UNL     1      -9.671  10.591  63.389  1.00  0.00     0.000 HD 
HETATM   29  C   UNL     1     -11.469  14.318  64.992  1.00  0.00    -0.364 A  
HETATM   30  N   UNL     1      -9.937  12.576  65.036  1.00  0.00    -0.223 NA 
HETATM   31  N   UNL     1     -10.450  11.223  63.207  1.00  0.00    -0.350 NA 
HETATM   32  S   UNL     1     -12.001  13.328  63.703  1.00  0.00    -0.427 SA 
HETATM   33  C   UNL     1     -10.695  12.268  64.008  1.00  0.00    -0.396 A  
ENDBRANCH  25  26
BRANCH  25  34
HETATM   34  N   UNL     1      -8.727  15.450  65.810  1.00  0.00    -0.147 NA 
HETATM   35  H   UNL     1      -8.067  15.077  65.126  1.00  0.00     0.000 HD 
BRANCH  34  36
HETATM   36  O   UNL     1      -8.787  16.843  65.946  1.00  0.00    -0.516 OA 
HETATM   37  C   UNL     1      -9.965  17.448  66.412  1.00  0.00    -0.316 C  
ENDBRANCH  34  36
ENDBRANCH  25  34
ENDBRANCH  24  25
ENDBRANCH   7  21
TORSDOF 8
ENDMDL
MODEL       75
REMARK 921   NORMALIZED FREE ENERGY PREDICTED BY IDOCK:   -5.98 KCAL/MOL
REMARK 922        TOTAL FREE ENERGY PREDICTED BY IDOCK:   -9.94 KCAL/MOL
REMARK 923 INTER-LIGAND FREE ENERGY PREDICTED BY IDOCK:   -8.50 KCAL/MOL
REMARK 924 INTRA-LIGAND FREE ENERGY PREDICTED BY IDOCK:   -1.44 KCAL/MOL
REMARK 927      BINDING AFFINITY PREDICTED BY RF-SCORE:    0.00 PKD
ROOT
HETATM    1  C   UNL     1      -8.641  11.385  66.506  1.00  0.00    -0.175 C  
HETATM    2  S   UNL     1      -8.901  11.848  68.197  1.00  0.00    -0.180 SA 
HETATM    3  C   UNL     1      -9.077  10.256  69.042  1.00  0.00    -0.183 C  
HETATM    4  C   UNL     1      -8.819   8.988  68.262  1.00  0.00    -0.134 C  
HETATM    5  O   UNL     1      -9.125   9.555  63.890  1.00  0.00    -0.230 OA 
HETATM    6  CA  UNL     1      -8.687   8.912  66.915  1.00  0.00    -0.119 C  
HETATM    7  CA  UNL     1      -9.487  11.745  65.193  1.00  0.00    -0.092 C  
HETATM    8  N   UNL     1      -8.852  10.016  66.142  1.00  0.00    -0.145 N  
HETATM    9  C   UNL     1      -8.435   7.575  66.273  1.00  0.00    -0.140 C  
HETATM   10  OXT UNL     1      -7.815   6.687  66.843  1.00  0.00    -0.104 OA 
HETATM   11  C   UNL     1      -9.054  10.286  64.833  1.00  0.00    -0.213 C  
HETATM   12  O   UNL     1      -8.904   7.372  65.033  1.00  0.00     0.117 OA 
ENDROOT
BRANCH   4  13
HETATM   13  C   UNL     1      -8.902   7.758  69.178  1.00  0.00    -0.138 C  
BRANCH  13  14
HETATM   14  S   UNL     1     -10.645   7.287  69.357  1.00  0.00    -0.217 SA 
BRANCH  14  15
HETATM   15  C   UNL     1     -10.815   7.273  71.070  1.00  0.00    -0.239 A  
HETATM   16  N   UNL     1     -10.546   6.283  71.890  1.00  0.00    -0.213 NA 
HETATM   17  C   UNL     1     -11.804   9.587  71.334  1.00  0.00    -0.389 C  
HETATM   18  N   UNL     1     -10.989   6.698  73.128  1.00  0.00    -0.256 NA 
HETATM   19  N   UNL     1     -11.378   8.290  71.781  1.00  0.00    -0.270 NA 
HETATM   20  N   UNL     1     -11.504   7.921  73.069  1.00  0.00    -0.307 NA 
ENDBRANCH  14  15
ENDBRANCH  13  14
ENDBRANCH   4  13
BRANCH   7  21
HETATM   21  N   UNL     1     -10.981  11.931  64.891  1.00  0.00    -0.306 N  
HETATM   22  H   UNL     1     -11.332  11.226  64.243  1.00  0.00     0.000 HD 
HETATM   23  O   UNL     1     -13.126  12.649  64.855  1.00  0.00    -0.850 OA 
HETATM   24  C   UNL     1     -11.988  12.836  65.289  1.00  0.00    -0.429 C  
BRANCH  24  25
HETATM   25  C   UNL     1     -11.718  14.135  66.046  1.00  0.00    -0.382 C  
BRANCH  25  26
HETATM   26  C   UNL     1     -11.947  14.254  67.506  1.00  0.00    -0.376 A  
HETATM   27  H2  UNL     1     -11.270  15.929  71.365  1.00  0.00     0.000 HD 
HETATM   28  H1  UNL     1     -11.212  17.138  70.084  1.00  0.00     0.000 HD 
HETATM   29  C   UNL     1     -12.117  13.157  68.345  1.00  0.00    -0.181 A  
HETATM   30  N   UNL     1     -11.784  15.448  68.202  1.00  0.00    -0.324 NA 
HETATM   31  N   UNL     1     -11.365  16.174  70.378  1.00  0.00    -0.376 NA 
HETATM   32  S   UNL     1     -11.944  13.606  69.986  1.00  0.00    -0.331 SA 
HETATM   33  C   UNL     1     -11.689  15.223  69.492  1.00  0.00    -0.339 A  
ENDBRANCH  25  26
BRANCH  25  34
HETATM   34  N   UNL     1     -11.485  15.306  65.517  1.00  0.00    -0.221 NA 
HETATM   35  H   UNL     1     -12.263  15.966  65.486  1.00  0.00     0.000 HD 
BRANCH  34  36
HETATM   36  O   UNL     1     -10.261  15.736  64.987  1.00  0.00    -0.456 OA 
HETATM   37  C   UNL     1      -9.162  15.930  65.838  1.00  0.00    -0.297 C  
ENDBRANCH  34  36
ENDBRANCH  25  34
ENDBRANCH  24  25
ENDBRANCH   7  21
TORSDOF 8
ENDMDL
MODEL       76
REMARK 921   NORMALIZED FREE ENERGY PREDICTED BY IDOCK:   -5.98 KCAL/MOL
REMARK 922        TOTAL FREE ENERGY PREDICTED BY IDOCK:   -9.93 KCAL/MOL
REMARK 923 INTER-LIGAND FREE ENERGY PREDICTED BY IDOCK:   -8.35 KCAL/MOL
REMARK 924 INTRA-LIGAND FREE ENERGY PREDICTED BY IDOCK:   -1.59 KCAL/MOL
REMARK 927      BINDING AFFINITY PREDICTED BY RF-SCORE:    0.00 PKD
ROOT
HETATM    1  C   UNL     1     -11.037  11.952  64.669  1.00  0.00    -0.317 C  
HETATM    2  S   UNL     1      -9.349  11.589  64.267  1.00  0.00     0.081 SA 
HETATM    3  C   UNL     1      -8.545  11.503  65.887  1.00  0.00     0.009 C  
HETATM    4  C   UNL     1      -9.405  11.572  67.128  1.00  0.00    -0.177 C  
HETATM    5  O   UNL     1     -13.371  13.374  66.388  1.00  0.00     0.531 OA 
HETATM    6  CA  UNL     1     -10.714  11.923  67.154  1.00  0.00    -0.240 C  
HETATM    7  CA  UNL     1     -11.958  13.194  64.245  1.00  0.00    -0.411 C  
HETATM    8  N   UNL     1     -11.345  12.316  66.019  1.00  0.00    -0.334 N  
HETATM    9  C   UNL     1     -11.443  11.950  68.469  1.00  0.00    -0.295 C  
HETATM   10  OXT UNL     1     -11.155  11.195  69.389  1.00  0.00    -0.229 OA 
HETATM   11  C   UNL     1     -12.491  12.956  65.695  1.00  0.00    -0.338 C  
HETATM   12  O   UNL     1     -12.446  12.829  68.617  1.00  0.00     0.130 OA 
ENDROOT
BRANCH   4  13
HETATM   13  C   UNL     1      -8.556  11.363  68.391  1.00  0.00    -0.156 C  
BRANCH  13  14
HETATM   14  S   UNL     1      -8.049   9.622  68.466  1.00  0.00    -0.105 SA 
BRANCH  14  15
HETATM   15  C   UNL     1      -8.619   9.173  70.027  1.00  0.00    -0.163 A  
HETATM   16  N   UNL     1      -8.057   9.430  71.185  1.00  0.00    -0.314 NA 
HETATM   17  C   UNL     1     -10.649   7.857  69.284  1.00  0.00    -0.188 C  
HETATM   18  N   UNL     1      -8.799   8.736  72.118  1.00  0.00    -0.388 NA 
HETATM   19  N   UNL     1      -9.701   8.370  70.232  1.00  0.00    -0.171 NA 
HETATM   20  N   UNL     1      -9.802   8.081  71.543  1.00  0.00    -0.165 NA 
ENDBRANCH  14  15
ENDBRANCH  13  14
ENDBRANCH   4  13
BRANCH   7  21
HETATM   21  N   UNL     1     -11.710  14.692  64.023  1.00  0.00    -0.691 N  
HETATM   22  H   UNL     1     -12.090  15.017  63.134  1.00  0.00     0.000 HD 
HETATM   23  O   UNL     1     -11.110  16.861  64.255  1.00  0.00    -1.135 OA 
HETATM   24  C   UNL     1     -11.086  15.732  64.746  1.00  0.00    -0.400 C  
BRANCH  24  25
HETATM   25  C   UNL     1     -10.215  15.510  65.981  1.00  0.00    -0.330 C  
BRANCH  25  26
HETATM   26  C   UNL     1     -10.489  16.196  67.267  1.00  0.00    -0.309 A  
HETATM   27  H2  UNL     1      -9.926  19.271  70.163  1.00  0.00     0.000 HD 
HETATM   28  H1  UNL     1      -9.825  19.873  68.509  1.00  0.00     0.000 HD 
HETATM   29  C   UNL     1     -10.689  15.520  68.467  1.00  0.00    -0.259 A  
HETATM   30  N   UNL     1     -10.343  17.570  67.436  1.00  0.00    -0.341 NA 
HETATM   31  N   UNL     1      -9.990  19.103  69.158  1.00  0.00    -0.361 NA 
HETATM   32  S   UNL     1     -10.565  16.585  69.799  1.00  0.00    -0.204 SA 
HETATM   33  C   UNL     1     -10.289  17.876  68.712  1.00  0.00    -0.307 A  
ENDBRANCH  25  26
BRANCH  25  34
HETATM   34  N   UNL     1      -9.056  14.909  66.014  1.00  0.00    -0.500 NA 
HETATM   35  H   UNL     1      -8.994  13.992  65.570  1.00  0.00     0.000 HD 
BRANCH  34  36
HETATM   36  O   UNL     1      -7.890  15.412  66.606  1.00  0.00    -0.162 OA 
HETATM   37  C   UNL     1      -7.086  14.569  67.390  1.00  0.00    -0.110 C  
ENDBRANCH  34  36
ENDBRANCH  25  34
ENDBRANCH  24  25
ENDBRANCH   7  21
TORSDOF 8
ENDMDL
MODEL       77
REMARK 921   NORMALIZED FREE ENERGY PREDICTED BY IDOCK:   -5.97 KCAL/MOL
REMARK 922        TOTAL FREE ENERGY PREDICTED BY IDOCK:   -9.92 KCAL/MOL
REMARK 923 INTER-LIGAND FREE ENERGY PREDICTED BY IDOCK:   -8.63 KCAL/MOL
REMARK 924 INTRA-LIGAND FREE ENERGY PREDICTED BY IDOCK:   -1.29 KCAL/MOL
REMARK 927      BINDING AFFINITY PREDICTED BY RF-SCORE:    0.00 PKD
ROOT
HETATM    1  C   UNL     1      -8.302   9.907  67.934  1.00  0.00    -0.114 C  
HETATM    2  S   UNL     1      -9.924   9.706  67.248  1.00  0.00    -0.211 SA 
HETATM    3  C   UNL     1     -10.475  11.410  66.977  1.00  0.00    -0.236 C  
HETATM    4  C   UNL     1      -9.490  12.534  67.196  1.00  0.00    -0.208 C  
HETATM    5  O   UNL     1      -6.086  11.377  69.765  1.00  0.00    -0.093 OA 
HETATM    6  CA  UNL     1      -8.282  12.410  67.801  1.00  0.00    -0.163 C  
HETATM    7  CA  UNL     1      -7.706   9.422  69.341  1.00  0.00    -0.085 C  
HETATM    8  N   UNL     1      -7.896  11.221  68.330  1.00  0.00    -0.128 N  
HETATM    9  C   UNL     1      -7.406  13.622  67.952  1.00  0.00    -0.148 C  
HETATM   10  OXT UNL     1      -7.417  14.539  67.140  1.00  0.00    -0.153 OA 
HETATM   11  C   UNL     1      -6.950  10.783  69.191  1.00  0.00    -0.091 C  
HETATM   12  O   UNL     1      -6.584  13.680  69.011  1.00  0.00    -0.099 OA 
ENDROOT
BRANCH   4  13
HETATM   13  C   UNL     1     -10.107  13.884  66.802  1.00  0.00    -0.265 C  
BRANCH  13  14
HETATM   14  S   UNL     1     -11.912  13.758  66.947  1.00  0.00    -0.414 SA 
BRANCH  14  15
HETATM   15  C   UNL     1     -12.364  13.510  65.304  1.00  0.00    -0.467 A  
HETATM   16  N   UNL     1     -12.859  12.419  64.770  1.00  0.00    -0.761 NA 
HETATM   17  C   UNL     1     -11.646  15.765  64.408  1.00  0.00    -0.240 C  
HETATM   18  N   UNL     1     -12.907  12.660  63.413  1.00  0.00    -0.659 NA 
HETATM   19  N   UNL     1     -12.140  14.420  64.315  1.00  0.00    -0.490 NA 
HETATM   20  N   UNL     1     -12.465  13.879  63.126  1.00  0.00    -0.640 NA 
ENDBRANCH  14  15
ENDBRANCH  13  14
ENDBRANCH   4  13
BRANCH   7  21
HETATM   21  N   UNL     1      -8.269   9.297  70.764  1.00  0.00    -0.182 N  
HETATM   22  H   UNL     1      -7.606   9.617  71.469  1.00  0.00     0.000 HD 
HETATM   23  O   UNL     1      -9.595   8.931  72.560  1.00  0.00    -0.252 OA 
HETATM   24  C   UNL     1      -9.479   8.848  71.336  1.00  0.00    -0.274 C  
BRANCH  24  25
HETATM   25  C   UNL     1     -10.557   8.085  70.568  1.00  0.00    -0.220 C  
BRANCH  25  26
HETATM   26  C   UNL     1     -10.249   6.859  69.794  1.00  0.00    -0.196 A  
HETATM   27  H2  UNL     1      -7.657   4.201  67.702  1.00  0.00     0.000 HD 
HETATM   28  H1  UNL     1      -6.889   4.921  69.116  1.00  0.00     0.000 HD 
HETATM   29  C   UNL     1     -11.074   6.360  68.791  1.00  0.00    -0.326 A  
HETATM   30  N   UNL     1      -9.008   6.230  69.837  1.00  0.00    -0.140 NA 
HETATM   31  N   UNL     1      -7.713   4.799  68.528  1.00  0.00    -0.077 NA 
HETATM   32  S   UNL     1     -10.250   5.206  67.835  1.00  0.00    -0.079 SA 
HETATM   33  C   UNL     1      -8.869   5.410  68.821  1.00  0.00    -0.103 A  
ENDBRANCH  25  26
BRANCH  25  34
HETATM   34  N   UNL     1     -11.768   8.502  70.314  1.00  0.00    -0.471 NA 
HETATM   35  H   UNL     1     -12.321   7.952  69.656  1.00  0.00     0.000 HD 
BRANCH  34  36
HETATM   36  O   UNL     1     -12.374   9.639  70.864  1.00  0.00    -0.299 OA 
HETATM   37  C   UNL     1     -12.237  10.882  70.225  1.00  0.00    -0.348 C  
ENDBRANCH  34  36
ENDBRANCH  25  34
ENDBRANCH  24  25
ENDBRANCH   7  21
TORSDOF 8
ENDMDL
MODEL       78
REMARK 921   NORMALIZED FREE ENERGY PREDICTED BY IDOCK:   -5.94 KCAL/MOL
REMARK 922        TOTAL FREE ENERGY PREDICTED BY IDOCK:   -9.87 KCAL/MOL
REMARK 923 INTER-LIGAND FREE ENERGY PREDICTED BY IDOCK:   -7.56 KCAL/MOL
REMARK 924 INTRA-LIGAND FREE ENERGY PREDICTED BY IDOCK:   -2.31 KCAL/MOL
REMARK 927      BINDING AFFINITY PREDICTED BY RF-SCORE:    0.00 PKD
ROOT
HETATM    1  C   UNL     1     -11.691   6.739  71.349  1.00  0.00    -0.325 C  
HETATM    2  S   UNL     1     -11.957   8.214  72.294  1.00  0.00    -0.378 SA 
HETATM    3  C   UNL     1     -11.351   9.525  71.201  1.00  0.00    -0.370 C  
HETATM    4  C   UNL     1     -10.951   9.164  69.790  1.00  0.00    -0.195 C  
HETATM    5  O   UNL     1     -10.055   4.866  69.290  1.00  0.00    -0.209 OA 
HETATM    6  CA  UNL     1     -10.783   7.902  69.322  1.00  0.00    -0.135 C  
HETATM    7  CA  UNL     1     -10.812   5.440  71.682  1.00  0.00    -0.162 C  
HETATM    8  N   UNL     1     -10.908   6.837  70.154  1.00  0.00    -0.249 N  
HETATM    9  C   UNL     1     -10.378   7.695  67.889  1.00  0.00    -0.212 C  
HETATM   10  OXT UNL     1     -10.708   8.470  67.001  1.00  0.00    -0.275 OA 
HETATM   11  C   UNL     1     -10.578   5.526  70.138  1.00  0.00    -0.297 C  
HETATM   12  O   UNL     1      -9.639   6.616  67.591  1.00  0.00    -0.124 OA 
ENDROOT
BRANCH   4  13
HETATM   13  C   UNL     1     -10.582  10.422  68.990  1.00  0.00    -0.221 C  
BRANCH  13  14
HETATM   14  S   UNL     1     -11.711  11.761  69.465  1.00  0.00    -0.355 SA 
BRANCH  14  15
HETATM   15  C   UNL     1     -11.883  12.602  67.973  1.00  0.00    -0.323 A  
HETATM   16  N   UNL     1     -12.042  12.081  66.779  1.00  0.00    -0.542 NA 
HETATM   17  C   UNL     1     -11.597  14.951  68.869  1.00  0.00    -0.315 C  
HETATM   18  N   UNL     1     -11.973  13.142  65.901  1.00  0.00    -0.405 NA 
HETATM   19  N   UNL     1     -11.752  13.952  67.849  1.00  0.00    -0.341 NA 
HETATM   20  N   UNL     1     -11.790  14.288  66.546  1.00  0.00    -0.402 NA 
ENDBRANCH  14  15
ENDBRANCH  13  14
ENDBRANCH   4  13
BRANCH   7  21
HETATM   21  N   UNL     1      -9.475   5.198  72.396  1.00  0.00    -0.143 N  
HETATM   22  H   UNL     1      -9.445   4.290  72.858  1.00  0.00     0.000 HD 
HETATM   23  O   UNL     1      -7.367   5.378  73.198  1.00  0.00    -0.088 OA 
HETATM   24  C   UNL     1      -8.277   5.923  72.570  1.00  0.00    -0.116 C  
BRANCH  24  25
HETATM   25  C   UNL     1      -8.111   7.399  72.214  1.00  0.00    -0.101 C  
BRANCH  25  26
HETATM   26  C   UNL     1      -7.379   7.836  71.000  1.00  0.00    -0.072 A  
HETATM   27  H2  UNL     1      -6.759  10.307  67.585  1.00  0.00     0.000 HD 
HETATM   28  H1  UNL     1      -7.386  11.207  68.965  1.00  0.00     0.000 HD 
HETATM   29  C   UNL     1      -6.819   6.950  70.085  1.00  0.00    -0.057 A  
HETATM   30  N   UNL     1      -7.386   9.152  70.547  1.00  0.00    -0.088 NA 
HETATM   31  N   UNL     1      -7.051  10.332  68.563  1.00  0.00    -0.073 NA 
HETATM   32  S   UNL     1      -6.425   7.746  68.623  1.00  0.00    -0.050 SA 
HETATM   33  C   UNL     1      -6.986   9.213  69.297  1.00  0.00    -0.053 A  
ENDBRANCH  25  26
BRANCH  25  34
HETATM   34  N   UNL     1      -8.370   8.417  72.990  1.00  0.00    -0.354 NA 
HETATM   35  H   UNL     1      -8.986   9.141  72.618  1.00  0.00     0.000 HD 
BRANCH  34  36
HETATM   36  O   UNL     1      -7.877   8.603  74.289  1.00  0.00    -0.390 OA 
HETATM   37  C   UNL     1      -6.492   8.632  74.511  1.00  0.00    -0.138 C  
ENDBRANCH  34  36
ENDBRANCH  25  34
ENDBRANCH  24  25
ENDBRANCH   7  21
TORSDOF 8
ENDMDL
MODEL       79
REMARK 921   NORMALIZED FREE ENERGY PREDICTED BY IDOCK:   -5.93 KCAL/MOL
REMARK 922        TOTAL FREE ENERGY PREDICTED BY IDOCK:   -9.86 KCAL/MOL
REMARK 923 INTER-LIGAND FREE ENERGY PREDICTED BY IDOCK:   -8.21 KCAL/MOL
REMARK 924 INTRA-LIGAND FREE ENERGY PREDICTED BY IDOCK:   -1.65 KCAL/MOL
REMARK 927      BINDING AFFINITY PREDICTED BY RF-SCORE:    0.00 PKD
ROOT
HETATM    1  C   UNL     1      -9.663  10.888  69.155  1.00  0.00    -0.122 C  
HETATM    2  S   UNL     1     -11.378  11.315  69.029  1.00  0.00    -0.309 SA 
HETATM    3  C   UNL     1     -12.159  10.285  70.297  1.00  0.00    -0.249 C  
HETATM    4  C   UNL     1     -11.276   9.488  71.229  1.00  0.00    -0.452 C  
HETATM    5  O   UNL     1      -7.207   8.846  69.629  1.00  0.00    -0.053 OA 
HETATM    6  CA  UNL     1      -9.945   9.288  71.065  1.00  0.00    -0.293 C  
HETATM    7  CA  UNL     1      -8.665  10.273  68.061  1.00  0.00    -0.122 C  
HETATM    8  N   UNL     1      -9.307   9.760  69.963  1.00  0.00    -0.238 N  
HETATM    9  C   UNL     1      -9.193   8.467  72.076  1.00  0.00    -0.234 C  
HETATM   10  OXT UNL     1      -9.517   8.431  73.256  1.00  0.00    -0.199 OA 
HETATM   11  C   UNL     1      -8.125   9.554  69.340  1.00  0.00    -0.116 C  
HETATM   12  O   UNL     1      -8.130   7.765  71.655  1.00  0.00    -0.097 OA 
ENDROOT
BRANCH   4  13
HETATM   13  C   UNL     1     -12.115   8.780  72.302  1.00  0.00    -0.353 C  
BRANCH  13  14
HETATM   14  S   UNL     1     -12.991   7.391  71.527  1.00  0.00    -0.358 SA 
BRANCH  14  15
HETATM   15  C   UNL     1     -11.774   6.174  71.544  1.00  0.00    -0.201 A  
HETATM   16  N   UNL     1     -11.336   5.500  72.581  1.00  0.00    -0.295 NA 
HETATM   17  C   UNL     1     -11.141   6.291  69.097  1.00  0.00    -0.390 C  
HETATM   18  N   UNL     1     -10.265   4.765  72.118  1.00  0.00    -0.191 NA 
HETATM   19  N   UNL     1     -11.021   5.846  70.457  1.00  0.00    -0.303 NA 
HETATM   20  N   UNL     1     -10.062   4.975  70.822  1.00  0.00    -0.229 NA 
ENDBRANCH  14  15
ENDBRANCH  13  14
ENDBRANCH   4  13
BRANCH   7  21
HETATM   21  N   UNL     1      -8.812   9.258  66.919  1.00  0.00    -0.126 N  
HETATM   22  H   UNL     1      -8.702   8.298  67.243  1.00  0.00     0.000 HD 
HETATM   23  O   UNL     1      -9.152   8.263  64.917  1.00  0.00     0.129 OA 
HETATM   24  C   UNL     1      -9.062   9.326  65.532  1.00  0.00    -0.221 C  
BRANCH  24  25
HETATM   25  C   UNL     1      -9.023  10.619  64.719  1.00  0.00    -0.199 C  
BRANCH  25  26
HETATM   26  C   UNL     1     -10.073  11.658  64.848  1.00  0.00    -0.260 A  
HETATM   27  H2  UNL     1     -12.942  14.413  63.320  1.00  0.00     0.000 HD 
HETATM   28  H1  UNL     1     -12.879  12.917  62.390  1.00  0.00     0.000 HD 
HETATM   29  C   UNL     1     -10.006  12.703  65.765  1.00  0.00    -0.256 A  
HETATM   30  N   UNL     1     -11.096  11.818  63.918  1.00  0.00    -0.380 NA 
HETATM   31  N   UNL     1     -12.564  13.474  63.184  1.00  0.00    -0.693 NA 
HETATM   32  S   UNL     1     -11.134  13.929  65.381  1.00  0.00    -0.322 SA 
HETATM   33  C   UNL     1     -11.663  12.995  64.051  1.00  0.00    -0.436 A  
ENDBRANCH  25  26
BRANCH  25  34
HETATM   34  N   UNL     1      -8.243  10.871  63.702  1.00  0.00    -0.367 NA 
HETATM   35  H   UNL     1      -8.300  11.804  63.292  1.00  0.00     0.000 HD 
BRANCH  34  36
HETATM   36  O   UNL     1      -7.336   9.973  63.124  1.00  0.00    -0.128 OA 
HETATM   37  C   UNL     1      -5.964  10.272  63.121  1.00  0.00    -0.148 C  
ENDBRANCH  34  36
ENDBRANCH  25  34
ENDBRANCH  24  25
ENDBRANCH   7  21
TORSDOF 8
ENDMDL
MODEL       80
REMARK 921   NORMALIZED FREE ENERGY PREDICTED BY IDOCK:   -5.92 KCAL/MOL
REMARK 922        TOTAL FREE ENERGY PREDICTED BY IDOCK:   -9.85 KCAL/MOL
REMARK 923 INTER-LIGAND FREE ENERGY PREDICTED BY IDOCK:   -8.58 KCAL/MOL
REMARK 924 INTRA-LIGAND FREE ENERGY PREDICTED BY IDOCK:   -1.27 KCAL/MOL
REMARK 927      BINDING AFFINITY PREDICTED BY RF-SCORE:    0.00 PKD
ROOT
HETATM    1  C   UNL     1     -10.273   8.601  68.038  1.00  0.00    -0.210 C  
HETATM    2  S   UNL     1     -10.638   9.885  69.204  1.00  0.00    -0.229 SA 
HETATM    3  C   UNL     1     -10.443  11.400  68.231  1.00  0.00    -0.198 C  
HETATM    4  C   UNL     1     -10.209  11.280  66.743  1.00  0.00    -0.263 C  
HETATM    5  O   UNL     1      -8.678   7.313  65.544  1.00  0.00    -0.122 OA 
HETATM    6  CA  UNL     1      -9.902  10.133  66.089  1.00  0.00    -0.237 C  
HETATM    7  CA  UNL     1      -9.144   7.463  68.071  1.00  0.00    -0.130 C  
HETATM    8  N   UNL     1      -9.713   8.978  66.775  1.00  0.00    -0.196 N  
HETATM    9  C   UNL     1      -9.694  10.167  64.600  1.00  0.00    -0.309 C  
HETATM   10  OXT UNL     1     -10.285  10.959  63.878  1.00  0.00    -0.327 OA 
HETATM   11  C   UNL     1      -9.170   7.763  66.536  1.00  0.00    -0.184 C  
HETATM   12  O   UNL     1      -8.836   9.287  64.062  1.00  0.00    -0.205 OA 
ENDROOT
BRANCH   4  13
HETATM   13  C   UNL     1     -10.189  12.666  66.082  1.00  0.00    -0.258 C  
BRANCH  13  14
HETATM   14  S   UNL     1     -11.798  13.461  66.357  1.00  0.00    -0.411 SA 
BRANCH  14  15
HETATM   15  C   UNL     1     -11.626  14.898  65.424  1.00  0.00    -0.280 A  
HETATM   16  N   UNL     1     -12.107  15.133  64.226  1.00  0.00    -0.508 NA 
HETATM   17  C   UNL     1     -10.137  16.169  67.028  1.00  0.00    -0.270 C  
HETATM   18  N   UNL     1     -11.574  16.347  63.846  1.00  0.00    -1.054 NA 
HETATM   19  N   UNL     1     -10.843  15.949  65.797  1.00  0.00    -0.291 NA 
HETATM   20  N   UNL     1     -10.796  16.850  64.797  1.00  0.00    -0.816 NA 
ENDBRANCH  14  15
ENDBRANCH  13  14
ENDBRANCH   4  13
BRANCH   7  21
HETATM   21  N   UNL     1      -7.691   7.402  68.562  1.00  0.00    -0.117 N  
HETATM   22  H   UNL     1      -7.047   7.128  67.821  1.00  0.00     0.000 HD 
HETATM   23  O   UNL     1      -5.801   7.514  69.800  1.00  0.00    -0.023 OA 
HETATM   24  C   UNL     1      -7.028   7.629  69.787  1.00  0.00    -0.051 C  
BRANCH  24  25
HETATM   25  C   UNL     1      -7.741   7.805  71.126  1.00  0.00    -0.084 C  
BRANCH  25  26
HETATM   26  C   UNL     1      -8.776   6.852  71.594  1.00  0.00    -0.124 A  
HETATM   27  H2  UNL     1     -10.936   3.181  71.473  1.00  0.00     0.000 HD 
HETATM   28  H1  UNL     1      -9.224   2.970  71.110  1.00  0.00     0.000 HD 
HETATM   29  C   UNL     1     -10.054   7.241  71.983  1.00  0.00    -0.184 A  
HETATM   30  N   UNL     1      -8.645   5.472  71.468  1.00  0.00    -0.130 NA 
HETATM   31  N   UNL     1      -9.999   3.576  71.379  1.00  0.00    -0.141 NA 
HETATM   32  S   UNL     1     -11.108   5.896  72.063  1.00  0.00    -0.268 SA 
HETATM   33  C   UNL     1      -9.808   4.881  71.612  1.00  0.00    -0.184 A  
ENDBRANCH  25  26
BRANCH  25  34
HETATM   34  N   UNL     1      -7.709   8.865  71.887  1.00  0.00    -0.337 NA 
HETATM   35  H   UNL     1      -8.492   9.516  71.813  1.00  0.00     0.000 HD 
BRANCH  34  36
HETATM   36  O   UNL     1      -6.694   9.189  72.797  1.00  0.00    -0.316 OA 
HETATM   37  C   UNL     1      -6.415   8.325  73.868  1.00  0.00    -0.121 C  
ENDBRANCH  34  36
ENDBRANCH  25  34
ENDBRANCH  24  25
ENDBRANCH   7  21
TORSDOF 8
ENDMDL
MODEL       81
REMARK 921   NORMALIZED FREE ENERGY PREDICTED BY IDOCK:   -5.89 KCAL/MOL
REMARK 922        TOTAL FREE ENERGY PREDICTED BY IDOCK:   -9.80 KCAL/MOL
REMARK 923 INTER-LIGAND FREE ENERGY PREDICTED BY IDOCK:   -8.45 KCAL/MOL
REMARK 924 INTRA-LIGAND FREE ENERGY PREDICTED BY IDOCK:   -1.36 KCAL/MOL
REMARK 927      BINDING AFFINITY PREDICTED BY RF-SCORE:    0.00 PKD
ROOT
HETATM    1  C   UNL     1     -11.287  11.006  67.686  1.00  0.00    -0.281 C  
HETATM    2  S   UNL     1     -10.236  10.198  66.509  1.00  0.00    -0.204 SA 
HETATM    3  C   UNL     1      -9.747   8.677  67.362  1.00  0.00    -0.175 C  
HETATM    4  C   UNL     1     -10.398   8.347  68.685  1.00  0.00    -0.222 C  
HETATM    5  O   UNL     1     -12.182  11.871  70.665  1.00  0.00    -0.371 OA 
HETATM    6  CA  UNL     1     -11.157   9.198  69.418  1.00  0.00    -0.008 C  
HETATM    7  CA  UNL     1     -11.152  12.446  68.377  1.00  0.00    -0.250 C  
HETATM    8  N   UNL     1     -11.332  10.484  69.018  1.00  0.00    -0.260 N  
HETATM    9  C   UNL     1     -11.740   8.729  70.722  1.00  0.00    -0.219 C  
HETATM   10  OXT UNL     1     -12.052   7.561  70.913  1.00  0.00    -0.293 OA 
HETATM   11  C   UNL     1     -11.766  11.640  69.569  1.00  0.00    -0.344 C  
HETATM   12  O   UNL     1     -11.926   9.636  71.694  1.00  0.00    -0.371 OA 
ENDROOT
BRANCH   4  13
HETATM   13  C   UNL     1      -9.942   6.969  69.187  1.00  0.00    -0.165 C  
BRANCH  13  14
HETATM   14  S   UNL     1      -8.363   7.164  70.060  1.00  0.00    -0.139 SA 
BRANCH  14  15
HETATM   15  C   UNL     1      -8.643   6.225  71.475  1.00  0.00    -0.131 A  
HETATM   16  N   UNL     1      -9.147   5.015  71.542  1.00  0.00    -0.138 NA 
HETATM   17  C   UNL     1      -7.920   7.950  73.179  1.00  0.00    -0.150 C  
HETATM   18  N   UNL     1      -9.318   4.759  72.886  1.00  0.00    -0.127 NA 
HETATM   19  N   UNL     1      -8.472   6.699  72.741  1.00  0.00    -0.119 NA 
HETATM   20  N   UNL     1      -8.913   5.785  73.626  1.00  0.00    -0.128 NA 
ENDBRANCH  14  15
ENDBRANCH  13  14
ENDBRANCH   4  13
BRANCH   7  21
HETATM   21  N   UNL     1      -9.975  13.294  68.878  1.00  0.00    -0.431 N  
HETATM   22  H   UNL     1      -9.250  12.725  69.314  1.00  0.00     0.000 HD 
HETATM   23  O   UNL     1      -8.559  14.992  69.357  1.00  0.00    -0.192 OA 
HETATM   24  C   UNL     1      -9.649  14.667  68.883  1.00  0.00    -0.184 C  
BRANCH  24  25
HETATM   25  C   UNL     1     -10.633  15.781  68.532  1.00  0.00    -0.253 C  
BRANCH  25  26
HETATM   26  C   UNL     1     -10.184  17.072  67.957  1.00  0.00    -0.319 A  
HETATM   27  H2  UNL     1      -7.537  19.556  65.727  1.00  0.00     0.000 HD 
HETATM   28  H1  UNL     1      -7.722  17.955  65.014  1.00  0.00     0.000 HD 
HETATM   29  C   UNL     1     -10.255  18.281  68.643  1.00  0.00    -0.353 A  
HETATM   30  N   UNL     1      -9.445  17.159  66.782  1.00  0.00    -0.257 NA 
HETATM   31  N   UNL     1      -7.975  18.635  65.732  1.00  0.00    -0.464 NA 
HETATM   32  S   UNL     1      -9.296  19.475  67.883  1.00  0.00    -0.345 SA 
HETATM   33  C   UNL     1      -8.873  18.337  66.680  1.00  0.00    -0.284 A  
ENDBRANCH  25  26
BRANCH  25  34
HETATM   34  N   UNL     1     -11.892  15.840  68.877  1.00  0.00    -0.493 NA 
HETATM   35  H   UNL     1     -12.522  16.345  68.253  1.00  0.00     0.000 HD 
BRANCH  34  36
HETATM   36  O   UNL     1     -12.452  15.271  70.028  1.00  0.00    -0.339 OA 
HETATM   37  C   UNL     1     -12.051  15.723  71.295  1.00  0.00    -0.437 C  
ENDBRANCH  34  36
ENDBRANCH  25  34
ENDBRANCH  24  25
ENDBRANCH   7  21
TORSDOF 8
ENDMDL
MODEL       82
REMARK 921   NORMALIZED FREE ENERGY PREDICTED BY IDOCK:   -5.87 KCAL/MOL
REMARK 922        TOTAL FREE ENERGY PREDICTED BY IDOCK:   -9.78 KCAL/MOL
REMARK 923 INTER-LIGAND FREE ENERGY PREDICTED BY IDOCK:   -8.62 KCAL/MOL
REMARK 924 INTRA-LIGAND FREE ENERGY PREDICTED BY IDOCK:   -1.16 KCAL/MOL
REMARK 927      BINDING AFFINITY PREDICTED BY RF-SCORE:    0.00 PKD
ROOT
HETATM    1  C   UNL     1      -8.847  10.308  65.598  1.00  0.00    -0.168 C  
HETATM    2  S   UNL     1      -9.484   9.856  67.188  1.00  0.00    -0.162 SA 
HETATM    3  C   UNL     1      -9.391   8.047  67.176  1.00  0.00    -0.149 C  
HETATM    4  C   UNL     1      -8.702   7.365  66.017  1.00  0.00    -0.171 C  
HETATM    5  O   UNL     1      -8.427   9.916  62.420  1.00  0.00    -0.132 OA 
HETATM    6  CA  UNL     1      -8.339   7.967  64.858  1.00  0.00    -0.099 C  
HETATM    7  CA  UNL     1      -9.532  11.130  64.403  1.00  0.00    -0.220 C  
HETATM    8  N   UNL     1      -8.647   9.270  64.632  1.00  0.00    -0.178 N  
HETATM    9  C   UNL     1      -7.660   7.157  63.788  1.00  0.00    -0.109 C  
HETATM   10  OXT UNL     1      -6.939   6.204  64.052  1.00  0.00    -0.043 OA 
HETATM   11  C   UNL     1      -8.695  10.105  63.570  1.00  0.00    -0.216 C  
HETATM   12  O   UNL     1      -7.856   7.511  62.509  1.00  0.00    -0.117 OA 
ENDROOT
BRANCH   4  13
HETATM   13  C   UNL     1      -8.622   5.849  66.248  1.00  0.00    -0.132 C  
BRANCH  13  14
HETATM   14  S   UNL     1     -10.296   5.222  66.562  1.00  0.00    -0.291 SA 
BRANCH  14  15
HETATM   15  C   UNL     1     -10.175   4.752  68.214  1.00  0.00     0.016 A  
HETATM   16  N   UNL     1     -10.444   5.480  69.271  1.00  0.00    -0.267 NA 
HETATM   17  C   UNL     1      -9.244   2.429  67.840  1.00  0.00    -0.202 C  
HETATM   18  N   UNL     1     -10.045   4.723  70.353  1.00  0.00    -0.244 NA 
HETATM   19  N   UNL     1      -9.654   3.561  68.622  1.00  0.00    -0.129 NA 
HETATM   20  N   UNL     1      -9.556   3.551  69.964  1.00  0.00    -0.183 NA 
ENDBRANCH  14  15
ENDBRANCH  13  14
ENDBRANCH   4  13
BRANCH   7  21
HETATM   21  N   UNL     1     -10.955  11.220  63.836  1.00  0.00    -0.489 N  
HETATM   22  H   UNL     1     -11.090  10.599  63.038  1.00  0.00     0.000 HD 
HETATM   23  O   UNL     1     -13.128  11.729  63.469  1.00  0.00    -0.617 OA 
HETATM   24  C   UNL     1     -12.122  11.950  64.145  1.00  0.00    -0.298 C  
BRANCH  24  25
HETATM   25  C   UNL     1     -12.161  13.128  65.116  1.00  0.00    -0.450 C  
BRANCH  25  26
HETATM   26  C   UNL     1     -11.564  13.049  66.471  1.00  0.00    -0.356 A  
HETATM   27  H2  UNL     1     -11.693  12.397  70.679  1.00  0.00     0.000 HD 
HETATM   28  H1  UNL     1     -12.744  11.294  69.793  1.00  0.00     0.000 HD 
HETATM   29  C   UNL     1     -10.619  13.953  66.945  1.00  0.00    -0.280 A  
HETATM   30  N   UNL     1     -12.058  12.209  67.465  1.00  0.00    -0.499 NA 
HETATM   31  N   UNL     1     -12.053  12.045  69.792  1.00  0.00    -0.278 NA 
HETATM   32  S   UNL     1     -10.452  13.833  68.642  1.00  0.00    -0.217 SA 
HETATM   33  C   UNL     1     -11.610  12.575  68.644  1.00  0.00    -0.314 A  
ENDBRANCH  25  26
BRANCH  25  34
HETATM   34  N   UNL     1     -12.874  14.215  64.987  1.00  0.00    -0.713 NA 
HETATM   35  H   UNL     1     -13.671  14.326  65.615  1.00  0.00     0.000 HD 
BRANCH  34  36
HETATM   36  O   UNL     1     -12.642  15.241  64.062  1.00  0.00    -0.750 OA 
HETATM   37  C   UNL     1     -11.524  16.076  64.212  1.00  0.00    -0.157 C  
ENDBRANCH  34  36
ENDBRANCH  25  34
ENDBRANCH  24  25
ENDBRANCH   7  21
TORSDOF 8
ENDMDL
MODEL       83
REMARK 921   NORMALIZED FREE ENERGY PREDICTED BY IDOCK:   -5.87 KCAL/MOL
REMARK 922        TOTAL FREE ENERGY PREDICTED BY IDOCK:   -9.77 KCAL/MOL
REMARK 923 INTER-LIGAND FREE ENERGY PREDICTED BY IDOCK:   -8.50 KCAL/MOL
REMARK 924 INTRA-LIGAND FREE ENERGY PREDICTED BY IDOCK:   -1.27 KCAL/MOL
REMARK 927      BINDING AFFINITY PREDICTED BY RF-SCORE:    0.00 PKD
ROOT
HETATM    1  C   UNL     1     -11.493  11.149  68.028  1.00  0.00    -0.293 C  
HETATM    2  S   UNL     1     -11.874  12.717  68.762  1.00  0.00    -0.258 SA 
HETATM    3  C   UNL     1     -11.242  13.908  67.554  1.00  0.00    -0.303 C  
HETATM    4  C   UNL     1     -10.733  13.394  66.227  1.00  0.00    -0.290 C  
HETATM    5  O   UNL     1      -9.655   9.110  66.329  1.00  0.00    -0.211 OA 
HETATM    6  CA  UNL     1     -10.490  12.093  65.933  1.00  0.00    -0.254 C  
HETATM    7  CA  UNL     1     -10.594   9.940  68.577  1.00  0.00    -0.217 C  
HETATM    8  N   UNL     1     -10.634  11.133  66.883  1.00  0.00    -0.246 N  
HETATM    9  C   UNL     1      -9.981  11.729  64.566  1.00  0.00    -0.242 C  
HETATM   10  OXT UNL     1     -10.277  12.374  63.568  1.00  0.00    -0.414 OA 
HETATM   11  C   UNL     1     -10.258   9.845  67.053  1.00  0.00    -0.233 C  
HETATM   12  O   UNL     1      -9.186  10.654  64.454  1.00  0.00    -0.205 OA 
ENDROOT
BRANCH   4  13
HETATM   13  C   UNL     1     -10.355  14.558  65.301  1.00  0.00    -0.410 C  
BRANCH  13  14
HETATM   14  S   UNL     1      -9.933  15.997  66.323  1.00  0.00    -0.333 SA 
BRANCH  14  15
HETATM   15  C   UNL     1      -8.253  15.737  66.592  1.00  0.00    -0.270 A  
HETATM   16  N   UNL     1      -7.682  14.663  67.085  1.00  0.00    -0.160 NA 
HETATM   17  C   UNL     1      -7.435  18.023  65.881  1.00  0.00    -0.178 C  
HETATM   18  N   UNL     1      -6.353  14.994  67.252  1.00  0.00    -0.283 NA 
HETATM   19  N   UNL     1      -7.304  16.700  66.423  1.00  0.00    -0.239 NA 
HETATM   20  N   UNL     1      -6.115  16.239  66.854  1.00  0.00    -0.321 NA 
ENDBRANCH  14  15
ENDBRANCH  13  14
ENDBRANCH   4  13
BRANCH   7  21
HETATM   21  N   UNL     1      -9.301   9.846  69.399  1.00  0.00    -0.200 N  
HETATM   22  H   UNL     1      -8.504  10.250  68.907  1.00  0.00     0.000 HD 
HETATM   23  O   UNL     1      -7.773   9.475  71.025  1.00  0.00    -0.319 OA 
HETATM   24  C   UNL     1      -8.943   9.339  70.666  1.00  0.00    -0.243 C  
BRANCH  24  25
HETATM   25  C   UNL     1      -9.853   8.460  71.523  1.00  0.00    -0.208 C  
BRANCH  25  26
HETATM   26  C   UNL     1      -9.723   6.983  71.545  1.00  0.00    -0.165 A  
HETATM   27  H2  UNL     1      -9.848   3.102  69.791  1.00  0.00     0.000 HD 
HETATM   28  H1  UNL     1      -9.208   4.321  68.690  1.00  0.00     0.000 HD 
HETATM   29  C   UNL     1     -10.172   6.191  72.597  1.00  0.00    -0.182 A  
HETATM   30  N   UNL     1      -9.355   6.241  70.427  1.00  0.00    -0.161 NA 
HETATM   31  N   UNL     1      -9.561   4.066  69.612  1.00  0.00    -0.196 NA 
HETATM   32  S   UNL     1     -10.251   4.546  72.137  1.00  0.00    -0.166 SA 
HETATM   33  C   UNL     1      -9.657   4.974  70.592  1.00  0.00    -0.184 A  
ENDBRANCH  25  26
BRANCH  25  34
HETATM   34  N   UNL     1     -10.943   8.839  72.134  1.00  0.00    -0.364 NA 
HETATM   35  H   UNL     1     -10.887   8.976  73.144  1.00  0.00     0.000 HD 
BRANCH  34  36
HETATM   36  O   UNL     1     -12.184   9.073  71.526  1.00  0.00    -0.301 OA 
HETATM   37  C   UNL     1     -12.781  10.339  71.625  1.00  0.00    -0.456 C  
ENDBRANCH  34  36
ENDBRANCH  25  34
ENDBRANCH  24  25
ENDBRANCH   7  21
TORSDOF 8
ENDMDL
MODEL       84
REMARK 921   NORMALIZED FREE ENERGY PREDICTED BY IDOCK:   -5.86 KCAL/MOL
REMARK 922        TOTAL FREE ENERGY PREDICTED BY IDOCK:   -9.76 KCAL/MOL
REMARK 923 INTER-LIGAND FREE ENERGY PREDICTED BY IDOCK:   -8.61 KCAL/MOL
REMARK 924 INTRA-LIGAND FREE ENERGY PREDICTED BY IDOCK:   -1.15 KCAL/MOL
REMARK 927      BINDING AFFINITY PREDICTED BY RF-SCORE:    0.00 PKD
ROOT
HETATM    1  C   UNL     1     -10.292  11.355  64.015  1.00  0.00    -0.362 C  
HETATM    2  S   UNL     1      -8.585  11.011  63.684  1.00  0.00     0.212 SA 
HETATM    3  C   UNL     1      -7.973  10.380  65.267  1.00  0.00    -0.143 C  
HETATM    4  C   UNL     1      -8.964  10.129  66.380  1.00  0.00    -0.163 C  
HETATM    5  O   UNL     1     -12.749  12.349  65.859  1.00  0.00    -0.310 OA 
HETATM    6  CA  UNL     1     -10.253  10.548  66.388  1.00  0.00    -0.237 C  
HETATM    7  CA  UNL     1     -11.111  12.729  63.911  1.00  0.00    -0.431 C  
HETATM    8  N   UNL     1     -10.736  11.312  65.376  1.00  0.00    -0.257 N  
HETATM    9  C   UNL     1     -11.125  10.225  67.570  1.00  0.00    -0.232 C  
HETATM   10  OXT UNL     1     -10.972   9.208  68.234  1.00  0.00    -0.103 OA 
HETATM   11  C   UNL     1     -11.813  12.100  65.158  1.00  0.00    -0.298 C  
HETATM   12  O   UNL     1     -12.103  11.087  67.888  1.00  0.00    -0.600 OA 
ENDROOT
BRANCH   4  13
HETATM   13  C   UNL     1      -8.272   9.486  67.591  1.00  0.00    -0.121 C  
BRANCH  13  14
HETATM   14  S   UNL     1      -8.016  10.762  68.856  1.00  0.00    -0.144 SA 
BRANCH  14  15
HETATM   15  C   UNL     1      -7.959   9.809  70.288  1.00  0.00    -0.162 A  
HETATM   16  N   UNL     1      -8.970   9.267  70.925  1.00  0.00    -0.235 NA 
HETATM   17  C   UNL     1      -5.469   9.970  70.706  1.00  0.00    -0.069 C  
HETATM   18  N   UNL     1      -8.438   8.743  72.085  1.00  0.00    -0.385 NA 
HETATM   19  N   UNL     1      -6.823   9.601  71.010  1.00  0.00    -0.300 NA 
HETATM   20  N   UNL     1      -7.128   8.947  72.147  1.00  0.00    -0.314 NA 
ENDBRANCH  14  15
ENDBRANCH  13  14
ENDBRANCH   4  13
BRANCH   7  21
HETATM   21  N   UNL     1     -10.782  14.202  64.190  1.00  0.00    -0.462 N  
HETATM   22  H   UNL     1     -10.939  14.792  63.373  1.00  0.00     0.000 HD 
HETATM   23  O   UNL     1     -10.200  16.161  65.161  1.00  0.00    -0.542 OA 
HETATM   24  C   UNL     1     -10.317  14.942  65.298  1.00  0.00    -0.396 C  
BRANCH  24  25
HETATM   25  C   UNL     1      -9.760  14.312  66.574  1.00  0.00    -0.291 C  
BRANCH  25  26
HETATM   26  C   UNL     1     -10.360  14.573  67.904  1.00  0.00    -0.231 A  
HETATM   27  H2  UNL     1     -13.016  13.753  71.133  1.00  0.00     0.000 HD 
HETATM   28  H1  UNL     1     -12.362  12.286  70.408  1.00  0.00     0.000 HD 
HETATM   29  C   UNL     1     -10.680  15.847  68.363  1.00  0.00    -0.281 A  
HETATM   30  N   UNL     1     -10.869  13.562  68.714  1.00  0.00    -0.253 NA 
HETATM   31  N   UNL     1     -12.399  13.304  70.456  1.00  0.00    -0.339 NA 
HETATM   32  S   UNL     1     -11.714  15.769  69.722  1.00  0.00    -0.334 SA 
HETATM   33  C   UNL     1     -11.651  14.062  69.643  1.00  0.00    -0.289 A  
ENDBRANCH  25  26
BRANCH  25  34
HETATM   34  N   UNL     1      -8.620  13.685  66.694  1.00  0.00    -0.444 NA 
HETATM   35  H   UNL     1      -8.604  12.696  66.444  1.00  0.00     0.000 HD 
BRANCH  34  36
HETATM   36  O   UNL     1      -7.418  14.251  67.138  1.00  0.00    -0.117 OA 
HETATM   37  C   UNL     1      -6.313  13.426  67.400  1.00  0.00     0.025 C  
ENDBRANCH  34  36
ENDBRANCH  25  34
ENDBRANCH  24  25
ENDBRANCH   7  21
TORSDOF 8
ENDMDL
MODEL       85
REMARK 921   NORMALIZED FREE ENERGY PREDICTED BY IDOCK:   -5.84 KCAL/MOL
REMARK 922        TOTAL FREE ENERGY PREDICTED BY IDOCK:   -9.73 KCAL/MOL
REMARK 923 INTER-LIGAND FREE ENERGY PREDICTED BY IDOCK:   -8.21 KCAL/MOL
REMARK 924 INTRA-LIGAND FREE ENERGY PREDICTED BY IDOCK:   -1.52 KCAL/MOL
REMARK 927      BINDING AFFINITY PREDICTED BY RF-SCORE:    0.00 PKD
ROOT
HETATM    1  C   UNL     1      -8.550  11.432  66.548  1.00  0.00    -0.175 C  
HETATM    2  S   UNL     1      -8.874  11.719  68.267  1.00  0.00    -0.162 SA 
HETATM    3  C   UNL     1      -9.081  10.049  68.936  1.00  0.00    -0.159 C  
HETATM    4  C   UNL     1      -8.792   8.868  68.040  1.00  0.00    -0.133 C  
HETATM    5  O   UNL     1      -8.931   9.882  63.741  1.00  0.00    -0.217 OA 
HETATM    6  CA  UNL     1      -8.609   8.931  66.698  1.00  0.00    -0.123 C  
HETATM    7  CA  UNL     1      -9.346  11.928  65.247  1.00  0.00     0.003 C  
HETATM    8  N   UNL     1      -8.745  10.109  66.038  1.00  0.00    -0.137 N  
HETATM    9  C   UNL     1      -8.331   7.666  65.932  1.00  0.00    -0.139 C  
HETATM   10  OXT UNL     1      -7.732   6.722  66.431  1.00  0.00    -0.094 OA 
HETATM   11  C   UNL     1      -8.897  10.513  64.756  1.00  0.00    -0.196 C  
HETATM   12  O   UNL     1      -8.752   7.593  64.660  1.00  0.00     0.122 OA 
ENDROOT
BRANCH   4  13
HETATM   13  C   UNL     1      -8.908   7.551  68.820  1.00  0.00    -0.131 C  
BRANCH  13  14
HETATM   14  S   UNL     1      -8.859   7.924  70.596  1.00  0.00    -0.141 SA 
BRANCH  14  15
HETATM   15  C   UNL     1     -10.440   7.450  71.083  1.00  0.00    -0.209 A  
HETATM   16  N   UNL     1     -11.455   8.233  71.366  1.00  0.00    -0.260 NA 
HETATM   17  C   UNL     1     -10.037   4.954  71.168  1.00  0.00    -0.207 C  
HETATM   18  N   UNL     1     -12.441   7.399  71.851  1.00  0.00    -0.312 NA 
HETATM   19  N   UNL     1     -10.792   6.162  71.351  1.00  0.00    -0.255 NA 
HETATM   20  N   UNL     1     -12.042   6.132  71.850  1.00  0.00    -0.253 NA 
ENDBRANCH  14  15
ENDBRANCH  13  14
ENDBRANCH   4  13
BRANCH   7  21
HETATM   21  N   UNL     1     -10.827  12.148  64.910  1.00  0.00    -0.297 N  
HETATM   22  H   UNL     1     -11.053  11.849  63.961  1.00  0.00     0.000 HD 
HETATM   23  O   UNL     1     -13.031  12.650  64.991  1.00  0.00    -0.812 OA 
HETATM   24  C   UNL     1     -11.953  12.662  65.588  1.00  0.00    -0.452 C  
BRANCH  24  25
HETATM   25  C   UNL     1     -11.882  13.411  66.917  1.00  0.00    -0.403 C  
BRANCH  25  26
HETATM   26  C   UNL     1     -11.310  14.775  67.019  1.00  0.00    -0.353 A  
HETATM   27  H2  UNL     1      -8.348  17.749  66.292  1.00  0.00     0.000 HD 
HETATM   28  H1  UNL     1      -8.575  16.672  64.915  1.00  0.00     0.000 HD 
HETATM   29  C   UNL     1     -11.360  15.541  68.180  1.00  0.00    -0.345 A  
HETATM   30  N   UNL     1     -10.477  15.319  66.046  1.00  0.00    -0.300 NA 
HETATM   31  N   UNL     1      -8.841  16.971  65.854  1.00  0.00    -0.532 NA 
HETATM   32  S   UNL     1     -10.272  16.857  68.095  1.00  0.00    -0.330 SA 
HETATM   33  C   UNL     1      -9.827  16.357  66.521  1.00  0.00    -0.274 A  
ENDBRANCH  25  26
BRANCH  25  34
HETATM   34  N   UNL     1     -12.087  12.904  68.103  1.00  0.00    -0.236 NA 
HETATM   35  H   UNL     1     -12.105  13.554  68.890  1.00  0.00     0.000 HD 
BRANCH  34  36
HETATM   36  O   UNL     1     -12.285  11.547  68.390  1.00  0.00    -0.540 OA 
HETATM   37  C   UNL     1     -12.498  11.139  69.717  1.00  0.00    -0.162 C  
ENDBRANCH  34  36
ENDBRANCH  25  34
ENDBRANCH  24  25
ENDBRANCH   7  21
TORSDOF 8
ENDMDL
MODEL       86
REMARK 921   NORMALIZED FREE ENERGY PREDICTED BY IDOCK:   -5.84 KCAL/MOL
REMARK 922        TOTAL FREE ENERGY PREDICTED BY IDOCK:   -9.73 KCAL/MOL
REMARK 923 INTER-LIGAND FREE ENERGY PREDICTED BY IDOCK:   -8.64 KCAL/MOL
REMARK 924 INTRA-LIGAND FREE ENERGY PREDICTED BY IDOCK:   -1.10 KCAL/MOL
REMARK 927      BINDING AFFINITY PREDICTED BY RF-SCORE:    0.00 PKD
ROOT
HETATM    1  C   UNL     1     -11.516  10.828  67.757  1.00  0.00    -0.202 C  
HETATM    2  S   UNL     1     -11.734  11.768  69.243  1.00  0.00    -0.347 SA 
HETATM    3  C   UNL     1     -11.443  13.472  68.706  1.00  0.00    -0.311 C  
HETATM    4  C   UNL     1     -11.269  13.747  67.230  1.00  0.00    -0.329 C  
HETATM    5  O   UNL     1     -10.116  10.158  64.925  1.00  0.00    -0.330 OA 
HETATM    6  CA  UNL     1     -11.081  12.803  66.276  1.00  0.00    -0.288 C  
HETATM    7  CA  UNL     1     -10.486   9.646  67.420  1.00  0.00    -0.257 C  
HETATM    8  N   UNL     1     -10.967  11.494  66.614  1.00  0.00    -0.288 N  
HETATM    9  C   UNL     1     -10.918  13.228  64.842  1.00  0.00    -0.330 C  
HETATM   10  OXT UNL     1     -11.464  14.227  64.393  1.00  0.00    -0.366 OA 
HETATM   11  C   UNL     1     -10.536  10.354  66.027  1.00  0.00    -0.140 C  
HETATM   12  O   UNL     1     -10.155  12.468  64.041  1.00  0.00    -0.359 OA 
ENDROOT
BRANCH   4  13
HETATM   13  C   UNL     1     -11.153  15.256  66.967  1.00  0.00    -0.305 C  
BRANCH  13  14
HETATM   14  S   UNL     1      -9.883  15.940  68.069  1.00  0.00    -0.219 SA 
BRANCH  14  15
HETATM   15  C   UNL     1      -9.013  16.958  66.988  1.00  0.00    -0.215 A  
HETATM   16  N   UNL     1      -7.926  16.662  66.315  1.00  0.00    -0.325 NA 
HETATM   17  C   UNL     1     -10.412  19.046  67.286  1.00  0.00    -0.451 C  
HETATM   18  N   UNL     1      -7.527  17.841  65.720  1.00  0.00    -0.541 NA 
HETATM   19  N   UNL     1      -9.305  18.274  66.792  1.00  0.00    -0.286 NA 
HETATM   20  N   UNL     1      -8.362  18.832  66.011  1.00  0.00    -0.486 NA 
ENDBRANCH  14  15
ENDBRANCH  13  14
ENDBRANCH   4  13
BRANCH   7  21
HETATM   21  N   UNL     1      -9.028   9.348  67.798  1.00  0.00    -0.123 N  
HETATM   22  H   UNL     1      -8.375   9.975  67.329  1.00  0.00     0.000 HD 
HETATM   23  O   UNL     1      -7.144   8.503  68.721  1.00  0.00    -0.065 OA 
HETATM   24  C   UNL     1      -8.370   8.420  68.633  1.00  0.00    -0.120 C  
BRANCH  24  25
HETATM   25  C   UNL     1      -9.049   7.207  69.265  1.00  0.00    -0.137 C  
BRANCH  25  26
HETATM   26  C   UNL     1      -9.702   7.278  70.595  1.00  0.00    -0.175 A  
HETATM   27  H2  UNL     1     -12.167   5.788  73.735  1.00  0.00     0.000 HD 
HETATM   28  H1  UNL     1     -11.223   4.519  72.957  1.00  0.00     0.000 HD 
HETATM   29  C   UNL     1     -10.277   8.439  71.104  1.00  0.00    -0.202 A  
HETATM   30  N   UNL     1     -10.003   6.148  71.350  1.00  0.00    -0.185 NA 
HETATM   31  N   UNL     1     -11.465   5.505  73.049  1.00  0.00    -0.270 NA 
HETATM   32  S   UNL     1     -11.287   8.089  72.439  1.00  0.00    -0.404 SA 
HETATM   33  C   UNL     1     -10.879   6.436  72.285  1.00  0.00    -0.239 A  
ENDBRANCH  25  26
BRANCH  25  34
HETATM   34  N   UNL     1      -8.958   5.969  68.859  1.00  0.00    -0.123 NA 
HETATM   35  H   UNL     1      -9.345   5.249  69.470  1.00  0.00     0.000 HD 
BRANCH  34  36
HETATM   36  O   UNL     1      -8.374   5.543  67.659  1.00  0.00    -0.101 OA 
HETATM   37  C   UNL     1      -8.877   4.408  67.003  1.00  0.00    -0.114 C  
ENDBRANCH  34  36
ENDBRANCH  25  34
ENDBRANCH  24  25
ENDBRANCH   7  21
TORSDOF 8
ENDMDL
MODEL       87
REMARK 921   NORMALIZED FREE ENERGY PREDICTED BY IDOCK:   -5.84 KCAL/MOL
REMARK 922        TOTAL FREE ENERGY PREDICTED BY IDOCK:   -9.73 KCAL/MOL
REMARK 923 INTER-LIGAND FREE ENERGY PREDICTED BY IDOCK:   -8.35 KCAL/MOL
REMARK 924 INTRA-LIGAND FREE ENERGY PREDICTED BY IDOCK:   -1.38 KCAL/MOL
REMARK 927      BINDING AFFINITY PREDICTED BY RF-SCORE:    0.00 PKD
ROOT
HETATM    1  C   UNL     1      -8.794  12.556  67.831  1.00  0.00    -0.185 C  
HETATM    2  S   UNL     1     -10.515  12.171  68.008  1.00  0.00    -0.219 SA 
HETATM    3  C   UNL     1     -11.180  13.618  68.868  1.00  0.00    -0.270 C  
HETATM    4  C   UNL     1     -10.279  14.812  69.083  1.00  0.00    -0.224 C  
HETATM    5  O   UNL     1      -5.984  13.808  68.812  1.00  0.00    -0.079 OA 
HETATM    6  CA  UNL     1      -8.936  14.822  68.893  1.00  0.00    -0.167 C  
HETATM    7  CA  UNL     1      -7.499  11.776  68.363  1.00  0.00    -0.105 C  
HETATM    8  N   UNL     1      -8.280  13.686  68.545  1.00  0.00    -0.140 N  
HETATM    9  C   UNL     1      -8.166  16.088  69.151  1.00  0.00    -0.241 C  
HETATM   10  OXT UNL     1      -8.659  17.196  68.982  1.00  0.00    -0.218 OA 
HETATM   11  C   UNL     1      -7.001  13.249  68.524  1.00  0.00    -0.103 C  
HETATM   12  O   UNL     1      -6.896  15.980  69.569  1.00  0.00    -0.196 OA 
ENDROOT
BRANCH   4  13
HETATM   13  C   UNL     1     -11.056  15.974  69.718  1.00  0.00    -0.337 C  
BRANCH  13  14
HETATM   14  S   UNL     1     -12.696  15.372  70.211  1.00  0.00    -0.209 SA 
BRANCH  14  15
HETATM   15  C   UNL     1     -12.578  15.443  71.927  1.00  0.00    -0.380 A  
HETATM   16  N   UNL     1     -11.962  16.351  72.647  1.00  0.00    -0.549 NA 
HETATM   17  C   UNL     1     -13.796  13.285  72.441  1.00  0.00    -0.529 C  
HETATM   18  N   UNL     1     -12.015  15.891  73.946  1.00  0.00    -0.350 NA 
HETATM   19  N   UNL     1     -13.034  14.461  72.754  1.00  0.00    -0.461 NA 
HETATM   20  N   UNL     1     -12.664  14.734  74.019  1.00  0.00    -0.453 NA 
ENDBRANCH  14  15
ENDBRANCH  13  14
ENDBRANCH   4  13
BRANCH   7  21
HETATM   21  N   UNL     1      -7.168  10.976  69.630  1.00  0.00    -0.309 N  
HETATM   22  H   UNL     1      -6.323  11.315  70.088  1.00  0.00     0.000 HD 
HETATM   23  O   UNL     1      -7.203   9.520  71.362  1.00  0.00    -0.330 OA 
HETATM   24  C   UNL     1      -7.745   9.886  70.317  1.00  0.00    -0.142 C  
BRANCH  24  25
HETATM   25  C   UNL     1      -8.861   9.012  69.749  1.00  0.00    -0.153 C  
BRANCH  25  26
HETATM   26  C   UNL     1      -9.932   8.452  70.608  1.00  0.00    -0.185 A  
HETATM   27  H2  UNL     1     -13.515   8.686  72.903  1.00  0.00     0.000 HD 
HETATM   28  H1  UNL     1     -13.575   9.686  71.452  1.00  0.00     0.000 HD 
HETATM   29  C   UNL     1      -9.694   7.542  71.634  1.00  0.00    -0.161 A  
HETATM   30  N   UNL     1     -11.230   8.955  70.621  1.00  0.00    -0.262 NA 
HETATM   31  N   UNL     1     -13.082   9.012  72.038  1.00  0.00    -0.381 NA 
HETATM   32  S   UNL     1     -11.045   7.421  72.674  1.00  0.00    -0.348 SA 
HETATM   33  C   UNL     1     -11.874   8.549  71.691  1.00  0.00    -0.311 A  
ENDBRANCH  25  26
BRANCH  25  34
HETATM   34  N   UNL     1      -8.899   8.482  68.556  1.00  0.00    -0.139 NA 
HETATM   35  H   UNL     1      -9.821   8.299  68.157  1.00  0.00     0.000 HD 
BRANCH  34  36
HETATM   36  O   UNL     1      -7.786   8.143  67.775  1.00  0.00    -0.114 OA 
HETATM   37  C   UNL     1      -7.602   6.814  67.364  1.00  0.00    -0.105 C  
ENDBRANCH  34  36
ENDBRANCH  25  34
ENDBRANCH  24  25
ENDBRANCH   7  21
TORSDOF 8
ENDMDL
MODEL       88
REMARK 921   NORMALIZED FREE ENERGY PREDICTED BY IDOCK:   -5.84 KCAL/MOL
REMARK 922        TOTAL FREE ENERGY PREDICTED BY IDOCK:   -9.72 KCAL/MOL
REMARK 923 INTER-LIGAND FREE ENERGY PREDICTED BY IDOCK:   -8.31 KCAL/MOL
REMARK 924 INTRA-LIGAND FREE ENERGY PREDICTED BY IDOCK:   -1.41 KCAL/MOL
REMARK 927      BINDING AFFINITY PREDICTED BY RF-SCORE:    0.00 PKD
ROOT
HETATM    1  C   UNL     1      -8.937   8.967  71.260  1.00  0.00    -0.243 C  
HETATM    2  S   UNL     1      -7.951   9.359  69.841  1.00  0.00    -0.150 SA 
HETATM    3  C   UNL     1      -9.113  10.218  68.750  1.00  0.00    -0.159 C  
HETATM    4  C   UNL     1     -10.490  10.552  69.276  1.00  0.00    -0.258 C  
HETATM    5  O   UNL     1     -11.664   8.080  72.745  1.00  0.00    -0.396 OA 
HETATM    6  CA  UNL     1     -11.028  10.067  70.423  1.00  0.00    -0.320 C  
HETATM    7  CA  UNL     1      -9.285   7.547  71.919  1.00  0.00    -0.132 C  
HETATM    8  N   UNL     1     -10.354   9.156  71.169  1.00  0.00    -0.290 N  
HETATM    9  C   UNL     1     -12.416  10.488  70.820  1.00  0.00    -0.378 C  
HETATM   10  OXT UNL     1     -12.871  11.587  70.532  1.00  0.00    -0.149 OA 
HETATM   11  C   UNL     1     -10.639   8.289  72.167  1.00  0.00    -0.310 C  
HETATM   12  O   UNL     1     -13.163   9.620  71.520  1.00  0.00    -0.360 OA 
ENDROOT
BRANCH   4  13
HETATM   13  C   UNL     1     -11.279  11.379  68.251  1.00  0.00    -0.263 C  
BRANCH  13  14
HETATM   14  S   UNL     1     -10.191  11.748  66.846  1.00  0.00    -0.213 SA 
BRANCH  14  15
HETATM   15  C   UNL     1     -11.341  12.037  65.597  1.00  0.00    -0.329 A  
HETATM   16  N   UNL     1     -12.535  12.566  65.721  1.00  0.00    -0.566 NA 
HETATM   17  C   UNL     1     -10.029  11.026  63.684  1.00  0.00    -0.361 C  
HETATM   18  N   UNL     1     -13.125  12.443  64.480  1.00  0.00    -0.815 NA 
HETATM   19  N   UNL     1     -11.175  11.626  64.309  1.00  0.00    -0.338 NA 
HETATM   20  N   UNL     1     -12.302  11.864  63.614  1.00  0.00    -0.508 NA 
ENDBRANCH  14  15
ENDBRANCH  13  14
ENDBRANCH   4  13
BRANCH   7  21
HETATM   21  N   UNL     1      -9.558   6.141  71.367  1.00  0.00    -0.160 N  
HETATM   22  H   UNL     1      -9.614   5.442  72.108  1.00  0.00     0.000 HD 
HETATM   23  O   UNL     1      -9.992   4.371  70.028  1.00  0.00    -0.223 OA 
HETATM   24  C   UNL     1      -9.751   5.577  70.088  1.00  0.00    -0.182 C  
BRANCH  24  25
HETATM   25  C   UNL     1      -9.480   6.316  68.778  1.00  0.00    -0.122 C  
BRANCH  25  26
HETATM   26  C   UNL     1      -8.108   6.484  68.242  1.00  0.00    -0.110 A  
HETATM   27  H2  UNL     1      -5.228   6.783  65.117  1.00  0.00     0.000 HD 
HETATM   28  H1  UNL     1      -6.752   7.569  64.708  1.00  0.00     0.000 HD 
HETATM   29  C   UNL     1      -6.987   5.882  68.806  1.00  0.00    -0.072 A  
HETATM   30  N   UNL     1      -7.847   7.064  67.005  1.00  0.00    -0.107 NA 
HETATM   31  N   UNL     1      -6.172   7.068  65.381  1.00  0.00    -0.036 NA 
HETATM   32  S   UNL     1      -5.657   5.934  67.733  1.00  0.00    -0.009 SA 
HETATM   33  C   UNL     1      -6.629   6.775  66.606  1.00  0.00    -0.044 A  
ENDBRANCH  25  26
BRANCH  25  34
HETATM   34  N   UNL     1     -10.331   7.049  68.113  1.00  0.00    -0.182 NA 
HETATM   35  H   UNL     1     -10.393   8.036  68.366  1.00  0.00     0.000 HD 
BRANCH  34  36
HETATM   36  O   UNL     1     -11.167   6.600  67.081  1.00  0.00    -0.392 OA 
HETATM   37  C   UNL     1     -10.903   5.372  66.454  1.00  0.00    -0.131 C  
ENDBRANCH  34  36
ENDBRANCH  25  34
ENDBRANCH  24  25
ENDBRANCH   7  21
TORSDOF 8
ENDMDL
MODEL       89
REMARK 921   NORMALIZED FREE ENERGY PREDICTED BY IDOCK:   -5.83 KCAL/MOL
REMARK 922        TOTAL FREE ENERGY PREDICTED BY IDOCK:   -9.71 KCAL/MOL
REMARK 923 INTER-LIGAND FREE ENERGY PREDICTED BY IDOCK:   -8.55 KCAL/MOL
REMARK 924 INTRA-LIGAND FREE ENERGY PREDICTED BY IDOCK:   -1.17 KCAL/MOL
REMARK 927      BINDING AFFINITY PREDICTED BY RF-SCORE:    0.00 PKD
ROOT
HETATM    1  C   UNL     1     -10.374  14.554  68.857  1.00  0.00    -0.237 C  
HETATM    2  S   UNL     1     -11.897  13.697  69.147  1.00  0.00    -0.355 SA 
HETATM    3  C   UNL     1     -11.490  11.978  68.747  1.00  0.00    -0.300 C  
HETATM    4  C   UNL     1     -10.052  11.624  68.452  1.00  0.00    -0.207 C  
HETATM    5  O   UNL     1      -7.613  15.117  67.280  1.00  0.00    -0.189 OA 
HETATM    6  CA  UNL     1      -9.055  12.516  68.232  1.00  0.00    -0.183 C  
HETATM    7  CA  UNL     1     -10.038  15.760  67.855  1.00  0.00    -0.230 C  
HETATM    8  N   UNL     1      -9.317  13.848  68.198  1.00  0.00    -0.198 N  
HETATM    9  C   UNL     1      -7.666  12.014  67.947  1.00  0.00    -0.134 C  
HETATM   10  OXT UNL     1      -7.244  10.966  68.415  1.00  0.00    -0.079 OA 
HETATM   11  C   UNL     1      -8.692  14.968  67.772  1.00  0.00    -0.164 C  
HETATM   12  O   UNL     1      -6.876  12.758  67.158  1.00  0.00    -0.122 OA 
ENDROOT
BRANCH   4  13
HETATM   13  C   UNL     1      -9.893  10.109  68.255  1.00  0.00    -0.145 C  
BRANCH  13  14
HETATM   14  S   UNL     1      -9.954   9.746  66.478  1.00  0.00    -0.245 SA 
BRANCH  14  15
HETATM   15  C   UNL     1     -10.007   8.026  66.487  1.00  0.00    -0.213 A  
HETATM   16  N   UNL     1     -10.964   7.260  66.957  1.00  0.00    -0.304 NA 
HETATM   17  C   UNL     1      -7.720   7.609  65.487  1.00  0.00    -0.101 C  
HETATM   18  N   UNL     1     -10.478   5.972  66.880  1.00  0.00    -0.249 NA 
HETATM   19  N   UNL     1      -8.967   7.238  66.095  1.00  0.00    -0.166 NA 
HETATM   20  N   UNL     1      -9.256   5.950  66.359  1.00  0.00    -0.147 NA 
ENDBRANCH  14  15
ENDBRANCH  13  14
ENDBRANCH   4  13
BRANCH   7  21
HETATM   21  N   UNL     1     -10.499  16.147  66.443  1.00  0.00    -0.306 N  
HETATM   22  H   UNL     1     -10.853  15.345  65.922  1.00  0.00     0.000 HD 
HETATM   23  O   UNL     1     -11.038  17.274  64.557  1.00  0.00    -1.082 OA 
HETATM   24  C   UNL     1     -10.554  17.338  65.688  1.00  0.00    -0.166 C  
BRANCH  24  25
HETATM   25  C   UNL     1      -9.873  18.642  66.099  1.00  0.00    -0.287 C  
BRANCH  25  26
HETATM   26  C   UNL     1      -8.406  18.829  65.991  1.00  0.00    -0.061 A  
HETATM   27  H2  UNL     1      -4.352  17.555  66.298  1.00  0.00     0.000 HD 
HETATM   28  H1  UNL     1      -5.418  16.278  65.718  1.00  0.00     0.000 HD 
HETATM   29  C   UNL     1      -7.752  19.995  66.378  1.00  0.00    -0.299 A  
HETATM   30  N   UNL     1      -7.530  17.783  65.713  1.00  0.00    -0.541 NA 
HETATM   31  N   UNL     1      -5.280  17.245  66.010  1.00  0.00    -0.342 NA 
HETATM   32  S   UNL     1      -6.067  19.737  66.513  1.00  0.00    -0.170 SA 
HETATM   33  C   UNL     1      -6.298  18.116  66.023  1.00  0.00    -0.240 A  
ENDBRANCH  25  26
BRANCH  25  34
HETATM   34  N   UNL     1     -10.416  19.622  66.770  1.00  0.00    -0.460 NA 
HETATM   35  H   UNL     1     -10.507  20.519  66.292  1.00  0.00     0.000 HD 
BRANCH  34  36
HETATM   36  O   UNL     1     -10.885  19.550  68.088  1.00  0.00    -0.267 OA 
HETATM   37  C   UNL     1      -9.971  19.534  69.154  1.00  0.00    -0.355 C  
ENDBRANCH  34  36
ENDBRANCH  25  34
ENDBRANCH  24  25
ENDBRANCH   7  21
TORSDOF 8
ENDMDL
MODEL       90
REMARK 921   NORMALIZED FREE ENERGY PREDICTED BY IDOCK:   -5.83 KCAL/MOL
REMARK 922        TOTAL FREE ENERGY PREDICTED BY IDOCK:   -9.71 KCAL/MOL
REMARK 923 INTER-LIGAND FREE ENERGY PREDICTED BY IDOCK:   -7.91 KCAL/MOL
REMARK 924 INTRA-LIGAND FREE ENERGY PREDICTED BY IDOCK:   -1.80 KCAL/MOL
REMARK 927      BINDING AFFINITY PREDICTED BY RF-SCORE:    0.00 PKD
ROOT
HETATM    1  C   UNL     1     -10.643   8.049  67.329  1.00  0.00    -0.290 C  
HETATM    2  S   UNL     1      -9.835   6.562  66.803  1.00  0.00    -0.149 SA 
HETATM    3  C   UNL     1      -9.559   5.667  68.353  1.00  0.00    -0.126 C  
HETATM    4  C   UNL     1     -10.163   6.216  69.624  1.00  0.00    -0.255 C  
HETATM    5  O   UNL     1     -11.162  10.511  69.352  1.00  0.00    -0.235 OA 
HETATM    6  CA  UNL     1     -10.709   7.449  69.762  1.00  0.00    -0.241 C  
HETATM    7  CA  UNL     1     -10.212   9.582  67.148  1.00  0.00    -0.242 C  
HETATM    8  N   UNL     1     -10.685   8.333  68.732  1.00  0.00    -0.109 N  
HETATM    9  C   UNL     1     -11.271   7.861  71.095  1.00  0.00    -0.261 C  
HETATM   10  OXT UNL     1     -11.767   7.054  71.870  1.00  0.00    -0.273 OA 
HETATM   11  C   UNL     1     -10.871   9.662  68.564  1.00  0.00    -0.161 C  
HETATM   12  O   UNL     1     -11.227   9.162  71.424  1.00  0.00    -0.292 OA 
ENDROOT
BRANCH   4  13
HETATM   13  C   UNL     1      -9.920   5.259  70.800  1.00  0.00    -0.211 C  
BRANCH  13  14
HETATM   14  S   UNL     1      -8.166   5.340  71.259  1.00  0.00    -0.121 SA 
BRANCH  14  15
HETATM   15  C   UNL     1      -8.184   6.598  72.434  1.00  0.00    -0.103 A  
HETATM   16  N   UNL     1      -8.554   6.510  73.690  1.00  0.00    -0.122 NA 
HETATM   17  C   UNL     1      -7.441   8.486  70.923  1.00  0.00    -0.074 C  
HETATM   18  N   UNL     1      -8.540   7.803  74.171  1.00  0.00    -0.254 NA 
HETATM   19  N   UNL     1      -7.913   7.902  72.147  1.00  0.00    -0.110 NA 
HETATM   20  N   UNL     1      -8.155   8.660  73.232  1.00  0.00    -0.410 NA 
ENDBRANCH  14  15
ENDBRANCH  13  14
ENDBRANCH   4  13
BRANCH   7  21
HETATM   21  N   UNL     1      -8.873  10.332  67.158  1.00  0.00    -0.136 N  
HETATM   22  H   UNL     1      -8.077   9.698  67.098  1.00  0.00     0.000 HD 
HETATM   23  O   UNL     1      -7.264  11.923  67.173  1.00  0.00    -0.137 OA 
HETATM   24  C   UNL     1      -8.471  11.683  67.229  1.00  0.00    -0.156 C  
BRANCH  24  25
HETATM   25  C   UNL     1      -9.411  12.837  67.575  1.00  0.00    -0.189 C  
BRANCH  25  26
HETATM   26  C   UNL     1     -10.417  13.345  66.612  1.00  0.00    -0.280 A  
HETATM   27  H2  UNL     1     -13.504  12.900  63.710  1.00  0.00     0.000 HD 
HETATM   28  H1  UNL     1     -13.614  11.705  65.000  1.00  0.00     0.000 HD 
HETATM   29  C   UNL     1     -10.185  14.418  65.757  1.00  0.00    -0.337 A  
HETATM   30  N   UNL     1     -11.589  12.657  66.312  1.00  0.00    -0.364 NA 
HETATM   31  N   UNL     1     -13.160  12.523  64.593  1.00  0.00    -0.837 NA 
HETATM   32  S   UNL     1     -11.359  14.480  64.516  1.00  0.00    -0.270 SA 
HETATM   33  C   UNL     1     -12.120  13.110  65.199  1.00  0.00    -0.421 A  
ENDBRANCH  25  26
BRANCH  25  34
HETATM   34  N   UNL     1      -9.313  13.633  68.606  1.00  0.00    -0.373 NA 
HETATM   35  H   UNL     1      -9.776  13.339  69.466  1.00  0.00     0.000 HD 
BRANCH  34  36
HETATM   36  O   UNL     1      -8.629  14.856  68.634  1.00  0.00    -0.155 OA 
HETATM   37  C   UNL     1      -9.131  15.918  69.402  1.00  0.00    -0.222 C  
ENDBRANCH  34  36
ENDBRANCH  25  34
ENDBRANCH  24  25
ENDBRANCH   7  21
TORSDOF 8
ENDMDL
MODEL       91
REMARK 921   NORMALIZED FREE ENERGY PREDICTED BY IDOCK:   -5.83 KCAL/MOL
REMARK 922        TOTAL FREE ENERGY PREDICTED BY IDOCK:   -9.71 KCAL/MOL
REMARK 923 INTER-LIGAND FREE ENERGY PREDICTED BY IDOCK:   -7.93 KCAL/MOL
REMARK 924 INTRA-LIGAND FREE ENERGY PREDICTED BY IDOCK:   -1.78 KCAL/MOL
REMARK 927      BINDING AFFINITY PREDICTED BY RF-SCORE:    0.00 PKD
ROOT
HETATM    1  C   UNL     1      -8.557   8.339  67.466  1.00  0.00    -0.129 C  
HETATM    2  S   UNL     1      -7.289   9.251  68.302  1.00  0.00    -0.078 SA 
HETATM    3  C   UNL     1      -6.879   8.195  69.715  1.00  0.00    -0.040 C  
HETATM    4  C   UNL     1      -7.499   6.820  69.796  1.00  0.00    -0.091 C  
HETATM    5  O   UNL     1     -11.151   6.420  67.341  1.00  0.00    -0.363 OA 
HETATM    6  CA  UNL     1      -8.521   6.376  69.023  1.00  0.00    -0.124 C  
HETATM    7  CA  UNL     1     -10.070   8.745  67.122  1.00  0.00    -0.252 C  
HETATM    8  N   UNL     1      -9.122   7.204  68.132  1.00  0.00    -0.134 N  
HETATM    9  C   UNL     1      -9.039   4.977  69.219  1.00  0.00    -0.103 C  
HETATM   10  OXT UNL     1      -8.316   4.061  69.590  1.00  0.00    -0.057 OA 
HETATM   11  C   UNL     1     -10.268   7.223  67.415  1.00  0.00    -0.236 C  
HETATM   12  O   UNL     1     -10.335   4.743  68.966  1.00  0.00    -0.111 OA 
ENDROOT
BRANCH   4  13
HETATM   13  C   UNL     1      -6.938   6.039  70.994  1.00  0.00    -0.068 C  
BRANCH  13  14
HETATM   14  S   UNL     1      -7.439   6.884  72.520  1.00  0.00    -0.090 SA 
BRANCH  14  15
HETATM   15  C   UNL     1      -9.123   6.527  72.565  1.00  0.00    -0.135 A  
HETATM   16  N   UNL     1      -9.687   5.385  72.881  1.00  0.00    -0.147 NA 
HETATM   17  C   UNL     1      -9.969   8.765  71.741  1.00  0.00    -0.326 C  
HETATM   18  N   UNL     1     -11.031   5.551  72.618  1.00  0.00    -0.254 NA 
HETATM   19  N   UNL     1     -10.089   7.393  72.150  1.00  0.00    -0.186 NA 
HETATM   20  N   UNL     1     -11.283   6.774  72.166  1.00  0.00    -0.249 NA 
ENDBRANCH  14  15
ENDBRANCH  13  14
ENDBRANCH   4  13
BRANCH   7  21
HETATM   21  N   UNL     1     -11.157   9.557  67.841  1.00  0.00    -0.515 N  
HETATM   22  H   UNL     1     -11.899   8.963  68.209  1.00  0.00     0.000 HD 
HETATM   23  O   UNL     1     -12.383  11.213  68.775  1.00  0.00    -0.539 OA 
HETATM   24  C   UNL     1     -11.382  10.923  68.117  1.00  0.00    -0.315 C  
BRANCH  24  25
HETATM   25  C   UNL     1     -10.587  12.065  67.487  1.00  0.00    -0.221 C  
BRANCH  25  26
HETATM   26  C   UNL     1     -10.702  12.399  66.047  1.00  0.00    -0.261 A  
HETATM   27  H2  UNL     1     -12.763  13.814  62.597  1.00  0.00     0.000 HD 
HETATM   28  H1  UNL     1     -13.171  14.726  64.049  1.00  0.00     0.000 HD 
HETATM   29  C   UNL     1     -10.174  11.605  65.033  1.00  0.00    -0.275 A  
HETATM   30  N   UNL     1     -11.539  13.403  65.569  1.00  0.00    -0.317 NA 
HETATM   31  N   UNL     1     -12.627  13.994  63.592  1.00  0.00    -0.792 NA 
HETATM   32  S   UNL     1     -10.825  12.038  63.512  1.00  0.00    -0.438 SA 
HETATM   33  C   UNL     1     -11.737  13.265  64.278  1.00  0.00    -0.407 A  
ENDBRANCH  25  26
BRANCH  25  34
HETATM   34  N   UNL     1      -9.595  12.713  68.035  1.00  0.00    -0.207 NA 
HETATM   35  H   UNL     1      -8.701  12.226  68.103  1.00  0.00     0.000 HD 
BRANCH  34  36
HETATM   36  O   UNL     1      -9.651  14.019  68.540  1.00  0.00    -0.216 OA 
HETATM   37  C   UNL     1     -10.881  14.557  68.950  1.00  0.00    -0.253 C  
ENDBRANCH  34  36
ENDBRANCH  25  34
ENDBRANCH  24  25
ENDBRANCH   7  21
TORSDOF 8
ENDMDL
MODEL       92
REMARK 921   NORMALIZED FREE ENERGY PREDICTED BY IDOCK:   -5.81 KCAL/MOL
REMARK 922        TOTAL FREE ENERGY PREDICTED BY IDOCK:   -9.69 KCAL/MOL
REMARK 923 INTER-LIGAND FREE ENERGY PREDICTED BY IDOCK:   -8.19 KCAL/MOL
REMARK 924 INTRA-LIGAND FREE ENERGY PREDICTED BY IDOCK:   -1.50 KCAL/MOL
REMARK 927      BINDING AFFINITY PREDICTED BY RF-SCORE:    0.00 PKD
ROOT
HETATM    1  C   UNL     1     -10.637  12.355  66.523  1.00  0.00    -0.235 C  
HETATM    2  S   UNL     1     -11.917  13.375  65.843  1.00  0.00    -0.434 SA 
HETATM    3  C   UNL     1     -11.249  15.050  66.011  1.00  0.00    -0.310 C  
HETATM    4  C   UNL     1      -9.822  15.217  66.479  1.00  0.00    -0.283 C  
HETATM    5  O   UNL     1      -8.271  11.671  68.610  1.00  0.00    -0.151 OA 
HETATM    6  CA  UNL     1      -9.051  14.235  67.008  1.00  0.00    -0.233 C  
HETATM    7  CA  UNL     1     -10.674  11.330  67.755  1.00  0.00    -0.220 C  
HETATM    8  N   UNL     1      -9.564  12.996  67.221  1.00  0.00    -0.218 N  
HETATM    9  C   UNL     1      -7.644  14.551  67.433  1.00  0.00    -0.184 C  
HETATM   10  OXT UNL     1      -6.971  15.406  66.872  1.00  0.00    -0.207 OA 
HETATM   11  C   UNL     1      -9.226  11.894  67.927  1.00  0.00    -0.187 C  
HETATM   12  O   UNL     1      -7.123  13.857  68.457  1.00  0.00    -0.089 OA 
ENDROOT
BRANCH   4  13
HETATM   13  C   UNL     1      -9.406  16.695  66.442  1.00  0.00    -0.281 C  
BRANCH  13  14
HETATM   14  S   UNL     1      -9.798  17.447  68.047  1.00  0.00    -0.303 SA 
BRANCH  14  15
HETATM   15  C   UNL     1      -8.423  18.452  68.292  1.00  0.00    -0.303 A  
HETATM   16  N   UNL     1      -7.326  18.156  68.949  1.00  0.00    -0.268 NA 
HETATM   17  C   UNL     1      -9.308  20.527  67.146  1.00  0.00    -0.376 C  
HETATM   18  N   UNL     1      -6.598  19.326  68.999  1.00  0.00    -0.291 NA 
HETATM   19  N   UNL     1      -8.368  19.760  67.914  1.00  0.00    -0.304 NA 
HETATM   20  N   UNL     1      -7.230  20.313  68.374  1.00  0.00    -0.228 NA 
ENDBRANCH  14  15
ENDBRANCH  13  14
ENDBRANCH   4  13
BRANCH   7  21
HETATM   21  N   UNL     1     -11.386  11.306  69.114  1.00  0.00    -0.255 N  
HETATM   22  H   UNL     1     -12.065  12.061  69.206  1.00  0.00     0.000 HD 
HETATM   23  O   UNL     1     -12.106  10.765  71.189  1.00  0.00    -0.341 OA 
HETATM   24  C   UNL     1     -11.333  10.496  70.269  1.00  0.00    -0.327 C  
BRANCH  24  25
HETATM   25  C   UNL     1     -10.251   9.450  70.531  1.00  0.00    -0.271 C  
BRANCH  25  26
HETATM   26  C   UNL     1     -10.557   8.000  70.581  1.00  0.00    -0.219 A  
HETATM   27  H2  UNL     1     -10.196   4.063  72.169  1.00  0.00     0.000 HD 
HETATM   28  H1  UNL     1     -10.172   5.302  73.423  1.00  0.00     0.000 HD 
HETATM   29  C   UNL     1     -10.681   7.205  69.446  1.00  0.00    -0.231 A  
HETATM   30  N   UNL     1     -10.520   7.261  71.760  1.00  0.00    -0.197 NA 
HETATM   31  N   UNL     1     -10.263   5.045  72.440  1.00  0.00    -0.194 NA 
HETATM   32  S   UNL     1     -10.621   5.545  69.851  1.00  0.00    -0.277 SA 
HETATM   33  C   UNL     1     -10.469   5.975  71.498  1.00  0.00    -0.228 A  
ENDBRANCH  25  26
BRANCH  25  34
HETATM   34  N   UNL     1      -9.034   9.681  70.945  1.00  0.00    -0.360 NA 
HETATM   35  H   UNL     1      -8.921  10.349  71.709  1.00  0.00     0.000 HD 
BRANCH  34  36
HETATM   36  O   UNL     1      -7.869   9.094  70.433  1.00  0.00    -0.098 OA 
HETATM   37  C   UNL     1      -6.703   9.063  71.213  1.00  0.00    -0.085 C  
ENDBRANCH  34  36
ENDBRANCH  25  34
ENDBRANCH  24  25
ENDBRANCH   7  21
TORSDOF 8
ENDMDL
MODEL       93
REMARK 921   NORMALIZED FREE ENERGY PREDICTED BY IDOCK:   -5.81 KCAL/MOL
REMARK 922        TOTAL FREE ENERGY PREDICTED BY IDOCK:   -9.69 KCAL/MOL
REMARK 923 INTER-LIGAND FREE ENERGY PREDICTED BY IDOCK:   -7.97 KCAL/MOL
REMARK 924 INTRA-LIGAND FREE ENERGY PREDICTED BY IDOCK:   -1.71 KCAL/MOL
REMARK 927      BINDING AFFINITY PREDICTED BY RF-SCORE:    0.00 PKD
ROOT
HETATM    1  C   UNL     1      -8.884   6.826  67.979  1.00  0.00    -0.119 C  
HETATM    2  S   UNL     1     -10.551   7.403  68.145  1.00  0.00    -0.122 SA 
HETATM    3  C   UNL     1     -10.635   8.778  66.970  1.00  0.00    -0.213 C  
HETATM    4  C   UNL     1      -9.459   9.022  66.054  1.00  0.00    -0.323 C  
HETATM    5  O   UNL     1      -5.709   7.211  67.533  1.00  0.00    -0.023 OA 
HETATM    6  CA  UNL     1      -8.238   8.446  66.179  1.00  0.00    -0.113 C  
HETATM    7  CA  UNL     1      -7.713   6.713  69.069  1.00  0.00    -0.109 C  
HETATM    8  N   UNL     1      -7.966   7.626  67.226  1.00  0.00    -0.117 N  
HETATM    9  C   UNL     1      -7.157   8.788  65.190  1.00  0.00    -0.086 C  
HETATM   10  OXT UNL     1      -7.408   9.079  64.027  1.00  0.00    -0.097 OA 
HETATM   11  C   UNL     1      -6.866   7.105  67.814  1.00  0.00    -0.074 C  
HETATM   12  O   UNL     1      -5.884   8.759  65.611  1.00  0.00    -0.049 OA 
ENDROOT
BRANCH   4  13
HETATM   13  C   UNL     1      -9.769  10.148  65.057  1.00  0.00    -0.318 C  
BRANCH  13  14
HETATM   14  S   UNL     1     -10.081  11.675  65.988  1.00  0.00    -0.233 SA 
BRANCH  14  15
HETATM   15  C   UNL     1     -11.291  12.420  65.017  1.00  0.00    -0.320 A  
HETATM   16  N   UNL     1     -11.650  12.089  63.799  1.00  0.00    -0.441 NA 
HETATM   17  C   UNL     1     -11.924  14.272  66.621  1.00  0.00    -0.430 C  
HETATM   18  N   UNL     1     -12.533  13.068  63.395  1.00  0.00    -0.731 NA 
HETATM   19  N   UNL     1     -11.955  13.553  65.378  1.00  0.00    -0.358 NA 
HETATM   20  N   UNL     1     -12.721  13.969  64.352  1.00  0.00    -0.654 NA 
ENDBRANCH  14  15
ENDBRANCH  13  14
ENDBRANCH   4  13
BRANCH   7  21
HETATM   21  N   UNL     1      -7.278   7.559  70.273  1.00  0.00    -0.063 N  
HETATM   22  H   UNL     1      -6.570   7.089  70.836  1.00  0.00     0.000 HD 
HETATM   23  O   UNL     1      -7.012   9.211  71.796  1.00  0.00    -0.288 OA 
HETATM   24  C   UNL     1      -7.615   8.828  70.792  1.00  0.00    -0.094 C  
BRANCH  24  25
HETATM   25  C   UNL     1      -8.809   9.655  70.319  1.00  0.00    -0.211 C  
BRANCH  25  26
HETATM   26  C   UNL     1     -10.180   9.417  70.830  1.00  0.00    -0.299 A  
HETATM   27  H2  UNL     1     -14.013  10.646  72.228  1.00  0.00     0.000 HD 
HETATM   28  H1  UNL     1     -13.405  11.674  70.932  1.00  0.00     0.000 HD 
HETATM   29  C   UNL     1     -10.487   8.436  71.769  1.00  0.00    -0.283 A  
HETATM   30  N   UNL     1     -11.236  10.292  70.596  1.00  0.00    -0.330 NA 
HETATM   31  N   UNL     1     -13.295  10.858  71.534  1.00  0.00    -0.276 NA 
HETATM   32  S   UNL     1     -12.039   8.694  72.440  1.00  0.00    -0.293 SA 
HETATM   33  C   UNL     1     -12.224  10.061  71.430  1.00  0.00    -0.416 A  
ENDBRANCH  25  26
BRANCH  25  34
HETATM   34  N   UNL     1      -8.829  10.474  69.303  1.00  0.00    -0.289 NA 
HETATM   35  H   UNL     1      -9.713  10.942  69.099  1.00  0.00     0.000 HD 
BRANCH  34  36
HETATM   36  O   UNL     1      -7.743  10.767  68.466  1.00  0.00    -0.104 OA 
HETATM   37  C   UNL     1      -7.098  12.010  68.570  1.00  0.00    -0.098 C  
ENDBRANCH  34  36
ENDBRANCH  25  34
ENDBRANCH  24  25
ENDBRANCH   7  21
TORSDOF 8
ENDMDL
MODEL       94
REMARK 921   NORMALIZED FREE ENERGY PREDICTED BY IDOCK:   -5.78 KCAL/MOL
REMARK 922        TOTAL FREE ENERGY PREDICTED BY IDOCK:   -9.64 KCAL/MOL
REMARK 923 INTER-LIGAND FREE ENERGY PREDICTED BY IDOCK:   -8.54 KCAL/MOL
REMARK 924 INTRA-LIGAND FREE ENERGY PREDICTED BY IDOCK:   -1.10 KCAL/MOL
REMARK 927      BINDING AFFINITY PREDICTED BY RF-SCORE:    0.00 PKD
ROOT
HETATM    1  C   UNL     1     -11.295  10.186  68.117  1.00  0.00    -0.099 C  
HETATM    2  S   UNL     1      -9.935   9.481  67.226  1.00  0.00    -0.203 SA 
HETATM    3  C   UNL     1      -9.310   8.211  68.355  1.00  0.00    -0.135 C  
HETATM    4  C   UNL     1     -10.091   7.913  69.614  1.00  0.00    -0.197 C  
HETATM    5  O   UNL     1     -12.807  11.196  70.785  1.00  0.00    -0.305 OA 
HETATM    6  CA  UNL     1     -11.106   8.668  70.102  1.00  0.00    -0.192 C  
HETATM    7  CA  UNL     1     -11.549  11.695  68.595  1.00  0.00    -0.312 C  
HETATM    8  N   UNL     1     -11.455   9.830  69.494  1.00  0.00    -0.083 N  
HETATM    9  C   UNL     1     -11.792   8.247  71.373  1.00  0.00    -0.293 C  
HETATM   10  OXT UNL     1     -11.903   7.071  71.694  1.00  0.00    -0.279 OA 
HETATM   11  C   UNL     1     -12.183  10.928  69.802  1.00  0.00    -0.311 C  
HETATM   12  O   UNL     1     -12.300   9.205  72.163  1.00  0.00    -0.369 OA 
ENDROOT
BRANCH   4  13
HETATM   13  C   UNL     1      -9.469   6.732  70.373  1.00  0.00    -0.166 C  
BRANCH  13  14
HETATM   14  S   UNL     1      -9.613   5.243  69.345  1.00  0.00    -0.171 SA 
BRANCH  14  15
HETATM   15  C   UNL     1      -9.764   4.019  70.546  1.00  0.00    -0.188 A  
HETATM   16  N   UNL     1     -10.000   4.183  71.826  1.00  0.00    -0.184 NA 
HETATM   17  C   UNL     1      -9.266   2.027  69.066  1.00  0.00    -0.142 C  
HETATM   18  N   UNL     1      -9.875   2.930  72.389  1.00  0.00    -0.147 NA 
HETATM   19  N   UNL     1      -9.531   2.698  70.308  1.00  0.00    -0.129 NA 
HETATM   20  N   UNL     1      -9.583   2.018  71.469  1.00  0.00    -0.130 NA 
ENDBRANCH  14  15
ENDBRANCH  13  14
ENDBRANCH   4  13
BRANCH   7  21
HETATM   21  N   UNL     1     -10.651  12.825  69.115  1.00  0.00    -0.439 N  
HETATM   22  H   UNL     1     -10.236  12.601  70.019  1.00  0.00     0.000 HD 
HETATM   23  O   UNL     1      -9.465  14.738  69.345  1.00  0.00    -0.114 OA 
HETATM   24  C   UNL     1     -10.258  14.099  68.651  1.00  0.00    -0.238 C  
BRANCH  24  25
HETATM   25  C   UNL     1     -10.902  14.812  67.464  1.00  0.00    -0.287 C  
BRANCH  25  26
HETATM   26  C   UNL     1     -11.095  14.140  66.156  1.00  0.00    -0.312 A  
HETATM   27  H2  UNL     1     -13.110  11.538  63.450  1.00  0.00     0.000 HD 
HETATM   28  H1  UNL     1     -14.223  12.422  64.492  1.00  0.00     0.000 HD 
HETATM   29  C   UNL     1     -10.048  13.623  65.399  1.00  0.00    -0.271 A  
HETATM   30  N   UNL     1     -12.347  13.761  65.680  1.00  0.00    -0.452 NA 
HETATM   31  N   UNL     1     -13.271  12.234  64.178  1.00  0.00    -0.738 NA 
HETATM   32  S   UNL     1     -10.631  12.571  64.183  1.00  0.00    -0.426 SA 
HETATM   33  C   UNL     1     -12.227  12.887  64.708  1.00  0.00    -0.445 A  
ENDBRANCH  25  26
BRANCH  25  34
HETATM   34  N   UNL     1     -11.144  16.092  67.368  1.00  0.00    -0.230 NA 
HETATM   35  H   UNL     1     -12.111  16.371  67.198  1.00  0.00     0.000 HD 
BRANCH  34  36
HETATM   36  O   UNL     1     -10.194  17.115  67.476  1.00  0.00    -0.302 OA 
HETATM   37  C   UNL     1      -9.024  17.067  66.701  1.00  0.00    -0.254 C  
ENDBRANCH  34  36
ENDBRANCH  25  34
ENDBRANCH  24  25
ENDBRANCH   7  21
TORSDOF 8
ENDMDL
MODEL       95
REMARK 921   NORMALIZED FREE ENERGY PREDICTED BY IDOCK:   -5.78 KCAL/MOL
REMARK 922        TOTAL FREE ENERGY PREDICTED BY IDOCK:   -9.64 KCAL/MOL
REMARK 923 INTER-LIGAND FREE ENERGY PREDICTED BY IDOCK:   -7.92 KCAL/MOL
REMARK 924 INTRA-LIGAND FREE ENERGY PREDICTED BY IDOCK:   -1.71 KCAL/MOL
REMARK 927      BINDING AFFINITY PREDICTED BY RF-SCORE:    0.00 PKD
ROOT
HETATM    1  C   UNL     1      -9.851  10.976  64.949  1.00  0.00    -0.274 C  
HETATM    2  S   UNL     1      -8.132  10.549  64.980  1.00  0.00    -0.042 SA 
HETATM    3  C   UNL     1      -7.820  10.201  66.729  1.00  0.00    -0.108 C  
HETATM    4  C   UNL     1      -8.992  10.171  67.682  1.00  0.00    -0.134 C  
HETATM    5  O   UNL     1     -12.528  12.327  66.145  1.00  0.00    -0.466 OA 
HETATM    6  CA  UNL     1     -10.243  10.607  67.397  1.00  0.00    -0.204 C  
HETATM    7  CA  UNL     1     -10.575  12.324  64.469  1.00  0.00    -0.311 C  
HETATM    8  N   UNL     1     -10.516  11.186  66.200  1.00  0.00    -0.250 N  
HETATM    9  C   UNL     1     -11.313  10.517  68.451  1.00  0.00    -0.262 C  
HETATM   10  OXT UNL     1     -11.320   9.633  69.297  1.00  0.00    -0.111 OA 
HETATM   11  C   UNL     1     -11.503  11.941  65.668  1.00  0.00    -0.255 C  
HETATM   12  O   UNL     1     -12.287  11.439  68.442  1.00  0.00    -0.505 OA 
ENDROOT
BRANCH   4  13
HETATM   13  C   UNL     1      -8.540   9.743  69.086  1.00  0.00    -0.153 C  
BRANCH  13  14
HETATM   14  S   UNL     1      -7.933   8.035  69.004  1.00  0.00    -0.116 SA 
BRANCH  14  15
HETATM   15  C   UNL     1      -9.356   7.153  69.406  1.00  0.00    -0.147 A  
HETATM   16  N   UNL     1      -9.729   6.742  70.596  1.00  0.00    -0.172 NA 
HETATM   17  C   UNL     1     -10.258   6.871  67.059  1.00  0.00    -0.248 C  
HETATM   18  N   UNL     1     -10.841   5.955  70.383  1.00  0.00    -0.300 NA 
HETATM   19  N   UNL     1     -10.227   6.665  68.480  1.00  0.00    -0.160 NA 
HETATM   20  N   UNL     1     -11.149   5.898  69.092  1.00  0.00    -0.326 NA 
ENDBRANCH  14  15
ENDBRANCH  13  14
ENDBRANCH   4  13
BRANCH   7  21
HETATM   21  N   UNL     1     -10.227  13.817  64.540  1.00  0.00    -0.675 N  
HETATM   22  H   UNL     1     -10.205  14.250  63.618  1.00  0.00     0.000 HD 
HETATM   23  O   UNL     1      -9.729  15.909  65.242  1.00  0.00    -0.385 OA 
HETATM   24  C   UNL     1      -9.931  14.738  65.568  1.00  0.00    -0.356 C  
BRANCH  24  25
HETATM   25  C   UNL     1      -9.645  14.342  67.015  1.00  0.00    -0.247 C  
BRANCH  25  26
HETATM   26  C   UNL     1      -8.264  14.123  67.509  1.00  0.00    -0.186 A  
HETATM   27  H2  UNL     1      -5.380  12.933  70.411  1.00  0.00     0.000 HD 
HETATM   28  H1  UNL     1      -6.806  11.896  70.411  1.00  0.00     0.000 HD 
HETATM   29  C   UNL     1      -7.218  15.010  67.276  1.00  0.00    -0.140 A  
HETATM   30  N   UNL     1      -7.942  13.138  68.438  1.00  0.00    -0.139 NA 
HETATM   31  N   UNL     1      -6.284  12.677  70.013  1.00  0.00    -0.105 NA 
HETATM   32  S   UNL     1      -5.894  14.684  68.309  1.00  0.00    -0.126 SA 
HETATM   33  C   UNL     1      -6.767  13.374  68.976  1.00  0.00    -0.108 A  
ENDBRANCH  25  26
BRANCH  25  34
HETATM   34  N   UNL     1     -10.522  13.945  67.897  1.00  0.00    -0.239 NA 
HETATM   35  H   UNL     1     -10.381  13.023  68.311  1.00  0.00     0.000 HD 
BRANCH  34  36
HETATM   36  O   UNL     1     -11.639  14.674  68.325  1.00  0.00    -0.296 OA 
HETATM   37  C   UNL     1     -11.486  16.005  68.743  1.00  0.00    -0.375 C  
ENDBRANCH  34  36
ENDBRANCH  25  34
ENDBRANCH  24  25
ENDBRANCH   7  21
TORSDOF 8
ENDMDL
MODEL       96
REMARK 921   NORMALIZED FREE ENERGY PREDICTED BY IDOCK:   -5.76 KCAL/MOL
REMARK 922        TOTAL FREE ENERGY PREDICTED BY IDOCK:   -9.61 KCAL/MOL
REMARK 923 INTER-LIGAND FREE ENERGY PREDICTED BY IDOCK:   -8.40 KCAL/MOL
REMARK 924 INTRA-LIGAND FREE ENERGY PREDICTED BY IDOCK:   -1.22 KCAL/MOL
REMARK 927      BINDING AFFINITY PREDICTED BY RF-SCORE:    0.00 PKD
ROOT
HETATM    1  C   UNL     1      -9.052  11.658  68.294  1.00  0.00    -0.187 C  
HETATM    2  S   UNL     1      -7.372  12.185  68.491  1.00  0.00    -0.106 SA 
HETATM    3  C   UNL     1      -7.492  13.991  68.433  1.00  0.00    -0.119 C  
HETATM    4  C   UNL     1      -8.863  14.626  68.410  1.00  0.00    -0.181 C  
HETATM    5  O   UNL     1     -12.032  11.856  67.066  1.00  0.00    -0.615 OA 
HETATM    6  CA  UNL     1     -10.027  13.965  68.199  1.00  0.00    -0.240 C  
HETATM    7  CA  UNL     1      -9.721  10.728  67.173  1.00  0.00    -0.170 C  
HETATM    8  N   UNL     1     -10.026  12.638  67.916  1.00  0.00    -0.221 N  
HETATM    9  C   UNL     1     -11.321  14.733  68.202  1.00  0.00    -0.307 C  
HETATM   10  OXT UNL     1     -11.482  15.734  68.888  1.00  0.00    -0.334 OA 
HETATM   11  C   UNL     1     -10.895  11.732  67.413  1.00  0.00    -0.251 C  
HETATM   12  O   UNL     1     -12.322  14.286  67.429  1.00  0.00    -0.311 OA 
ENDROOT
BRANCH   4  13
HETATM   13  C   UNL     1      -8.755  16.156  68.482  1.00  0.00    -0.200 C  
BRANCH  13  14
HETATM   14  S   UNL     1      -8.093  16.764  66.905  1.00  0.00    -0.238 SA 
BRANCH  14  15
HETATM   15  C   UNL     1      -9.496  16.707  65.908  1.00  0.00    -0.183 A  
HETATM   16  N   UNL     1      -9.857  15.742  65.095  1.00  0.00    -0.341 NA 
HETATM   17  C   UNL     1     -10.398  19.006  66.456  1.00  0.00    -0.439 C  
HETATM   18  N   UNL     1     -10.952  16.225  64.411  1.00  0.00    -0.715 NA 
HETATM   19  N   UNL     1     -10.359  17.750  65.761  1.00  0.00    -0.609 NA 
HETATM   20  N   UNL     1     -11.262  17.454  64.808  1.00  0.00    -0.782 NA 
ENDBRANCH  14  15
ENDBRANCH  13  14
ENDBRANCH   4  13
BRANCH   7  21
HETATM   21  N   UNL     1      -9.506  10.534  65.666  1.00  0.00    -0.197 N  
HETATM   22  H   UNL     1     -10.030  11.211  65.113  1.00  0.00     0.000 HD 
HETATM   23  O   UNL     1      -8.803   9.821  63.637  1.00  0.00    -0.206 OA 
HETATM   24  C   UNL     1      -8.761   9.649  64.857  1.00  0.00    -0.181 C  
BRANCH  24  25
HETATM   25  C   UNL     1      -8.082   8.383  65.375  1.00  0.00    -0.133 C  
BRANCH  25  26
HETATM   26  C   UNL     1      -8.405   7.807  66.702  1.00  0.00    -0.126 A  
HETATM   27  H2  UNL     1     -11.063   6.512  69.770  1.00  0.00     0.000 HD 
HETATM   28  H1  UNL     1     -11.668   6.150  68.155  1.00  0.00     0.000 HD 
HETATM   29  C   UNL     1      -7.700   8.115  67.862  1.00  0.00    -0.114 A  
HETATM   30  N   UNL     1      -9.573   7.094  66.952  1.00  0.00    -0.159 NA 
HETATM   31  N   UNL     1     -10.932   6.517  68.758  1.00  0.00    -0.302 NA 
HETATM   32  S   UNL     1      -8.564   7.625  69.254  1.00  0.00    -0.136 SA 
HETATM   33  C   UNL     1      -9.797   7.008  68.243  1.00  0.00    -0.144 A  
ENDBRANCH  25  26
BRANCH  25  34
HETATM   34  N   UNL     1      -7.032   7.802  64.860  1.00  0.00    -0.054 NA 
HETATM   35  H   UNL     1      -7.196   7.006  64.242  1.00  0.00     0.000 HD 
BRANCH  34  36
HETATM   36  O   UNL     1      -5.699   8.173  65.083  1.00  0.00    -0.043 OA 
HETATM   37  C   UNL     1      -5.199   9.354  64.510  1.00  0.00    -0.053 C  
ENDBRANCH  34  36
ENDBRANCH  25  34
ENDBRANCH  24  25
ENDBRANCH   7  21
TORSDOF 8
ENDMDL
MODEL       97
REMARK 921   NORMALIZED FREE ENERGY PREDICTED BY IDOCK:   -5.75 KCAL/MOL
REMARK 922        TOTAL FREE ENERGY PREDICTED BY IDOCK:   -9.60 KCAL/MOL
REMARK 923 INTER-LIGAND FREE ENERGY PREDICTED BY IDOCK:   -7.85 KCAL/MOL
REMARK 924 INTRA-LIGAND FREE ENERGY PREDICTED BY IDOCK:   -1.75 KCAL/MOL
REMARK 927      BINDING AFFINITY PREDICTED BY RF-SCORE:    0.00 PKD
ROOT
HETATM    1  C   UNL     1     -10.491   6.915  68.926  1.00  0.00    -0.208 C  
HETATM    2  S   UNL     1      -9.208   5.843  68.339  1.00  0.00    -0.117 SA 
HETATM    3  C   UNL     1      -8.595   5.058  69.851  1.00  0.00    -0.098 C  
HETATM    4  C   UNL     1      -9.333   5.307  71.146  1.00  0.00    -0.192 C  
HETATM    5  O   UNL     1     -11.830   8.950  71.045  1.00  0.00    -0.283 OA 
HETATM    6  CA  UNL     1     -10.287   6.251  71.335  1.00  0.00    -0.210 C  
HETATM    7  CA  UNL     1     -10.650   8.506  68.802  1.00  0.00    -0.133 C  
HETATM    8  N   UNL     1     -10.606   7.117  70.339  1.00  0.00    -0.219 N  
HETATM    9  C   UNL     1     -10.935   6.385  72.685  1.00  0.00    -0.253 C  
HETATM   10  OXT UNL     1     -11.088   5.427  73.431  1.00  0.00    -0.297 OA 
HETATM   11  C   UNL     1     -11.265   8.292  70.223  1.00  0.00    -0.176 C  
HETATM   12  O   UNL     1     -11.360   7.600  73.064  1.00  0.00    -0.372 OA 
ENDROOT
BRANCH   4  13
HETATM   13  C   UNL     1      -8.736   4.464  72.283  1.00  0.00    -0.113 C  
BRANCH  13  14
HETATM   14  S   UNL     1      -7.026   5.004  72.566  1.00  0.00    -0.078 SA 
BRANCH  14  15
HETATM   15  C   UNL     1      -7.268   6.624  73.097  1.00  0.00    -0.077 A  
HETATM   16  N   UNL     1      -7.736   7.020  74.258  1.00  0.00    -0.108 NA 
HETATM   17  C   UNL     1      -6.585   7.790  70.959  1.00  0.00    -0.038 C  
HETATM   18  N   UNL     1      -7.890   8.386  74.147  1.00  0.00    -0.353 NA 
HETATM   19  N   UNL     1      -7.103   7.712  72.296  1.00  0.00    -0.067 NA 
HETATM   20  N   UNL     1      -7.510   8.816  72.949  1.00  0.00    -0.361 NA 
ENDBRANCH  14  15
ENDBRANCH  13  14
ENDBRANCH   4  13
BRANCH   7  21
HETATM   21  N   UNL     1      -9.675   9.691  68.832  1.00  0.00    -0.157 N  
HETATM   22  H   UNL     1      -8.760   9.426  69.196  1.00  0.00     0.000 HD 
HETATM   23  O   UNL     1      -8.705  11.723  68.614  1.00  0.00    -0.143 OA 
HETATM   24  C   UNL     1      -9.733  11.057  68.481  1.00  0.00    -0.189 C  
BRANCH  24  25
HETATM   25  C   UNL     1     -11.025  11.799  68.146  1.00  0.00    -0.228 C  
BRANCH  25  26
HETATM   26  C   UNL     1     -11.580  12.846  69.037  1.00  0.00    -0.322 A  
HETATM   27  H2  UNL     1     -11.516  16.619  71.017  1.00  0.00     0.000 HD 
HETATM   28  H1  UNL     1     -10.843  16.698  69.390  1.00  0.00     0.000 HD 
HETATM   29  C   UNL     1     -12.219  12.566  70.241  1.00  0.00    -0.267 A  
HETATM   30  N   UNL     1     -11.313  14.202  68.869  1.00  0.00    -0.260 NA 
HETATM   31  N   UNL     1     -11.295  16.163  70.131  1.00  0.00    -0.354 NA 
HETATM   32  S   UNL     1     -12.364  13.973  71.202  1.00  0.00    -0.347 SA 
HETATM   33  C   UNL     1     -11.605  14.871  69.960  1.00  0.00    -0.289 A  
ENDBRANCH  25  26
BRANCH  25  34
HETATM   34  N   UNL     1     -11.882  11.481  67.214  1.00  0.00    -0.604 NA 
HETATM   35  H   UNL     1     -12.348  10.577  67.299  1.00  0.00     0.000 HD 
BRANCH  34  36
HETATM   36  O   UNL     1     -12.218  12.272  66.107  1.00  0.00    -0.647 OA 
HETATM   37  C   UNL     1     -11.211  12.717  65.237  1.00  0.00    -0.293 C  
ENDBRANCH  34  36
ENDBRANCH  25  34
ENDBRANCH  24  25
ENDBRANCH   7  21
TORSDOF 8
ENDMDL
MODEL       98
REMARK 921   NORMALIZED FREE ENERGY PREDICTED BY IDOCK:   -5.74 KCAL/MOL
REMARK 922        TOTAL FREE ENERGY PREDICTED BY IDOCK:   -9.59 KCAL/MOL
REMARK 923 INTER-LIGAND FREE ENERGY PREDICTED BY IDOCK:   -7.89 KCAL/MOL
REMARK 924 INTRA-LIGAND FREE ENERGY PREDICTED BY IDOCK:   -1.70 KCAL/MOL
REMARK 927      BINDING AFFINITY PREDICTED BY RF-SCORE:    0.00 PKD
ROOT
HETATM    1  C   UNL     1     -10.869   9.010  70.993  1.00  0.00    -0.276 C  
HETATM    2  S   UNL     1     -12.106   7.753  71.165  1.00  0.00    -0.252 SA 
HETATM    3  C   UNL     1     -11.277   6.265  70.551  1.00  0.00    -0.354 C  
HETATM    4  C   UNL     1      -9.805   6.340  70.219  1.00  0.00    -0.199 C  
HETATM    5  O   UNL     1      -8.400  10.469  69.510  1.00  0.00    -0.144 OA 
HETATM    6  CA  UNL     1      -9.083   7.483  70.119  1.00  0.00    -0.147 C  
HETATM    7  CA  UNL     1     -10.890  10.375  70.153  1.00  0.00    -0.271 C  
HETATM    8  N   UNL     1      -9.685   8.693  70.253  1.00  0.00    -0.170 N  
HETATM    9  C   UNL     1      -7.621   7.404  69.777  1.00  0.00    -0.095 C  
HETATM   10  OXT UNL     1      -6.925   6.453  70.110  1.00  0.00    -0.059 OA 
HETATM   11  C   UNL     1      -9.387   9.982  69.975  1.00  0.00    -0.119 C  
HETATM   12  O   UNL     1      -7.076   8.421  69.092  1.00  0.00    -0.061 OA 
ENDROOT
BRANCH   4  13
HETATM   13  C   UNL     1      -9.263   4.956  69.833  1.00  0.00    -0.124 C  
BRANCH  13  14
HETATM   14  S   UNL     1      -9.961   4.490  68.224  1.00  0.00     0.037 SA 
BRANCH  14  15
HETATM   15  C   UNL     1      -8.996   5.430  67.152  1.00  0.00    -0.112 A  
HETATM   16  N   UNL     1      -7.777   5.169  66.742  1.00  0.00    -0.092 NA 
HETATM   17  C   UNL     1     -10.609   7.353  66.837  1.00  0.00    -0.305 C  
HETATM   18  N   UNL     1      -7.380   6.283  66.032  1.00  0.00    -0.078 NA 
HETATM   19  N   UNL     1      -9.363   6.656  66.686  1.00  0.00    -0.159 NA 
HETATM   20  N   UNL     1      -8.341   7.198  65.998  1.00  0.00    -0.128 NA 
ENDBRANCH  14  15
ENDBRANCH  13  14
ENDBRANCH   4  13
BRANCH   7  21
HETATM   21  N   UNL     1     -11.479  10.799  68.800  1.00  0.00    -0.312 N  
HETATM   22  H   UNL     1     -11.746   9.997  68.230  1.00  0.00     0.000 HD 
HETATM   23  O   UNL     1     -12.273  11.977  67.040  1.00  0.00    -0.516 OA 
HETATM   24  C   UNL     1     -11.740  12.024  68.150  1.00  0.00    -0.333 C  
BRANCH  24  25
HETATM   25  C   UNL     1     -11.226  13.377  68.638  1.00  0.00    -0.269 C  
BRANCH  25  26
HETATM   26  C   UNL     1     -11.602  13.929  69.962  1.00  0.00    -0.212 A  
HETATM   27  H2  UNL     1     -14.216  14.469  73.282  1.00  0.00     0.000 HD 
HETATM   28  H1  UNL     1     -14.280  12.832  72.631  1.00  0.00     0.000 HD 
HETATM   29  C   UNL     1     -11.328  15.236  70.351  1.00  0.00    -0.296 A  
HETATM   30  N   UNL     1     -12.458  13.270  70.839  1.00  0.00    -0.366 NA 
HETATM   31  N   UNL     1     -13.878  13.769  72.620  1.00  0.00    -0.740 NA 
HETATM   32  S   UNL     1     -12.240  15.669  71.732  1.00  0.00    -0.469 SA 
HETATM   33  C   UNL     1     -12.913  14.097  71.751  1.00  0.00    -0.348 A  
ENDBRANCH  25  26
BRANCH  25  34
HETATM   34  N   UNL     1     -10.613  14.277  67.917  1.00  0.00    -0.238 NA 
HETATM   35  H   UNL     1      -9.639  14.476  68.150  1.00  0.00     0.000 HD 
BRANCH  34  36
HETATM   36  O   UNL     1     -11.175  14.995  66.853  1.00  0.00    -0.333 OA 
HETATM   37  C   UNL     1     -10.341  15.566  65.879  1.00  0.00    -0.347 C  
ENDBRANCH  34  36
ENDBRANCH  25  34
ENDBRANCH  24  25
ENDBRANCH   7  21
TORSDOF 8
ENDMDL
MODEL       99
REMARK 921   NORMALIZED FREE ENERGY PREDICTED BY IDOCK:   -5.74 KCAL/MOL
REMARK 922        TOTAL FREE ENERGY PREDICTED BY IDOCK:   -9.58 KCAL/MOL
REMARK 923 INTER-LIGAND FREE ENERGY PREDICTED BY IDOCK:   -8.45 KCAL/MOL
REMARK 924 INTRA-LIGAND FREE ENERGY PREDICTED BY IDOCK:   -1.13 KCAL/MOL
REMARK 927      BINDING AFFINITY PREDICTED BY RF-SCORE:    0.00 PKD
ROOT
HETATM    1  C   UNL     1      -8.914  11.858  68.319  1.00  0.00    -0.178 C  
HETATM    2  S   UNL     1      -7.565  13.007  68.311  1.00  0.00    -0.143 SA 
HETATM    3  C   UNL     1      -8.155  14.334  67.230  1.00  0.00    -0.178 C  
HETATM    4  C   UNL     1      -9.586  14.293  66.747  1.00  0.00    -0.290 C  
HETATM    5  O   UNL     1     -11.374  10.259  66.972  1.00  0.00    -0.177 OA 
HETATM    6  CA  UNL     1     -10.420  13.230  66.859  1.00  0.00    -0.261 C  
HETATM    7  CA  UNL     1      -8.966  10.318  67.876  1.00  0.00    -0.131 C  
HETATM    8  N   UNL     1      -9.976  12.058  67.379  1.00  0.00    -0.190 N  
HETATM    9  C   UNL     1     -11.823  13.334  66.327  1.00  0.00    -0.395 C  
HETATM   10  OXT UNL     1     -12.435  14.394  66.310  1.00  0.00    -0.393 OA 
HETATM   11  C   UNL     1     -10.389  10.771  67.414  1.00  0.00    -0.211 C  
HETATM   12  O   UNL     1     -12.409  12.217  65.869  1.00  0.00    -0.618 OA 
ENDROOT
BRANCH   4  13
HETATM   13  C   UNL     1      -9.927  15.559  65.946  1.00  0.00    -0.349 C  
BRANCH  13  14
HETATM   14  S   UNL     1     -10.305  16.897  67.113  1.00  0.00    -0.288 SA 
BRANCH  14  15
HETATM   15  C   UNL     1      -9.176  18.100  66.623  1.00  0.00    -0.290 A  
HETATM   16  N   UNL     1      -8.214  17.976  65.738  1.00  0.00    -0.487 NA 
HETATM   17  C   UNL     1      -9.924  19.934  68.198  1.00  0.00    -0.427 C  
HETATM   18  N   UNL     1      -7.493  19.150  65.810  1.00  0.00    -0.447 NA 
HETATM   19  N   UNL     1      -9.080  19.327  67.206  1.00  0.00    -0.292 NA 
HETATM   20  N   UNL     1      -8.013  19.978  66.709  1.00  0.00    -0.302 NA 
ENDBRANCH  14  15
ENDBRANCH  13  14
ENDBRANCH   4  13
BRANCH   7  21
HETATM   21  N   UNL     1      -8.298   9.494  66.766  1.00  0.00    -0.116 N  
HETATM   22  H   UNL     1      -7.624  10.043  66.233  1.00  0.00     0.000 HD 
HETATM   23  O   UNL     1      -7.645   7.834  65.375  1.00  0.00    -0.080 OA 
HETATM   24  C   UNL     1      -8.388   8.165  66.301  1.00  0.00    -0.119 C  
BRANCH  24  25
HETATM   25  C   UNL     1      -9.477   7.182  66.727  1.00  0.00    -0.169 C  
BRANCH  25  26
HETATM   26  C   UNL     1      -9.851   6.994  68.149  1.00  0.00    -0.139 A  
HETATM   27  H2  UNL     1      -9.147   5.747  72.162  1.00  0.00     0.000 HD 
HETATM   28  H1  UNL     1      -7.711   6.436  71.407  1.00  0.00     0.000 HD 
HETATM   29  C   UNL     1     -11.112   6.571  68.559  1.00  0.00    -0.265 A  
HETATM   30  N   UNL     1      -8.919   7.000  69.183  1.00  0.00    -0.135 NA 
HETATM   31  N   UNL     1      -8.702   6.197  71.362  1.00  0.00    -0.135 NA 
HETATM   32  S   UNL     1     -11.089   6.066  70.193  1.00  0.00    -0.329 SA 
HETATM   33  C   UNL     1      -9.429   6.466  70.269  1.00  0.00    -0.161 A  
ENDBRANCH  25  26
BRANCH  25  34
HETATM   34  N   UNL     1     -10.031   6.267  65.978  1.00  0.00    -0.390 NA 
HETATM   35  H   UNL     1     -10.790   6.564  65.364  1.00  0.00     0.000 HD 
BRANCH  34  36
HETATM   36  O   UNL     1      -9.675   4.912  65.943  1.00  0.00    -0.164 OA 
HETATM   37  C   UNL     1     -10.166   4.088  64.918  1.00  0.00    -0.200 C  
ENDBRANCH  34  36
ENDBRANCH  25  34
ENDBRANCH  24  25
ENDBRANCH   7  21
TORSDOF 8
ENDMDL
MODEL      100
REMARK 921   NORMALIZED FREE ENERGY PREDICTED BY IDOCK:   -5.73 KCAL/MOL
REMARK 922        TOTAL FREE ENERGY PREDICTED BY IDOCK:   -9.57 KCAL/MOL
REMARK 923 INTER-LIGAND FREE ENERGY PREDICTED BY IDOCK:   -8.38 KCAL/MOL
REMARK 924 INTRA-LIGAND FREE ENERGY PREDICTED BY IDOCK:   -1.19 KCAL/MOL
REMARK 927      BINDING AFFINITY PREDICTED BY RF-SCORE:    0.00 PKD
ROOT
HETATM    1  C   UNL     1     -10.716  11.951  66.170  1.00  0.00    -0.278 C  
HETATM    2  S   UNL     1      -9.441  12.661  67.175  1.00  0.00    -0.221 SA 
HETATM    3  C   UNL     1      -9.376  14.381  66.611  1.00  0.00    -0.278 C  
HETATM    4  C   UNL     1     -10.421  14.863  65.633  1.00  0.00    -0.366 C  
HETATM    5  O   UNL     1     -12.379  11.573  63.428  1.00  0.00    -0.352 OA 
HETATM    6  CA  UNL     1     -11.282  14.067  64.952  1.00  0.00    -0.362 C  
HETATM    7  CA  UNL     1     -10.661  10.720  65.144  1.00  0.00    -0.169 C  
HETATM    8  N   UNL     1     -11.208  12.717  65.064  1.00  0.00    -0.289 N  
HETATM    9  C   UNL     1     -12.271  14.691  64.006  1.00  0.00    -0.194 C  
HETATM   10  OXT UNL     1     -12.734  15.809  64.192  1.00  0.00    -0.474 OA 
HETATM   11  C   UNL     1     -11.676  11.641  64.392  1.00  0.00    -0.143 C  
HETATM   12  O   UNL     1     -12.653  13.981  62.934  1.00  0.00    -0.523 OA 
ENDROOT
BRANCH   4  13
HETATM   13  C   UNL     1     -10.269  16.369  65.371  1.00  0.00    -0.189 C  
BRANCH  13  14
HETATM   14  S   UNL     1      -8.778  16.956  66.224  1.00  0.00    -0.261 SA 
BRANCH  14  15
HETATM   15  C   UNL     1      -9.342  18.430  66.912  1.00  0.00    -0.290 A  
HETATM   16  N   UNL     1      -9.162  19.645  66.450  1.00  0.00    -0.366 NA 
HETATM   17  C   UNL     1     -10.405  17.452  68.989  1.00  0.00    -0.319 C  
HETATM   18  N   UNL     1      -9.660  20.487  67.422  1.00  0.00    -0.444 NA 
HETATM   19  N   UNL     1      -9.965  18.507  68.120  1.00  0.00    -0.342 NA 
HETATM   20  N   UNL     1     -10.148  19.800  68.449  1.00  0.00    -0.442 NA 
ENDBRANCH  14  15
ENDBRANCH  13  14
ENDBRANCH   4  13
BRANCH   7  21
HETATM   21  N   UNL     1      -9.614  10.188  64.155  1.00  0.00    -0.305 N  
HETATM   22  H   UNL     1      -9.790  10.505  63.202  1.00  0.00     0.000 HD 
HETATM   23  O   UNL     1      -7.827   9.178  63.205  1.00  0.00    -0.119 OA 
HETATM   24  C   UNL     1      -8.468   9.369  64.240  1.00  0.00    -0.187 C  
BRANCH  24  25
HETATM   25  C   UNL     1      -8.093   8.548  65.472  1.00  0.00    -0.126 C  
BRANCH  25  26
HETATM   26  C   UNL     1      -8.902   7.387  65.917  1.00  0.00    -0.120 A  
HETATM   27  H2  UNL     1     -11.135   5.145  68.770  1.00  0.00     0.000 HD 
HETATM   28  H1  UNL     1     -11.388   6.882  68.928  1.00  0.00     0.000 HD 
HETATM   29  C   UNL     1      -8.617   6.073  65.558  1.00  0.00    -0.143 A  
HETATM   30  N   UNL     1      -9.871   7.479  66.912  1.00  0.00    -0.207 NA 
HETATM   31  N   UNL     1     -10.962   6.095  68.439  1.00  0.00    -0.315 NA 
HETATM   32  S   UNL     1      -9.465   4.968  66.549  1.00  0.00    -0.164 SA 
HETATM   33  C   UNL     1     -10.179   6.287  67.369  1.00  0.00    -0.180 A  
ENDBRANCH  25  26
BRANCH  25  34
HETATM   34  N   UNL     1      -7.205   8.867  66.375  1.00  0.00    -0.083 NA 
HETATM   35  H   UNL     1      -6.625   8.113  66.745  1.00  0.00     0.000 HD 
BRANCH  34  36
HETATM   36  O   UNL     1      -6.978  10.154  66.880  1.00  0.00    -0.086 OA 
HETATM   37  C   UNL     1      -5.914  10.377  67.769  1.00  0.00    -0.044 C  
ENDBRANCH  34  36
ENDBRANCH  25  34
ENDBRANCH  24  25
ENDBRANCH   7  21
TORSDOF 8
ENDMDL
MODEL      101
REMARK 921   NORMALIZED FREE ENERGY PREDICTED BY IDOCK:   -5.72 KCAL/MOL
REMARK 922        TOTAL FREE ENERGY PREDICTED BY IDOCK:   -9.56 KCAL/MOL
REMARK 923 INTER-LIGAND FREE ENERGY PREDICTED BY IDOCK:   -8.41 KCAL/MOL
REMARK 924 INTRA-LIGAND FREE ENERGY PREDICTED BY IDOCK:   -1.15 KCAL/MOL
REMARK 927      BINDING AFFINITY PREDICTED BY RF-SCORE:    0.00 PKD
ROOT
HETATM    1  C   UNL     1      -9.462  10.486  67.850  1.00  0.00    -0.147 C  
HETATM    2  S   UNL     1     -10.216  10.760  69.430  1.00  0.00    -0.104 SA 
HETATM    3  C   UNL     1     -10.814   9.116  69.898  1.00  0.00    -0.228 C  
HETATM    4  C   UNL     1     -10.438   7.935  69.033  1.00  0.00    -0.210 C  
HETATM    5  O   UNL     1      -9.235   9.098  64.944  1.00  0.00    -0.192 OA 
HETATM    6  CA  UNL     1      -9.879   8.015  67.800  1.00  0.00    -0.165 C  
HETATM    7  CA  UNL     1      -9.790  11.132  66.420  1.00  0.00    -0.211 C  
HETATM    8  N   UNL     1      -9.673   9.221  67.213  1.00  0.00    -0.158 N  
HETATM    9  C   UNL     1      -9.562   6.749  67.052  1.00  0.00    -0.152 C  
HETATM   10  OXT UNL     1      -9.253   5.713  67.627  1.00  0.00    -0.107 OA 
HETATM   11  C   UNL     1      -9.407   9.684  65.971  1.00  0.00    -0.207 C  
HETATM   12  O   UNL     1      -9.615   6.778  65.712  1.00  0.00     0.150 OA 
ENDROOT
BRANCH   4  13
HETATM   13  C   UNL     1     -10.936   6.623  69.656  1.00  0.00    -0.313 C  
BRANCH  13  14
HETATM   14  S   UNL     1     -12.095   7.022  70.996  1.00  0.00    -0.355 SA 
BRANCH  14  15
HETATM   15  C   UNL     1     -11.400   6.155  72.311  1.00  0.00    -0.300 A  
HETATM   16  N   UNL     1     -11.784   4.997  72.793  1.00  0.00    -0.145 NA 
HETATM   17  C   UNL     1      -9.649   7.864  72.958  1.00  0.00    -0.276 C  
HETATM   18  N   UNL     1     -11.025   4.799  73.927  1.00  0.00    -0.297 NA 
HETATM   19  N   UNL     1     -10.407   6.652  73.100  1.00  0.00    -0.215 NA 
HETATM   20  N   UNL     1     -10.185   5.808  74.125  1.00  0.00    -0.252 NA 
ENDBRANCH  14  15
ENDBRANCH  13  14
ENDBRANCH   4  13
BRANCH   7  21
HETATM   21  N   UNL     1     -11.076  11.572  65.707  1.00  0.00    -0.255 N  
HETATM   22  H   UNL     1     -11.339  10.930  64.959  1.00  0.00     0.000 HD 
HETATM   23  O   UNL     1     -12.961  12.653  65.079  1.00  0.00    -0.812 OA 
HETATM   24  C   UNL     1     -11.984  12.645  65.830  1.00  0.00    -0.438 C  
BRANCH  24  25
HETATM   25  C   UNL     1     -11.729  13.887  66.681  1.00  0.00    -0.395 C  
BRANCH  25  26
HETATM   26  C   UNL     1     -10.594  14.802  66.412  1.00  0.00    -0.300 A  
HETATM   27  H2  UNL     1      -6.669  16.329  67.061  1.00  0.00     0.000 HD 
HETATM   28  H1  UNL     1      -6.749  14.577  67.233  1.00  0.00     0.000 HD 
HETATM   29  C   UNL     1     -10.751  16.160  66.150  1.00  0.00    -0.221 A  
HETATM   30  N   UNL     1      -9.266  14.441  66.624  1.00  0.00    -0.266 NA 
HETATM   31  N   UNL     1      -7.205  15.462  67.013  1.00  0.00    -0.194 NA 
HETATM   32  S   UNL     1      -9.263  16.990  66.296  1.00  0.00    -0.217 SA 
HETATM   33  C   UNL     1      -8.498  15.506  66.663  1.00  0.00    -0.279 A  
ENDBRANCH  25  26
BRANCH  25  34
HETATM   34  N   UNL     1     -12.294  14.173  67.823  1.00  0.00    -0.547 NA 
HETATM   35  H   UNL     1     -13.314  14.167  67.852  1.00  0.00     0.000 HD 
BRANCH  34  36
HETATM   36  O   UNL     1     -11.624  14.489  69.012  1.00  0.00    -0.266 OA 
HETATM   37  C   UNL     1     -12.337  15.032  70.093  1.00  0.00    -0.333 C  
ENDBRANCH  34  36
ENDBRANCH  25  34
ENDBRANCH  24  25
ENDBRANCH   7  21
TORSDOF 8
ENDMDL
MODEL      102
REMARK 921   NORMALIZED FREE ENERGY PREDICTED BY IDOCK:   -5.72 KCAL/MOL
REMARK 922        TOTAL FREE ENERGY PREDICTED BY IDOCK:   -9.56 KCAL/MOL
REMARK 923 INTER-LIGAND FREE ENERGY PREDICTED BY IDOCK:   -8.26 KCAL/MOL
REMARK 924 INTRA-LIGAND FREE ENERGY PREDICTED BY IDOCK:   -1.30 KCAL/MOL
REMARK 927      BINDING AFFINITY PREDICTED BY RF-SCORE:    0.00 PKD
ROOT
HETATM    1  C   UNL     1      -9.462  11.119  67.813  1.00  0.00    -0.168 C  
HETATM    2  S   UNL     1     -10.358  10.678  69.277  1.00  0.00    -0.202 SA 
HETATM    3  C   UNL     1     -10.695   8.915  69.045  1.00  0.00    -0.126 C  
HETATM    4  C   UNL     1     -10.064   8.205  67.869  1.00  0.00    -0.246 C  
HETATM    5  O   UNL     1      -8.801  10.963  64.657  1.00  0.00    -0.171 OA 
HETATM    6  CA  UNL     1      -9.444   8.814  66.829  1.00  0.00    -0.191 C  
HETATM    7  CA  UNL     1      -9.797  12.202  66.680  1.00  0.00    -0.211 C  
HETATM    8  N   UNL     1      -9.408  10.168  66.744  1.00  0.00    -0.157 N  
HETATM    9  C   UNL     1      -8.863   7.975  65.724  1.00  0.00    -0.132 C  
HETATM   10  OXT UNL     1      -8.421   6.851  65.924  1.00  0.00    -0.135 OA 
HETATM   11  C   UNL     1      -9.141  11.093  65.795  1.00  0.00    -0.206 C  
HETATM   12  O   UNL     1      -8.829   8.495  64.488  1.00  0.00    -0.029 OA 
ENDROOT
BRANCH   4  13
HETATM   13  C   UNL     1     -10.371   6.701  67.913  1.00  0.00    -0.189 C  
BRANCH  13  14
HETATM   14  S   UNL     1     -11.054   6.297  69.545  1.00  0.00    -0.421 SA 
BRANCH  14  15
HETATM   15  C   UNL     1      -9.760   5.399  70.239  1.00  0.00    -0.192 A  
HETATM   16  N   UNL     1      -9.573   4.101  70.187  1.00  0.00    -0.188 NA 
HETATM   17  C   UNL     1      -8.581   7.325  71.381  1.00  0.00    -0.115 C  
HETATM   18  N   UNL     1      -8.499   3.848  71.015  1.00  0.00    -0.071 NA 
HETATM   19  N   UNL     1      -8.810   5.946  71.047  1.00  0.00    -0.138 NA 
HETATM   20  N   UNL     1      -8.031   4.970  71.549  1.00  0.00    -0.109 NA 
ENDBRANCH  14  15
ENDBRANCH  13  14
ENDBRANCH   4  13
BRANCH   7  21
HETATM   21  N   UNL     1     -11.088  12.700  66.015  1.00  0.00    -0.277 N  
HETATM   22  H   UNL     1     -11.271  12.226  65.131  1.00  0.00     0.000 HD 
HETATM   23  O   UNL     1     -13.030  13.760  65.543  1.00  0.00    -0.651 OA 
HETATM   24  C   UNL     1     -12.083  13.652  66.324  1.00  0.00    -0.434 C  
BRANCH  24  25
HETATM   25  C   UNL     1     -11.959  14.685  67.442  1.00  0.00    -0.279 C  
BRANCH  25  26
HETATM   26  C   UNL     1     -11.034  15.840  67.343  1.00  0.00    -0.279 A  
HETATM   27  H2  UNL     1      -7.416  17.758  66.167  1.00  0.00     0.000 HD 
HETATM   28  H1  UNL     1      -7.996  16.612  64.960  1.00  0.00     0.000 HD 
HETATM   29  C   UNL     1     -10.815  16.737  68.385  1.00  0.00    -0.355 A  
HETATM   30  N   UNL     1     -10.134  15.999  66.293  1.00  0.00    -0.293 NA 
HETATM   31  N   UNL     1      -8.124  17.094  65.849  1.00  0.00    -0.507 NA 
HETATM   32  S   UNL     1      -9.417  17.678  68.101  1.00  0.00    -0.297 SA 
HETATM   33  C   UNL     1      -9.204  16.871  66.609  1.00  0.00    -0.256 A  
ENDBRANCH  25  26
BRANCH  25  34
HETATM   34  N   UNL     1     -12.443  14.581  68.650  1.00  0.00    -0.566 NA 
HETATM   35  H   UNL     1     -13.331  15.047  68.838  1.00  0.00     0.000 HD 
BRANCH  34  36
HETATM   36  O   UNL     1     -11.849  13.887  69.713  1.00  0.00    -0.289 OA 
HETATM   37  C   UNL     1     -12.520  13.786  70.942  1.00  0.00    -0.377 C  
ENDBRANCH  34  36
ENDBRANCH  25  34
ENDBRANCH  24  25
ENDBRANCH   7  21
TORSDOF 8
ENDMDL
MODEL      103
REMARK 921   NORMALIZED FREE ENERGY PREDICTED BY IDOCK:   -5.70 KCAL/MOL
REMARK 922        TOTAL FREE ENERGY PREDICTED BY IDOCK:   -9.53 KCAL/MOL
REMARK 923 INTER-LIGAND FREE ENERGY PREDICTED BY IDOCK:   -7.66 KCAL/MOL
REMARK 924 INTRA-LIGAND FREE ENERGY PREDICTED BY IDOCK:   -1.87 KCAL/MOL
REMARK 927      BINDING AFFINITY PREDICTED BY RF-SCORE:    0.00 PKD
ROOT
HETATM    1  C   UNL     1     -10.710   5.975  68.658  1.00  0.00    -0.297 C  
HETATM    2  S   UNL     1      -9.526   5.099  67.674  1.00  0.00    -0.133 SA 
HETATM    3  C   UNL     1      -8.689   4.036  68.878  1.00  0.00    -0.093 C  
HETATM    4  C   UNL     1      -9.224   3.979  70.289  1.00  0.00    -0.210 C  
HETATM    5  O   UNL     1     -11.725   7.468  71.335  1.00  0.00    -0.267 OA 
HETATM    6  CA  UNL     1     -10.143   4.827  70.813  1.00  0.00    -0.216 C  
HETATM    7  CA  UNL     1     -10.893   7.549  68.901  1.00  0.00    -0.037 C  
HETATM    8  N   UNL     1     -10.612   5.871  70.083  1.00  0.00    -0.266 N  
HETATM    9  C   UNL     1     -10.581   4.649  72.241  1.00  0.00    -0.132 C  
HETATM   10  OXT UNL     1     -10.616   3.551  72.779  1.00  0.00    -0.156 OA 
HETATM   11  C   UNL     1     -11.287   7.019  70.318  1.00  0.00    -0.295 C  
HETATM   12  O   UNL     1     -10.950   5.741  72.928  1.00  0.00    -0.241 OA 
ENDROOT
BRANCH   4  13
HETATM   13  C   UNL     1      -8.459   2.938  71.120  1.00  0.00    -0.062 C  
BRANCH  13  14
HETATM   14  S   UNL     1      -6.777   3.555  71.414  1.00  0.00    -0.031 SA 
BRANCH  14  15
HETATM   15  C   UNL     1      -7.051   4.686  72.683  1.00  0.00    -0.076 A  
HETATM   16  N   UNL     1      -7.270   4.424  73.950  1.00  0.00    -0.067 NA 
HETATM   17  C   UNL     1      -7.012   6.791  71.279  1.00  0.00    -0.074 C  
HETATM   18  N   UNL     1      -7.584   5.636  74.529  1.00  0.00    -0.094 NA 
HETATM   19  N   UNL     1      -7.190   6.026  72.481  1.00  0.00    -0.085 NA 
HETATM   20  N   UNL     1      -7.543   6.619  73.637  1.00  0.00    -0.083 NA 
ENDBRANCH  14  15
ENDBRANCH  13  14
ENDBRANCH   4  13
BRANCH   7  21
HETATM   21  N   UNL     1      -9.930   8.736  69.041  1.00  0.00    -0.186 N  
HETATM   22  H   UNL     1      -9.071   8.478  69.526  1.00  0.00     0.000 HD 
HETATM   23  O   UNL     1      -8.939  10.766  68.922  1.00  0.00    -0.158 OA 
HETATM   24  C   UNL     1      -9.941  10.097  68.665  1.00  0.00    -0.170 C  
BRANCH  24  25
HETATM   25  C   UNL     1     -11.178  10.832  68.153  1.00  0.00    -0.302 C  
BRANCH  25  26
HETATM   26  C   UNL     1     -11.113  11.772  67.008  1.00  0.00    -0.304 A  
HETATM   27  H2  UNL     1     -12.813  14.240  63.979  1.00  0.00     0.000 HD 
HETATM   28  H1  UNL     1     -13.735  14.282  65.481  1.00  0.00     0.000 HD 
HETATM   29  C   UNL     1     -10.196  11.649  65.968  1.00  0.00    -0.232 A  
HETATM   30  N   UNL     1     -12.102  12.717  66.749  1.00  0.00    -0.518 NA 
HETATM   31  N   UNL     1     -12.925  13.956  64.953  1.00  0.00    -0.713 NA 
HETATM   32  S   UNL     1     -10.648  12.617  64.633  1.00  0.00    -0.353 SA 
HETATM   33  C   UNL     1     -12.005  13.163  65.518  1.00  0.00    -0.412 A  
ENDBRANCH  25  26
BRANCH  25  34
HETATM   34  N   UNL     1     -12.336  10.910  68.751  1.00  0.00    -0.772 NA 
HETATM   35  H   UNL     1     -13.073  11.429  68.273  1.00  0.00     0.000 HD 
BRANCH  34  36
HETATM   36  O   UNL     1     -12.655  10.344  69.993  1.00  0.00    -0.219 OA 
HETATM   37  C   UNL     1     -12.768  11.166  71.126  1.00  0.00    -0.408 C  
ENDBRANCH  34  36
ENDBRANCH  25  34
ENDBRANCH  24  25
ENDBRANCH   7  21
TORSDOF 8
ENDMDL
MODEL      104
REMARK 921   NORMALIZED FREE ENERGY PREDICTED BY IDOCK:   -5.70 KCAL/MOL
REMARK 922        TOTAL FREE ENERGY PREDICTED BY IDOCK:   -9.53 KCAL/MOL
REMARK 923 INTER-LIGAND FREE ENERGY PREDICTED BY IDOCK:   -8.32 KCAL/MOL
REMARK 924 INTRA-LIGAND FREE ENERGY PREDICTED BY IDOCK:   -1.21 KCAL/MOL
REMARK 927      BINDING AFFINITY PREDICTED BY RF-SCORE:    0.00 PKD
ROOT
HETATM    1  C   UNL     1     -10.670  10.955  67.952  1.00  0.00    -0.231 C  
HETATM    2  S   UNL     1      -9.551   9.586  67.839  1.00  0.00    -0.135 SA 
HETATM    3  C   UNL     1      -9.890   8.645  69.349  1.00  0.00    -0.184 C  
HETATM    4  C   UNL     1     -11.052   9.065  70.219  1.00  0.00    -0.263 C  
HETATM    5  O   UNL     1     -12.304  13.246  69.534  1.00  0.00    -0.216 OA 
HETATM    6  CA  UNL     1     -11.737  10.229  70.100  1.00  0.00    -0.284 C  
HETATM    7  CA  UNL     1     -10.379  12.531  67.983  1.00  0.00    -0.222 C  
HETATM    8  N   UNL     1     -11.360  11.161  69.189  1.00  0.00    -0.246 N  
HETATM    9  C   UNL     1     -12.874  10.513  71.043  1.00  0.00    -0.407 C  
HETATM   10  OXT UNL     1     -13.567   9.622  71.515  1.00  0.00    -0.361 OA 
HETATM   11  C   UNL     1     -11.600  12.472  68.957  1.00  0.00    -0.314 C  
HETATM   12  O   UNL     1     -13.127  11.793  71.359  1.00  0.00    -0.364 OA 
ENDROOT
BRANCH   4  13
HETATM   13  C   UNL     1     -11.248   8.078  71.379  1.00  0.00    -0.252 C  
BRANCH  13  14
HETATM   14  S   UNL     1     -11.308   6.395  70.703  1.00  0.00    -0.356 SA 
BRANCH  14  15
HETATM   15  C   UNL     1     -10.461   5.515  71.916  1.00  0.00    -0.225 A  
HETATM   16  N   UNL     1     -10.968   4.934  72.978  1.00  0.00    -0.267 NA 
HETATM   17  C   UNL     1      -8.120   5.866  71.022  1.00  0.00    -0.121 C  
HETATM   18  N   UNL     1      -9.884   4.502  73.715  1.00  0.00    -0.138 NA 
HETATM   19  N   UNL     1      -9.103   5.419  71.969  1.00  0.00    -0.137 NA 
HETATM   20  N   UNL     1      -8.741   4.799  73.107  1.00  0.00    -0.109 NA 
ENDBRANCH  14  15
ENDBRANCH  13  14
ENDBRANCH   4  13
BRANCH   7  21
HETATM   21  N   UNL     1      -9.276  13.410  68.589  1.00  0.00    -0.381 N  
HETATM   22  H   UNL     1      -8.559  12.858  69.058  1.00  0.00     0.000 HD 
HETATM   23  O   UNL     1      -7.970  15.148  69.214  1.00  0.00    -0.190 OA 
HETATM   24  C   UNL     1      -9.010  14.795  68.656  1.00  0.00    -0.185 C  
BRANCH  24  25
HETATM   25  C   UNL     1     -10.014  15.878  68.268  1.00  0.00    -0.222 C  
BRANCH  25  26
HETATM   26  C   UNL     1      -9.661  16.980  67.341  1.00  0.00    -0.246 A  
HETATM   27  H2  UNL     1      -7.069  19.968  65.756  1.00  0.00     0.000 HD 
HETATM   28  H1  UNL     1      -6.206  18.503  66.222  1.00  0.00     0.000 HD 
HETATM   29  C   UNL     1     -10.549  17.986  66.974  1.00  0.00    -0.308 A  
HETATM   30  N   UNL     1      -8.354  17.238  66.938  1.00  0.00    -0.215 NA 
HETATM   31  N   UNL     1      -7.084  19.011  66.112  1.00  0.00    -0.241 NA 
HETATM   32  S   UNL     1      -9.726  19.297  66.247  1.00  0.00    -0.355 SA 
HETATM   33  C   UNL     1      -8.255  18.445  66.429  1.00  0.00    -0.257 A  
ENDBRANCH  25  26
BRANCH  25  34
HETATM   34  N   UNL     1     -11.169  16.103  68.836  1.00  0.00    -0.340 NA 
HETATM   35  H   UNL     1     -12.005  15.870  68.299  1.00  0.00     0.000 HD 
BRANCH  34  36
HETATM   36  O   UNL     1     -11.361  16.636  70.117  1.00  0.00    -0.171 OA 
HETATM   37  C   UNL     1     -11.365  15.785  71.234  1.00  0.00    -0.376 C  
ENDBRANCH  34  36
ENDBRANCH  25  34
ENDBRANCH  24  25
ENDBRANCH   7  21
TORSDOF 8
ENDMDL
MODEL      105
REMARK 921   NORMALIZED FREE ENERGY PREDICTED BY IDOCK:   -5.70 KCAL/MOL
REMARK 922        TOTAL FREE ENERGY PREDICTED BY IDOCK:   -9.52 KCAL/MOL
REMARK 923 INTER-LIGAND FREE ENERGY PREDICTED BY IDOCK:   -7.90 KCAL/MOL
REMARK 924 INTRA-LIGAND FREE ENERGY PREDICTED BY IDOCK:   -1.63 KCAL/MOL
REMARK 927      BINDING AFFINITY PREDICTED BY RF-SCORE:    0.00 PKD
ROOT
HETATM    1  C   UNL     1      -8.046  10.542  68.599  1.00  0.00    -0.127 C  
HETATM    2  S   UNL     1      -6.816  10.748  69.858  1.00  0.00    -0.110 SA 
HETATM    3  C   UNL     1      -6.926   9.207  70.803  1.00  0.00    -0.097 C  
HETATM    4  C   UNL     1      -7.816   8.101  70.286  1.00  0.00    -0.093 C  
HETATM    5  O   UNL     1     -10.894   9.535  67.459  1.00  0.00    -0.280 OA 
HETATM    6  CA  UNL     1      -8.727   8.231  69.291  1.00  0.00    -0.139 C  
HETATM    7  CA  UNL     1      -9.341  11.424  68.263  1.00  0.00    -0.187 C  
HETATM    8  N   UNL     1      -8.952   9.440  68.716  1.00  0.00    -0.131 N  
HETATM    9  C   UNL     1      -9.547   7.039  68.882  1.00  0.00    -0.140 C  
HETATM   10  OXT UNL     1      -9.117   5.896  68.959  1.00  0.00    -0.121 OA 
HETATM   11  C   UNL     1      -9.901  10.002  67.933  1.00  0.00    -0.145 C  
HETATM   12  O   UNL     1     -10.785   7.255  68.412  1.00  0.00    -0.189 OA 
ENDROOT
BRANCH   4  13
HETATM   13  C   UNL     1      -7.682   6.843  71.156  1.00  0.00    -0.089 C  
BRANCH  13  14
HETATM   14  S   UNL     1      -8.254   7.235  72.833  1.00  0.00    -0.110 SA 
BRANCH  14  15
HETATM   15  C   UNL     1      -9.756   6.395  72.880  1.00  0.00    -0.157 A  
HETATM   16  N   UNL     1      -9.961   5.148  73.232  1.00  0.00    -0.156 NA 
HETATM   17  C   UNL     1     -11.215   8.254  71.975  1.00  0.00    -0.323 C  
HETATM   18  N   UNL     1     -11.289   4.899  72.956  1.00  0.00    -0.292 NA 
HETATM   19  N   UNL     1     -10.929   6.922  72.430  1.00  0.00    -0.236 NA 
HETATM   20  N   UNL     1     -11.886   5.976  72.460  1.00  0.00    -0.248 NA 
ENDBRANCH  14  15
ENDBRANCH  13  14
ENDBRANCH   4  13
BRANCH   7  21
HETATM   21  N   UNL     1     -10.364  12.201  69.104  1.00  0.00    -0.422 N  
HETATM   22  H   UNL     1     -10.480  11.798  70.034  1.00  0.00     0.000 HD 
HETATM   23  O   UNL     1     -11.876  13.705  69.857  1.00  0.00    -0.298 OA 
HETATM   24  C   UNL     1     -11.182  13.334  68.909  1.00  0.00    -0.277 C  
BRANCH  24  25
HETATM   25  C   UNL     1     -11.415  13.997  67.553  1.00  0.00    -0.343 C  
BRANCH  25  26
HETATM   26  C   UNL     1     -10.833  15.318  67.216  1.00  0.00    -0.318 A  
HETATM   27  H2  UNL     1     -10.431  19.541  67.622  1.00  0.00     0.000 HD 
HETATM   28  H1  UNL     1     -10.700  18.736  69.167  1.00  0.00     0.000 HD 
HETATM   29  C   UNL     1     -10.552  15.721  65.914  1.00  0.00    -0.339 A  
HETATM   30  N   UNL     1     -10.731  16.356  68.138  1.00  0.00    -0.323 NA 
HETATM   31  N   UNL     1     -10.556  18.681  68.159  1.00  0.00    -0.306 NA 
HETATM   32  S   UNL     1     -10.290  17.409  65.837  1.00  0.00    -0.179 SA 
HETATM   33  C   UNL     1     -10.530  17.501  67.527  1.00  0.00    -0.355 A  
ENDBRANCH  25  26
BRANCH  25  34
HETATM   34  N   UNL     1     -12.283  13.629  66.649  1.00  0.00    -0.410 NA 
HETATM   35  H   UNL     1     -13.044  14.276  66.444  1.00  0.00     0.000 HD 
BRANCH  34  36
HETATM   36  O   UNL     1     -12.261  12.422  65.937  1.00  0.00    -0.629 OA 
HETATM   37  C   UNL     1     -11.181  12.132  65.089  1.00  0.00    -0.329 C  
ENDBRANCH  34  36
ENDBRANCH  25  34
ENDBRANCH  24  25
ENDBRANCH   7  21
TORSDOF 8
ENDMDL
MODEL      106
REMARK 921   NORMALIZED FREE ENERGY PREDICTED BY IDOCK:   -5.70 KCAL/MOL
REMARK 922        TOTAL FREE ENERGY PREDICTED BY IDOCK:   -9.52 KCAL/MOL
REMARK 923 INTER-LIGAND FREE ENERGY PREDICTED BY IDOCK:   -8.19 KCAL/MOL
REMARK 924 INTRA-LIGAND FREE ENERGY PREDICTED BY IDOCK:   -1.33 KCAL/MOL
REMARK 927      BINDING AFFINITY PREDICTED BY RF-SCORE:    0.00 PKD
ROOT
HETATM    1  C   UNL     1      -7.494  10.663  68.609  1.00  0.00    -0.098 C  
HETATM    2  S   UNL     1      -7.274   9.908  70.197  1.00  0.00    -0.161 SA 
HETATM    3  C   UNL     1      -8.095   8.305  70.014  1.00  0.00    -0.116 C  
HETATM    4  C   UNL     1      -8.593   7.897  68.647  1.00  0.00    -0.128 C  
HETATM    5  O   UNL     1      -9.141  11.324  65.912  1.00  0.00    -0.200 OA 
HETATM    6  CA  UNL     1      -8.690   8.718  67.573  1.00  0.00    -0.134 C  
HETATM    7  CA  UNL     1      -8.216  12.036  68.206  1.00  0.00    -0.161 C  
HETATM    8  N   UNL     1      -8.391  10.038  67.685  1.00  0.00    -0.114 N  
HETATM    9  C   UNL     1      -9.208   8.171  66.271  1.00  0.00    -0.191 C  
HETATM   10  OXT UNL     1      -9.034   7.006  65.940  1.00  0.00    -0.143 OA 
HETATM   11  C   UNL     1      -8.602  11.164  66.966  1.00  0.00    -0.147 C  
HETATM   12  O   UNL     1      -9.872   9.005  65.456  1.00  0.00    -0.159 OA 
ENDROOT
BRANCH   4  13
HETATM   13  C   UNL     1      -9.148   6.465  68.674  1.00  0.00    -0.127 C  
BRANCH  13  14
HETATM   14  S   UNL     1     -10.913   6.537  69.092  1.00  0.00    -0.325 SA 
BRANCH  14  15
HETATM   15  C   UNL     1     -10.895   5.987  70.723  1.00  0.00    -0.292 A  
HETATM   16  N   UNL     1     -10.116   5.070  71.246  1.00  0.00    -0.199 NA 
HETATM   17  C   UNL     1     -12.829   7.380  71.573  1.00  0.00    -0.375 C  
HETATM   18  N   UNL     1     -10.585   4.875  72.529  1.00  0.00    -0.211 NA 
HETATM   19  N   UNL     1     -11.802   6.380  71.661  1.00  0.00    -0.317 NA 
HETATM   20  N   UNL     1     -11.618   5.668  72.788  1.00  0.00    -0.280 NA 
ENDBRANCH  14  15
ENDBRANCH  13  14
ENDBRANCH   4  13
BRANCH   7  21
HETATM   21  N   UNL     1      -9.453  12.791  68.712  1.00  0.00    -0.410 N  
HETATM   22  H   UNL     1      -9.861  12.350  69.536  1.00  0.00     0.000 HD 
HETATM   23  O   UNL     1     -11.125  14.286  69.011  1.00  0.00    -0.242 OA 
HETATM   24  C   UNL     1     -10.164  13.945  68.319  1.00  0.00    -0.247 C  
BRANCH  24  25
HETATM   25  C   UNL     1      -9.949  14.671  66.992  1.00  0.00    -0.246 C  
BRANCH  25  26
HETATM   26  C   UNL     1      -9.580  16.106  66.934  1.00  0.00    -0.230 A  
HETATM   27  H2  UNL     1      -6.977  19.356  66.032  1.00  0.00     0.000 HD 
HETATM   28  H1  UNL     1      -6.901  18.075  64.825  1.00  0.00     0.000 HD 
HETATM   29  C   UNL     1      -9.863  17.010  67.953  1.00  0.00    -0.269 A  
HETATM   30  N   UNL     1      -8.721  16.626  65.970  1.00  0.00    -0.486 NA 
HETATM   31  N   UNL     1      -7.309  18.459  65.676  1.00  0.00    -0.536 NA 
HETATM   32  S   UNL     1      -8.958  18.449  67.765  1.00  0.00    -0.285 SA 
HETATM   33  C   UNL     1      -8.274  17.805  66.337  1.00  0.00    -0.255 A  
ENDBRANCH  25  26
BRANCH  25  34
HETATM   34  N   UNL     1     -10.262  14.224  65.805  1.00  0.00    -0.319 NA 
HETATM   35  H   UNL     1      -9.612  13.571  65.367  1.00  0.00     0.000 HD 
BRANCH  34  36
HETATM   36  O   UNL     1     -11.412  14.564  65.081  1.00  0.00    -0.341 OA 
HETATM   37  C   UNL     1     -12.676  14.188  65.562  1.00  0.00    -0.443 C  
ENDBRANCH  34  36
ENDBRANCH  25  34
ENDBRANCH  24  25
ENDBRANCH   7  21
TORSDOF 8
ENDMDL
MODEL      107
REMARK 921   NORMALIZED FREE ENERGY PREDICTED BY IDOCK:   -5.69 KCAL/MOL
REMARK 922        TOTAL FREE ENERGY PREDICTED BY IDOCK:   -9.51 KCAL/MOL
REMARK 923 INTER-LIGAND FREE ENERGY PREDICTED BY IDOCK:   -7.90 KCAL/MOL
REMARK 924 INTRA-LIGAND FREE ENERGY PREDICTED BY IDOCK:   -1.61 KCAL/MOL
REMARK 927      BINDING AFFINITY PREDICTED BY RF-SCORE:    0.00 PKD
ROOT
HETATM    1  C   UNL     1      -7.312   9.168  69.173  1.00  0.00    -0.071 C  
HETATM    2  S   UNL     1      -7.887  10.560  68.239  1.00  0.00    -0.115 SA 
HETATM    3  C   UNL     1      -9.581  10.792  68.836  1.00  0.00    -0.195 C  
HETATM    4  C   UNL     1     -10.057   9.964  70.006  1.00  0.00    -0.308 C  
HETATM    5  O   UNL     1      -7.657   6.306  70.628  1.00  0.00    -0.091 OA 
HETATM    6  CA  UNL     1      -9.409   8.888  70.518  1.00  0.00    -0.202 C  
HETATM    7  CA  UNL     1      -6.776   7.740  68.680  1.00  0.00    -0.058 C  
HETATM    8  N   UNL     1      -8.270   8.429  69.940  1.00  0.00    -0.119 N  
HETATM    9  C   UNL     1     -10.007   8.156  71.688  1.00  0.00    -0.192 C  
HETATM   10  OXT UNL     1     -10.687   8.725  72.533  1.00  0.00    -0.250 OA 
HETATM   11  C   UNL     1      -7.523   7.303  69.983  1.00  0.00    -0.085 C  
HETATM   12  O   UNL     1      -9.770   6.840  71.797  1.00  0.00    -0.162 OA 
ENDROOT
BRANCH   4  13
HETATM   13  C   UNL     1     -11.469  10.389  70.435  1.00  0.00    -0.337 C  
BRANCH  13  14
HETATM   14  S   UNL     1     -11.842  11.998  69.683  1.00  0.00    -0.311 SA 
BRANCH  14  15
HETATM   15  C   UNL     1     -12.651  12.794  70.977  1.00  0.00    -0.271 A  
HETATM   16  N   UNL     1     -13.295  12.239  71.977  1.00  0.00    -0.477 NA 
HETATM   17  C   UNL     1     -12.275  15.174  70.202  1.00  0.00    -0.352 C  
HETATM   18  N   UNL     1     -13.896  13.279  72.653  1.00  0.00    -0.716 NA 
HETATM   19  N   UNL     1     -12.816  14.145  71.045  1.00  0.00    -0.343 NA 
HETATM   20  N   UNL     1     -13.613  14.447  72.087  1.00  0.00    -0.394 NA 
ENDBRANCH  14  15
ENDBRANCH  13  14
ENDBRANCH   4  13
BRANCH   7  21
HETATM   21  N   UNL     1      -7.141   6.791  67.531  1.00  0.00    -0.082 N  
HETATM   22  H   UNL     1      -6.417   6.092  67.366  1.00  0.00     0.000 HD 
HETATM   23  O   UNL     1      -8.195   5.712  65.845  1.00  0.00    -0.111 OA 
HETATM   24  C   UNL     1      -8.231   6.647  66.646  1.00  0.00    -0.112 C  
BRANCH  24  25
HETATM   25  C   UNL     1      -9.341   7.684  66.481  1.00  0.00    -0.189 C  
BRANCH  25  26
HETATM   26  C   UNL     1      -9.220   8.818  65.534  1.00  0.00    -0.137 A  
HETATM   27  H2  UNL     1     -10.769  11.910  63.045  1.00  0.00     0.000 HD 
HETATM   28  H1  UNL     1     -11.689  11.719  64.537  1.00  0.00     0.000 HD 
HETATM   29  C   UNL     1      -8.310   8.842  64.482  1.00  0.00    -0.170 A  
HETATM   30  N   UNL     1     -10.151   9.850  65.469  1.00  0.00    -0.284 NA 
HETATM   31  N   UNL     1     -10.898  11.454  63.949  1.00  0.00    -0.385 NA 
HETATM   32  S   UNL     1      -8.703  10.070  63.359  1.00  0.00    -0.244 SA 
HETATM   33  C   UNL     1     -10.027  10.516  64.344  1.00  0.00    -0.343 A  
ENDBRANCH  25  26
BRANCH  25  34
HETATM   34  N   UNL     1     -10.379   7.838  67.259  1.00  0.00    -0.272 NA 
HETATM   35  H   UNL     1     -10.532   8.767  67.652  1.00  0.00     0.000 HD 
BRANCH  34  36
HETATM   36  O   UNL     1     -11.300   6.839  67.602  1.00  0.00    -0.208 OA 
HETATM   37  C   UNL     1     -11.148   6.134  68.806  1.00  0.00    -0.319 C  
ENDBRANCH  34  36
ENDBRANCH  25  34
ENDBRANCH  24  25
ENDBRANCH   7  21
TORSDOF 8
ENDMDL
MODEL      108
REMARK 921   NORMALIZED FREE ENERGY PREDICTED BY IDOCK:   -5.66 KCAL/MOL
REMARK 922        TOTAL FREE ENERGY PREDICTED BY IDOCK:   -9.47 KCAL/MOL
REMARK 923 INTER-LIGAND FREE ENERGY PREDICTED BY IDOCK:   -8.82 KCAL/MOL
REMARK 924 INTRA-LIGAND FREE ENERGY PREDICTED BY IDOCK:   -0.64 KCAL/MOL
REMARK 927      BINDING AFFINITY PREDICTED BY RF-SCORE:    0.00 PKD
ROOT
HETATM    1  C   UNL     1     -11.284  13.368  68.291  1.00  0.00    -0.279 C  
HETATM    2  S   UNL     1     -10.394  11.973  67.657  1.00  0.00    -0.202 SA 
HETATM    3  C   UNL     1     -10.616  10.718  68.944  1.00  0.00    -0.216 C  
HETATM    4  C   UNL     1     -11.557  11.012  70.088  1.00  0.00    -0.421 C  
HETATM    5  O   UNL     1     -12.320  15.329  70.637  1.00  0.00    -0.321 OA 
HETATM    6  CA  UNL     1     -12.088  12.227  70.373  1.00  0.00    -0.300 C  
HETATM    7  CA  UNL     1     -10.780  14.851  68.632  1.00  0.00    -0.250 C  
HETATM    8  N   UNL     1     -11.735  13.319  69.649  1.00  0.00    -0.306 N  
HETATM    9  C   UNL     1     -13.011  12.369  71.551  1.00  0.00    -0.285 C  
HETATM   10  OXT UNL     1     -13.736  11.457  71.925  1.00  0.00    -0.112 OA 
HETATM   11  C   UNL     1     -11.829  14.662  69.776  1.00  0.00    -0.316 C  
HETATM   12  O   UNL     1     -13.034  13.546  72.196  1.00  0.00    -0.340 OA 
ENDROOT
BRANCH   4  13
HETATM   13  C   UNL     1     -11.700   9.787  71.004  1.00  0.00    -0.370 C  
BRANCH  13  14
HETATM   14  S   UNL     1     -10.062   9.036  71.226  1.00  0.00    -0.324 SA 
BRANCH  14  15
HETATM   15  C   UNL     1     -10.465   7.363  71.281  1.00  0.00    -0.208 A  
HETATM   16  N   UNL     1     -10.838   6.600  70.281  1.00  0.00    -0.251 NA 
HETATM   17  C   UNL     1     -10.219   7.035  73.778  1.00  0.00    -0.363 C  
HETATM   18  N   UNL     1     -11.196   5.395  70.849  1.00  0.00     0.060 NA 
HETATM   19  N   UNL     1     -10.553   6.647  72.436  1.00  0.00    -0.208 NA 
HETATM   20  N   UNL     1     -11.030   5.417  72.166  1.00  0.00    -0.228 NA 
ENDBRANCH  14  15
ENDBRANCH  13  14
ENDBRANCH   4  13
BRANCH   7  21
HETATM   21  N   UNL     1      -9.486  15.442  69.208  1.00  0.00    -0.247 N  
HETATM   22  H   UNL     1      -9.394  15.263  70.208  1.00  0.00     0.000 HD 
HETATM   23  O   UNL     1      -7.482  16.457  69.476  1.00  0.00    -0.189 OA 
HETATM   24  C   UNL     1      -8.392  16.172  68.696  1.00  0.00    -0.211 C  
BRANCH  24  25
HETATM   25  C   UNL     1      -8.361  16.802  67.304  1.00  0.00    -0.177 C  
BRANCH  25  26
HETATM   26  C   UNL     1      -7.454  17.928  66.973  1.00  0.00    -0.199 A  
HETATM   27  H2  UNL     1      -6.392  22.047  66.738  1.00  0.00     0.000 HD 
HETATM   28  H1  UNL     1      -7.309  21.668  68.195  1.00  0.00     0.000 HD 
HETATM   29  C   UNL     1      -6.686  17.975  65.814  1.00  0.00    -0.257 A  
HETATM   30  N   UNL     1      -7.462  19.134  67.668  1.00  0.00    -0.235 NA 
HETATM   31  N   UNL     1      -6.854  21.360  67.336  1.00  0.00    -0.588 NA 
HETATM   32  S   UNL     1      -6.089  19.553  65.538  1.00  0.00    -0.228 SA 
HETATM   33  C   UNL     1      -6.851  20.069  66.978  1.00  0.00    -0.221 A  
ENDBRANCH  25  26
BRANCH  25  34
HETATM   34  N   UNL     1      -9.227  16.607  66.347  1.00  0.00    -0.269 NA 
HETATM   35  H   UNL     1      -9.294  15.663  65.965  1.00  0.00     0.000 HD 
BRANCH  34  36
HETATM   36  O   UNL     1     -10.071  17.580  65.796  1.00  0.00    -0.551 OA 
HETATM   37  C   UNL     1     -10.771  18.456  66.641  1.00  0.00    -0.212 C  
ENDBRANCH  34  36
ENDBRANCH  25  34
ENDBRANCH  24  25
ENDBRANCH   7  21
TORSDOF 8
ENDMDL
MODEL      109
REMARK 921   NORMALIZED FREE ENERGY PREDICTED BY IDOCK:   -5.65 KCAL/MOL
REMARK 922        TOTAL FREE ENERGY PREDICTED BY IDOCK:   -9.45 KCAL/MOL
REMARK 923 INTER-LIGAND FREE ENERGY PREDICTED BY IDOCK:   -7.39 KCAL/MOL
REMARK 924 INTRA-LIGAND FREE ENERGY PREDICTED BY IDOCK:   -2.06 KCAL/MOL
REMARK 927      BINDING AFFINITY PREDICTED BY RF-SCORE:    0.00 PKD
ROOT
HETATM    1  C   UNL     1      -7.763   8.667  72.235  1.00  0.00     0.003 C  
HETATM    2  S   UNL     1      -6.958   9.059  70.705  1.00  0.00    -0.097 SA 
HETATM    3  C   UNL     1      -8.338   9.399  69.583  1.00  0.00    -0.147 C  
HETATM    4  C   UNL     1      -9.737   9.451  70.150  1.00  0.00    -0.274 C  
HETATM    5  O   UNL     1     -10.112   7.369  74.029  1.00  0.00    -0.269 OA 
HETATM    6  CA  UNL     1     -10.094   9.041  71.392  1.00  0.00    -0.329 C  
HETATM    7  CA  UNL     1      -7.703   7.335  73.125  1.00  0.00    -0.086 C  
HETATM    8  N   UNL     1      -9.181   8.470  72.218  1.00  0.00    -0.264 N  
HETATM    9  C   UNL     1     -11.532   9.151  71.820  1.00  0.00    -0.381 C  
HETATM   10  OXT UNL     1     -12.269  10.034  71.403  1.00  0.00    -0.362 OA 
HETATM   11  C   UNL     1      -9.197   7.735  73.354  1.00  0.00    -0.284 C  
HETATM   12  O   UNL     1     -12.001   8.249  72.696  1.00  0.00    -0.399 OA 
ENDROOT
BRANCH   4  13
HETATM   13  C   UNL     1     -10.747   9.868  69.071  1.00  0.00    -0.222 C  
BRANCH  13  14
HETATM   14  S   UNL     1     -10.240  11.473  68.393  1.00  0.00    -0.209 SA 
BRANCH  14  15
HETATM   15  C   UNL     1     -10.468  11.213  66.706  1.00  0.00    -0.252 A  
HETATM   16  N   UNL     1      -9.920  10.280  65.963  1.00  0.00    -0.233 NA 
HETATM   17  C   UNL     1     -11.983  13.189  66.257  1.00  0.00    -0.415 C  
HETATM   18  N   UNL     1     -10.284  10.580  64.667  1.00  0.00    -0.340 NA 
HETATM   19  N   UNL     1     -11.182  12.050  65.904  1.00  0.00    -0.329 NA 
HETATM   20  N   UNL     1     -11.051  11.663  64.622  1.00  0.00    -0.300 NA 
ENDBRANCH  14  15
ENDBRANCH  13  14
ENDBRANCH   4  13
BRANCH   7  21
HETATM   21  N   UNL     1      -7.610   5.835  72.813  1.00  0.00    -0.096 N  
HETATM   22  H   UNL     1      -6.742   5.425  73.156  1.00  0.00     0.000 HD 
HETATM   23  O   UNL     1      -8.033   3.718  72.137  1.00  0.00    -0.069 OA 
HETATM   24  C   UNL     1      -8.430   4.883  72.170  1.00  0.00    -0.124 C  
BRANCH  24  25
HETATM   25  C   UNL     1      -9.665   5.239  71.343  1.00  0.00    -0.164 C  
BRANCH  25  26
HETATM   26  C   UNL     1      -9.557   5.785  69.969  1.00  0.00    -0.164 A  
HETATM   27  H2  UNL     1     -10.952   6.478  66.003  1.00  0.00     0.000 HD 
HETATM   28  H1  UNL     1     -12.247   6.550  67.197  1.00  0.00     0.000 HD 
HETATM   29  C   UNL     1      -8.380   5.763  69.226  1.00  0.00    -0.108 A  
HETATM   30  N   UNL     1     -10.666   6.157  69.215  1.00  0.00    -0.281 NA 
HETATM   31  N   UNL     1     -11.257   6.444  66.977  1.00  0.00    -0.328 NA 
HETATM   32  S   UNL     1      -8.689   6.080  67.575  1.00  0.00    -0.106 SA 
HETATM   33  C   UNL     1     -10.349   6.260  67.944  1.00  0.00    -0.193 A  
ENDBRANCH  25  26
BRANCH  25  34
HETATM   34  N   UNL     1     -10.892   5.322  71.780  1.00  0.00    -0.176 NA 
HETATM   35  H   UNL     1     -11.583   5.732  71.151  1.00  0.00     0.000 HD 
BRANCH  34  36
HETATM   36  O   UNL     1     -11.344   4.899  73.037  1.00  0.00    -0.291 OA 
HETATM   37  C   UNL     1     -11.397   3.528  73.334  1.00  0.00    -0.099 C  
ENDBRANCH  34  36
ENDBRANCH  25  34
ENDBRANCH  24  25
ENDBRANCH   7  21
TORSDOF 8
ENDMDL
MODEL      110
REMARK 921   NORMALIZED FREE ENERGY PREDICTED BY IDOCK:   -5.64 KCAL/MOL
REMARK 922        TOTAL FREE ENERGY PREDICTED BY IDOCK:   -9.44 KCAL/MOL
REMARK 923 INTER-LIGAND FREE ENERGY PREDICTED BY IDOCK:   -8.28 KCAL/MOL
REMARK 924 INTRA-LIGAND FREE ENERGY PREDICTED BY IDOCK:   -1.16 KCAL/MOL
REMARK 927      BINDING AFFINITY PREDICTED BY RF-SCORE:    0.00 PKD
ROOT
HETATM    1  C   UNL     1     -10.266  10.953  66.223  1.00  0.00    -0.247 C  
HETATM    2  S   UNL     1      -9.435  11.458  67.704  1.00  0.00    -0.164 SA 
HETATM    3  C   UNL     1      -9.910  13.196  67.877  1.00  0.00    -0.231 C  
HETATM    4  C   UNL     1     -10.946  13.761  66.934  1.00  0.00    -0.296 C  
HETATM    5  O   UNL     1     -11.386  11.397  63.227  1.00  0.00    -0.269 OA 
HETATM    6  CA  UNL     1     -11.398  13.151  65.811  1.00  0.00    -0.306 C  
HETATM    7  CA  UNL     1      -9.675  10.369  64.851  1.00  0.00    -0.309 C  
HETATM    8  N   UNL     1     -10.871  11.966  65.411  1.00  0.00    -0.287 N  
HETATM    9  C   UNL     1     -12.433  13.839  64.964  1.00  0.00    -0.416 C  
HETATM   10  OXT UNL     1     -13.273  14.589  65.444  1.00  0.00    -0.494 OA 
HETATM   11  C   UNL     1     -10.860  11.217  64.285  1.00  0.00    -0.328 C  
HETATM   12  O   UNL     1     -12.426  13.603  63.643  1.00  0.00    -0.728 OA 
ENDROOT
BRANCH   4  13
HETATM   13  C   UNL     1     -11.299  15.207  67.316  1.00  0.00    -0.303 C  
BRANCH  13  14
HETATM   14  S   UNL     1     -10.229  16.331  66.375  1.00  0.00    -0.325 SA 
BRANCH  14  15
HETATM   15  C   UNL     1     -10.105  17.663  67.460  1.00  0.00    -0.337 A  
HETATM   16  N   UNL     1      -9.780  17.628  68.731  1.00  0.00    -0.320 NA 
HETATM   17  C   UNL     1     -10.850  19.476  65.860  1.00  0.00    -0.326 C  
HETATM   18  N   UNL     1      -9.972  18.911  69.197  1.00  0.00    -0.314 NA 
HETATM   19  N   UNL     1     -10.458  18.937  67.132  1.00  0.00    -0.416 NA 
HETATM   20  N   UNL     1     -10.392  19.716  68.227  1.00  0.00    -0.441 NA 
ENDBRANCH  14  15
ENDBRANCH  13  14
ENDBRANCH   4  13
BRANCH   7  21
HETATM   21  N   UNL     1      -8.409  10.632  64.025  1.00  0.00    -0.340 N  
HETATM   22  H   UNL     1      -8.486  11.480  63.464  1.00  0.00     0.000 HD 
HETATM   23  O   UNL     1      -6.344  10.530  63.106  1.00  0.00    -0.132 OA 
HETATM   24  C   UNL     1      -7.164   9.990  63.851  1.00  0.00    -0.125 C  
BRANCH  24  25
HETATM   25  C   UNL     1      -6.849   8.583  64.357  1.00  0.00    -0.070 C  
BRANCH  25  26
HETATM   26  C   UNL     1      -7.057   8.194  65.772  1.00  0.00    -0.064 A  
HETATM   27  H2  UNL     1      -9.440   7.373  69.207  1.00  0.00     0.000 HD 
HETATM   28  H1  UNL     1     -10.193   6.816  67.714  1.00  0.00     0.000 HD 
HETATM   29  C   UNL     1      -6.247   8.636  66.814  1.00  0.00    -0.059 A  
HETATM   30  N   UNL     1      -8.206   7.546  66.217  1.00  0.00    -0.119 NA 
HETATM   31  N   UNL     1      -9.402   7.243  68.196  1.00  0.00    -0.132 NA 
HETATM   32  S   UNL     1      -6.986   8.352  68.329  1.00  0.00    -0.074 SA 
HETATM   33  C   UNL     1      -8.312   7.636  67.522  1.00  0.00    -0.120 A  
ENDBRANCH  25  26
BRANCH  25  34
HETATM   34  N   UNL     1      -6.185   7.660  63.715  1.00  0.00    -0.053 NA 
HETATM   35  H   UNL     1      -5.243   7.896  63.403  1.00  0.00     0.000 HD 
BRANCH  34  36
HETATM   36  O   UNL     1      -6.653   6.373  63.416  1.00  0.00    -0.035 OA 
HETATM   37  C   UNL     1      -7.810   6.215  62.637  1.00  0.00    -0.097 C  
ENDBRANCH  34  36
ENDBRANCH  25  34
ENDBRANCH  24  25
ENDBRANCH   7  21
TORSDOF 8
ENDMDL
MODEL      111
REMARK 921   NORMALIZED FREE ENERGY PREDICTED BY IDOCK:   -5.63 KCAL/MOL
REMARK 922        TOTAL FREE ENERGY PREDICTED BY IDOCK:   -9.42 KCAL/MOL
REMARK 923 INTER-LIGAND FREE ENERGY PREDICTED BY IDOCK:   -8.22 KCAL/MOL
REMARK 924 INTRA-LIGAND FREE ENERGY PREDICTED BY IDOCK:   -1.20 KCAL/MOL
REMARK 927      BINDING AFFINITY PREDICTED BY RF-SCORE:    0.00 PKD
ROOT
HETATM    1  C   UNL     1     -10.936  12.009  66.463  1.00  0.00    -0.295 C  
HETATM    2  S   UNL     1      -9.780  12.674  67.629  1.00  0.00    -0.202 SA 
HETATM    3  C   UNL     1      -9.543  14.376  67.057  1.00  0.00    -0.247 C  
HETATM    4  C   UNL     1     -10.414  14.890  65.934  1.00  0.00    -0.327 C  
HETATM    5  O   UNL     1     -12.214  11.658  63.519  1.00  0.00    -0.443 OA 
HETATM    6  CA  UNL     1     -11.211  14.125  65.149  1.00  0.00    -0.337 C  
HETATM    7  CA  UNL     1     -10.803  10.755  65.473  1.00  0.00     0.009 C  
HETATM    8  N   UNL     1     -11.226  12.775  65.289  1.00  0.00    -0.287 N  
HETATM    9  C   UNL     1     -12.022  14.779  64.064  1.00  0.00    -0.128 C  
HETATM   10  OXT UNL     1     -12.446  15.922  64.167  1.00  0.00    -0.605 OA 
HETATM   11  C   UNL     1     -11.652  11.711  64.572  1.00  0.00    -0.154 C  
HETATM   12  O   UNL     1     -12.288  14.066  62.958  1.00  0.00    -0.566 OA 
ENDROOT
BRANCH   4  13
HETATM   13  C   UNL     1     -10.145  16.380  65.676  1.00  0.00    -0.286 C  
BRANCH  13  14
HETATM   14  S   UNL     1      -8.543  16.815  66.410  1.00  0.00    -0.310 SA 
BRANCH  14  15
HETATM   15  C   UNL     1      -8.934  18.280  67.225  1.00  0.00    -0.259 A  
HETATM   16  N   UNL     1      -9.963  18.507  68.008  1.00  0.00    -0.337 NA 
HETATM   17  C   UNL     1      -7.046  19.694  66.309  1.00  0.00    -0.247 C  
HETATM   18  N   UNL     1      -9.924  19.857  68.288  1.00  0.00    -0.428 NA 
HETATM   19  N   UNL     1      -8.253  19.446  67.047  1.00  0.00    -0.265 NA 
HETATM   20  N   UNL     1      -8.885  20.439  67.700  1.00  0.00    -0.275 NA 
ENDBRANCH  14  15
ENDBRANCH  13  14
ENDBRANCH   4  13
BRANCH   7  21
HETATM   21  N   UNL     1      -9.657  10.150  64.650  1.00  0.00    -0.299 N  
HETATM   22  H   UNL     1      -9.518  10.641  63.767  1.00  0.00     0.000 HD 
HETATM   23  O   UNL     1      -7.912   8.906  63.927  1.00  0.00    -0.137 OA 
HETATM   24  C   UNL     1      -8.750   9.081  64.813  1.00  0.00    -0.153 C  
BRANCH  24  25
HETATM   25  C   UNL     1      -8.870   8.017  65.902  1.00  0.00    -0.153 C  
BRANCH  25  26
HETATM   26  C   UNL     1      -8.871   8.366  67.343  1.00  0.00    -0.134 A  
HETATM   27  H2  UNL     1     -10.527  10.110  70.860  1.00  0.00     0.000 HD 
HETATM   28  H1  UNL     1     -11.753   9.373  69.830  1.00  0.00     0.000 HD 
HETATM   29  C   UNL     1      -7.739   8.802  68.025  1.00  0.00    -0.101 A  
HETATM   30  N   UNL     1     -10.040   8.510  68.085  1.00  0.00    -0.193 NA 
HETATM   31  N   UNL     1     -10.773   9.578  70.024  1.00  0.00    -0.227 NA 
HETATM   32  S   UNL     1      -8.159   9.503  69.527  1.00  0.00    -0.132 SA 
HETATM   33  C   UNL     1      -9.802   9.159  69.201  1.00  0.00    -0.171 A  
ENDBRANCH  25  26
BRANCH  25  34
HETATM   34  N   UNL     1      -8.765   6.726  65.737  1.00  0.00    -0.246 NA 
HETATM   35  H   UNL     1      -7.981   6.390  65.177  1.00  0.00     0.000 HD 
BRANCH  34  36
HETATM   36  O   UNL     1      -9.635   5.760  66.263  1.00  0.00    -0.157 OA 
HETATM   37  C   UNL     1      -9.140   4.495  66.616  1.00  0.00    -0.123 C  
ENDBRANCH  34  36
ENDBRANCH  25  34
ENDBRANCH  24  25
ENDBRANCH   7  21
TORSDOF 8
ENDMDL
MODEL      112
REMARK 921   NORMALIZED FREE ENERGY PREDICTED BY IDOCK:   -5.62 KCAL/MOL
REMARK 922        TOTAL FREE ENERGY PREDICTED BY IDOCK:   -9.40 KCAL/MOL
REMARK 923 INTER-LIGAND FREE ENERGY PREDICTED BY IDOCK:   -7.97 KCAL/MOL
REMARK 924 INTRA-LIGAND FREE ENERGY PREDICTED BY IDOCK:   -1.43 KCAL/MOL
REMARK 927      BINDING AFFINITY PREDICTED BY RF-SCORE:    0.00 PKD
ROOT
HETATM    1  C   UNL     1     -11.999   8.691  71.289  1.00  0.00    -0.293 C  
HETATM    2  S   UNL     1     -13.149   7.354  71.459  1.00  0.00    -0.345 SA 
HETATM    3  C   UNL     1     -12.231   6.136  72.436  1.00  0.00    -0.074 C  
HETATM    4  C   UNL     1     -10.886   6.527  73.002  1.00  0.00    -0.291 C  
HETATM    5  O   UNL     1      -9.053   9.955  70.902  1.00  0.00    -0.004 OA 
HETATM    6  CA  UNL     1     -10.185   7.636  72.659  1.00  0.00    -0.265 C  
HETATM    7  CA  UNL     1     -11.379   9.362  69.971  1.00  0.00    -0.141 C  
HETATM    8  N   UNL     1     -10.643   8.468  71.690  1.00  0.00    -0.259 N  
HETATM    9  C   UNL     1      -8.852   7.894  73.307  1.00  0.00    -0.250 C  
HETATM   10  OXT UNL     1      -8.602   7.532  74.449  1.00  0.00    -0.209 OA 
HETATM   11  C   UNL     1     -10.143   9.464  70.924  1.00  0.00    -0.296 C  
HETATM   12  O   UNL     1      -7.923   8.552  72.597  1.00  0.00    -0.298 OA 
ENDROOT
BRANCH   4  13
HETATM   13  C   UNL     1     -10.325   5.410  73.894  1.00  0.00    -0.259 C  
BRANCH  13  14
HETATM   14  S   UNL     1     -10.075   3.928  72.876  1.00  0.00    -0.161 SA 
BRANCH  14  15
HETATM   15  C   UNL     1      -9.296   4.597  71.494  1.00  0.00    -0.148 A  
HETATM   16  N   UNL     1      -9.816   4.797  70.306  1.00  0.00    -0.224 NA 
HETATM   17  C   UNL     1      -6.992   4.875  72.502  1.00  0.00    -0.075 C  
HETATM   18  N   UNL     1      -8.766   5.200  69.507  1.00  0.00    -0.098 NA 
HETATM   19  N   UNL     1      -7.969   4.898  71.449  1.00  0.00    -0.103 NA 
HETATM   20  N   UNL     1      -7.633   5.259  70.197  1.00  0.00    -0.070 NA 
ENDBRANCH  14  15
ENDBRANCH  13  14
ENDBRANCH   4  13
BRANCH   7  21
HETATM   21  N   UNL     1     -10.934   8.833  68.601  1.00  0.00    -0.444 N  
HETATM   22  H   UNL     1     -10.992   7.816  68.545  1.00  0.00     0.000 HD 
HETATM   23  O   UNL     1     -10.232   8.645  66.459  1.00  0.00    -0.283 OA 
HETATM   24  C   UNL     1     -10.466   9.406  67.399  1.00  0.00    -0.278 C  
BRANCH  24  25
HETATM   25  C   UNL     1     -10.039  10.866  67.258  1.00  0.00    -0.191 C  
BRANCH  25  26
HETATM   26  C   UNL     1     -11.028  11.961  67.105  1.00  0.00    -0.269 A  
HETATM   27  H2  UNL     1     -13.374  14.715  64.855  1.00  0.00     0.000 HD 
HETATM   28  H1  UNL     1     -13.225  13.148  64.061  1.00  0.00     0.000 HD 
HETATM   29  C   UNL     1     -11.075  13.071  67.943  1.00  0.00    -0.255 A  
HETATM   30  N   UNL     1     -11.841  12.093  65.984  1.00  0.00    -0.561 NA 
HETATM   31  N   UNL     1     -13.035  13.752  64.861  1.00  0.00    -0.722 NA 
HETATM   32  S   UNL     1     -12.031  14.314  67.260  1.00  0.00    -0.357 SA 
HETATM   33  C   UNL     1     -12.349  13.302  65.920  1.00  0.00    -0.418 A  
ENDBRANCH  25  26
BRANCH  25  34
HETATM   34  N   UNL     1      -8.828  11.301  67.037  1.00  0.00    -0.149 NA 
HETATM   35  H   UNL     1      -8.724  12.077  66.382  1.00  0.00     0.000 HD 
BRANCH  34  36
HETATM   36  O   UNL     1      -7.658  10.796  67.619  1.00  0.00    -0.094 OA 
HETATM   37  C   UNL     1      -6.913  11.598  68.497  1.00  0.00    -0.085 C  
ENDBRANCH  34  36
ENDBRANCH  25  34
ENDBRANCH  24  25
ENDBRANCH   7  21
TORSDOF 8
ENDMDL
MODEL      113
REMARK 921   NORMALIZED FREE ENERGY PREDICTED BY IDOCK:   -5.60 KCAL/MOL
REMARK 922        TOTAL FREE ENERGY PREDICTED BY IDOCK:   -9.38 KCAL/MOL
REMARK 923 INTER-LIGAND FREE ENERGY PREDICTED BY IDOCK:   -8.48 KCAL/MOL
REMARK 924 INTRA-LIGAND FREE ENERGY PREDICTED BY IDOCK:   -0.90 KCAL/MOL
REMARK 927      BINDING AFFINITY PREDICTED BY RF-SCORE:    0.00 PKD
ROOT
HETATM    1  C   UNL     1      -8.148  14.243  68.182  1.00  0.00    -0.144 C  
HETATM    2  S   UNL     1      -6.694  15.127  68.677  1.00  0.00    -0.098 SA 
HETATM    3  C   UNL     1      -6.724  16.601  67.625  1.00  0.00    -0.139 C  
HETATM    4  C   UNL     1      -7.937  16.849  66.759  1.00  0.00    -0.271 C  
HETATM    5  O   UNL     1     -10.322  13.201  66.034  1.00  0.00    -0.276 OA 
HETATM    6  CA  UNL     1      -8.923  15.950  66.517  1.00  0.00    -0.296 C  
HETATM    7  CA  UNL     1      -8.308  12.767  67.577  1.00  0.00    -0.179 C  
HETATM    8  N   UNL     1      -8.841  14.688  67.010  1.00  0.00    -0.229 N  
HETATM    9  C   UNL     1     -10.072  16.339  65.629  1.00  0.00    -0.312 C  
HETATM   10  OXT UNL     1     -10.479  17.491  65.556  1.00  0.00    -0.628 OA 
HETATM   11  C   UNL     1      -9.442  13.498  66.787  1.00  0.00    -0.269 C  
HETATM   12  O   UNL     1     -10.665  15.376  64.906  1.00  0.00    -0.420 OA 
ENDROOT
BRANCH   4  13
HETATM   13  C   UNL     1      -7.825  18.200  66.038  1.00  0.00    -0.139 C  
BRANCH  13  14
HETATM   14  S   UNL     1      -8.515  19.489  67.114  1.00  0.00    -0.308 SA 
BRANCH  14  15
HETATM   15  C   UNL     1      -7.115  19.985  67.986  1.00  0.00    -0.287 A  
HETATM   16  N   UNL     1      -6.857  19.789  69.258  1.00  0.00    -0.345 NA 
HETATM   17  C   UNL     1      -5.959  21.217  66.102  1.00  0.00    -0.276 C  
HETATM   18  N   UNL     1      -5.704  20.499  69.515  1.00  0.00    -0.340 NA 
HETATM   19  N   UNL     1      -6.134  20.766  67.455  1.00  0.00    -0.230 NA 
HETATM   20  N   UNL     1      -5.258  21.104  68.419  1.00  0.00    -0.288 NA 
ENDBRANCH  14  15
ENDBRANCH  13  14
ENDBRANCH   4  13
BRANCH   7  21
HETATM   21  N   UNL     1      -7.481  11.903  66.615  1.00  0.00    -0.366 N  
HETATM   22  H   UNL     1      -6.573  12.319  66.409  1.00  0.00     0.000 HD 
HETATM   23  O   UNL     1      -6.737  10.254  65.256  1.00  0.00    -0.124 OA 
HETATM   24  C   UNL     1      -7.668  10.674  65.946  1.00  0.00    -0.146 C  
BRANCH  24  25
HETATM   25  C   UNL     1      -9.006   9.944  65.856  1.00  0.00    -0.152 C  
BRANCH  25  26
HETATM   26  C   UNL     1      -9.401   8.907  66.840  1.00  0.00    -0.168 A  
HETATM   27  H2  UNL     1     -11.436   5.371  68.068  1.00  0.00     0.000 HD 
HETATM   28  H1  UNL     1     -10.807   5.252  66.426  1.00  0.00     0.000 HD 
HETATM   29  C   UNL     1      -9.730   9.192  68.162  1.00  0.00    -0.154 A  
HETATM   30  N   UNL     1      -9.700   7.597  66.477  1.00  0.00    -0.203 NA 
HETATM   31  N   UNL     1     -10.907   5.776  67.295  1.00  0.00    -0.255 NA 
HETATM   32  S   UNL     1     -10.523   7.867  68.896  1.00  0.00    -0.152 SA 
HETATM   33  C   UNL     1     -10.355   6.988  67.439  1.00  0.00    -0.244 A  
ENDBRANCH  25  26
BRANCH  25  34
HETATM   34  N   UNL     1      -9.833   9.962  64.846  1.00  0.00    -0.400 NA 
HETATM   35  H   UNL     1     -10.765   9.577  65.000  1.00  0.00     0.000 HD 
BRANCH  34  36
HETATM   36  O   UNL     1      -9.551  10.463  63.568  1.00  0.00    -0.289 OA 
HETATM   37  C   UNL     1     -10.045  11.721  63.187  1.00  0.00    -0.354 C  
ENDBRANCH  34  36
ENDBRANCH  25  34
ENDBRANCH  24  25
ENDBRANCH   7  21
TORSDOF 8
ENDMDL
MODEL      114
REMARK 921   NORMALIZED FREE ENERGY PREDICTED BY IDOCK:   -5.60 KCAL/MOL
REMARK 922        TOTAL FREE ENERGY PREDICTED BY IDOCK:   -9.38 KCAL/MOL
REMARK 923 INTER-LIGAND FREE ENERGY PREDICTED BY IDOCK:   -7.92 KCAL/MOL
REMARK 924 INTRA-LIGAND FREE ENERGY PREDICTED BY IDOCK:   -1.45 KCAL/MOL
REMARK 927      BINDING AFFINITY PREDICTED BY RF-SCORE:    0.00 PKD
ROOT
HETATM    1  C   UNL     1      -7.550   9.435  68.551  1.00  0.00    -0.081 C  
HETATM    2  S   UNL     1      -9.198   9.002  68.063  1.00  0.00    -0.135 SA 
HETATM    3  C   UNL     1      -9.969  10.606  67.728  1.00  0.00    -0.167 C  
HETATM    4  C   UNL     1      -9.104  11.845  67.753  1.00  0.00    -0.180 C  
HETATM    5  O   UNL     1      -5.348  11.289  70.013  1.00  0.00    -0.056 OA 
HETATM    6  CA  UNL     1      -7.836  11.905  68.230  1.00  0.00    -0.141 C  
HETATM    7  CA  UNL     1      -6.764   9.142  69.916  1.00  0.00    -0.048 C  
HETATM    8  N   UNL     1      -7.262  10.815  68.801  1.00  0.00    -0.084 N  
HETATM    9  C   UNL     1      -7.096  13.214  68.192  1.00  0.00    -0.109 C  
HETATM   10  OXT UNL     1      -7.295  14.050  67.321  1.00  0.00    -0.152 OA 
HETATM   11  C   UNL     1      -6.190  10.558  69.584  1.00  0.00    -0.063 C  
HETATM   12  O   UNL     1      -6.185  13.451  69.149  1.00  0.00    -0.086 OA 
ENDROOT
BRANCH   4  13
HETATM   13  C   UNL     1      -9.911  13.081  67.329  1.00  0.00    -0.227 C  
BRANCH  13  14
HETATM   14  S   UNL     1     -11.633  12.580  67.051  1.00  0.00    -0.367 SA 
BRANCH  14  15
HETATM   15  C   UNL     1     -11.862  13.060  65.413  1.00  0.00    -0.388 A  
HETATM   16  N   UNL     1     -12.552  14.086  64.973  1.00  0.00    -0.635 NA 
HETATM   17  C   UNL     1     -10.612  11.151  64.320  1.00  0.00    -0.357 C  
HETATM   18  N   UNL     1     -12.567  13.959  63.600  1.00  0.00    -0.794 NA 
HETATM   19  N   UNL     1     -11.430  12.332  64.347  1.00  0.00    -0.336 NA 
HETATM   20  N   UNL     1     -11.888  12.887  63.209  1.00  0.00    -0.506 NA 
ENDBRANCH  14  15
ENDBRANCH  13  14
ENDBRANCH   4  13
BRANCH   7  21
HETATM   21  N   UNL     1      -7.163   9.080  71.397  1.00  0.00    -0.078 N  
HETATM   22  H   UNL     1      -6.505   9.580  71.994  1.00  0.00     0.000 HD 
HETATM   23  O   UNL     1      -8.233   8.696  73.353  1.00  0.00    -0.408 OA 
HETATM   24  C   UNL     1      -8.217   8.501  72.137  1.00  0.00    -0.112 C  
BRANCH  24  25
HETATM   25  C   UNL     1      -9.209   7.491  71.564  1.00  0.00    -0.135 C  
BRANCH  25  26
HETATM   26  C   UNL     1     -10.652   7.803  71.422  1.00  0.00    -0.213 A  
HETATM   27  H2  UNL     1     -14.152  10.130  72.119  1.00  0.00     0.000 HD 
HETATM   28  H1  UNL     1     -12.711  11.123  71.914  1.00  0.00     0.000 HD 
HETATM   29  C   UNL     1     -11.652   6.837  71.470  1.00  0.00    -0.300 A  
HETATM   30  N   UNL     1     -11.151   9.102  71.461  1.00  0.00    -0.341 NA 
HETATM   31  N   UNL     1     -13.154  10.205  71.921  1.00  0.00    -0.455 NA 
HETATM   32  S   UNL     1     -13.189   7.554  71.690  1.00  0.00    -0.322 SA 
HETATM   33  C   UNL     1     -12.446   9.094  71.676  1.00  0.00    -0.359 A  
ENDBRANCH  25  26
BRANCH  25  34
HETATM   34  N   UNL     1      -8.986   6.223  71.348  1.00  0.00    -0.139 NA 
HETATM   35  H   UNL     1      -9.756   5.577  71.527  1.00  0.00     0.000 HD 
BRANCH  34  36
HETATM   36  O   UNL     1      -7.782   5.670  70.892  1.00  0.00    -0.091 OA 
HETATM   37  C   UNL     1      -6.960   4.958  71.781  1.00  0.00    -0.056 C  
ENDBRANCH  34  36
ENDBRANCH  25  34
ENDBRANCH  24  25
ENDBRANCH   7  21
TORSDOF 8
ENDMDL
MODEL      115
REMARK 921   NORMALIZED FREE ENERGY PREDICTED BY IDOCK:   -5.59 KCAL/MOL
REMARK 922        TOTAL FREE ENERGY PREDICTED BY IDOCK:   -9.36 KCAL/MOL
REMARK 923 INTER-LIGAND FREE ENERGY PREDICTED BY IDOCK:   -8.08 KCAL/MOL
REMARK 924 INTRA-LIGAND FREE ENERGY PREDICTED BY IDOCK:   -1.28 KCAL/MOL
REMARK 927      BINDING AFFINITY PREDICTED BY RF-SCORE:    0.00 PKD
ROOT
HETATM    1  C   UNL     1     -10.890  11.782  66.650  1.00  0.00    -0.276 C  
HETATM    2  S   UNL     1     -12.114  12.915  66.053  1.00  0.00    -0.369 SA 
HETATM    3  C   UNL     1     -11.325  14.531  66.266  1.00  0.00    -0.352 C  
HETATM    4  C   UNL     1      -9.877  14.580  66.694  1.00  0.00    -0.282 C  
HETATM    5  O   UNL     1      -8.518  10.849  68.633  1.00  0.00    -0.138 OA 
HETATM    6  CA  UNL     1      -9.163  13.526  67.159  1.00  0.00    -0.236 C  
HETATM    7  CA  UNL     1     -10.963  10.711  67.841  1.00  0.00    -0.295 C  
HETATM    8  N   UNL     1      -9.754  12.317  67.339  1.00  0.00    -0.183 N  
HETATM    9  C   UNL     1      -7.725  13.726  67.551  1.00  0.00    -0.176 C  
HETATM   10  OXT UNL     1      -7.010  14.555  67.004  1.00  0.00    -0.101 OA 
HETATM   11  C   UNL     1      -9.474  11.166  67.990  1.00  0.00    -0.174 C  
HETATM   12  O   UNL     1      -7.224  12.955  68.529  1.00  0.00    -0.097 OA 
ENDROOT
BRANCH   4  13
HETATM   13  C   UNL     1      -9.360  16.026  66.702  1.00  0.00    -0.243 C  
BRANCH  13  14
HETATM   14  S   UNL     1      -9.827  16.798  68.278  1.00  0.00    -0.269 SA 
BRANCH  14  15
HETATM   15  C   UNL     1      -8.456  17.792  68.585  1.00  0.00    -0.269 A  
HETATM   16  N   UNL     1      -7.326  17.438  69.151  1.00  0.00    -0.197 NA 
HETATM   17  C   UNL     1      -9.421  19.974  67.743  1.00  0.00    -0.367 C  
HETATM   18  N   UNL     1      -6.612  18.607  69.314  1.00  0.00    -0.270 NA 
HETATM   19  N   UNL     1      -8.436  19.137  68.368  1.00  0.00    -0.337 NA 
HETATM   20  N   UNL     1      -7.285  19.650  68.843  1.00  0.00    -0.351 NA 
ENDBRANCH  14  15
ENDBRANCH  13  14
ENDBRANCH   4  13
BRANCH   7  21
HETATM   21  N   UNL     1     -11.635  10.679  69.220  1.00  0.00    -0.347 N  
HETATM   22  H   UNL     1     -12.007  11.590  69.487  1.00  0.00     0.000 HD 
HETATM   23  O   UNL     1     -12.494  10.041  71.214  1.00  0.00    -0.331 OA 
HETATM   24  C   UNL     1     -11.865   9.700  70.211  1.00  0.00    -0.099 C  
BRANCH  24  25
HETATM   25  C   UNL     1     -11.215   8.317  70.213  1.00  0.00    -0.176 C  
BRANCH  25  26
HETATM   26  C   UNL     1     -10.409   7.832  71.359  1.00  0.00    -0.197 A  
HETATM   27  H2  UNL     1      -9.891   6.042  75.191  1.00  0.00     0.000 HD 
HETATM   28  H1  UNL     1     -11.184   5.286  74.261  1.00  0.00     0.000 HD 
HETATM   29  C   UNL     1      -9.309   8.518  71.866  1.00  0.00    -0.267 A  
HETATM   30  N   UNL     1     -10.811   6.776  72.172  1.00  0.00    -0.221 NA 
HETATM   31  N   UNL     1     -10.430   5.970  74.327  1.00  0.00    -0.258 NA 
HETATM   32  S   UNL     1      -8.871   7.921  73.408  1.00  0.00    -0.277 SA 
HETATM   33  C   UNL     1     -10.135   6.775  73.298  1.00  0.00    -0.219 A  
ENDBRANCH  25  26
BRANCH  25  34
HETATM   34  N   UNL     1     -11.092   7.517  69.188  1.00  0.00    -0.435 NA 
HETATM   35  H   UNL     1     -11.879   6.900  68.983  1.00  0.00     0.000 HD 
BRANCH  34  36
HETATM   36  O   UNL     1      -9.976   7.431  68.346  1.00  0.00    -0.155 OA 
HETATM   37  C   UNL     1      -9.323   6.199  68.178  1.00  0.00    -0.115 C  
ENDBRANCH  34  36
ENDBRANCH  25  34
ENDBRANCH  24  25
ENDBRANCH   7  21
TORSDOF 8
ENDMDL
MODEL      116
REMARK 921   NORMALIZED FREE ENERGY PREDICTED BY IDOCK:   -5.58 KCAL/MOL
REMARK 922        TOTAL FREE ENERGY PREDICTED BY IDOCK:   -9.35 KCAL/MOL
REMARK 923 INTER-LIGAND FREE ENERGY PREDICTED BY IDOCK:   -8.27 KCAL/MOL
REMARK 924 INTRA-LIGAND FREE ENERGY PREDICTED BY IDOCK:   -1.08 KCAL/MOL
REMARK 927      BINDING AFFINITY PREDICTED BY RF-SCORE:    0.00 PKD
ROOT
HETATM    1  C   UNL     1      -9.323  10.129  69.295  1.00  0.00    -0.215 C  
HETATM    2  S   UNL     1      -8.611  11.005  67.929  1.00  0.00    -0.137 SA 
HETATM    3  C   UNL     1      -9.726  12.416  67.712  1.00  0.00    -0.201 C  
HETATM    4  C   UNL     1     -10.816  12.642  68.733  1.00  0.00    -0.267 C  
HETATM    5  O   UNL     1     -11.784   9.016  71.065  1.00  0.00    -0.280 OA 
HETATM    6  CA  UNL     1     -11.191  11.755  69.687  1.00  0.00    -0.152 C  
HETATM    7  CA  UNL     1      -9.869   8.625  69.390  1.00  0.00    -0.184 C  
HETATM    8  N   UNL     1     -10.626  10.522  69.742  1.00  0.00    -0.247 N  
HETATM    9  C   UNL     1     -12.299  12.118  70.636  1.00  0.00    -0.295 C  
HETATM   10  OXT UNL     1     -12.507  13.274  70.982  1.00  0.00    -0.366 OA 
HETATM   11  C   UNL     1     -10.896   9.335  70.332  1.00  0.00    -0.254 C  
HETATM   12  O   UNL     1     -13.069  11.130  71.117  1.00  0.00    -0.331 OA 
ENDROOT
BRANCH   4  13
HETATM   13  C   UNL     1     -11.573  13.946  68.441  1.00  0.00    -0.332 C  
BRANCH  13  14
HETATM   14  S   UNL     1     -10.386  15.183  67.844  1.00  0.00    -0.244 SA 
BRANCH  14  15
HETATM   15  C   UNL     1     -11.006  15.513  66.273  1.00  0.00    -0.242 A  
HETATM   16  N   UNL     1     -11.712  14.711  65.510  1.00  0.00    -0.341 NA 
HETATM   17  C   UNL     1     -10.014  17.823  65.992  1.00  0.00    -0.209 C  
HETATM   18  N   UNL     1     -11.834  15.363  64.301  1.00  0.00    -0.411 NA 
HETATM   19  N   UNL     1     -10.723  16.647  65.573  1.00  0.00    -0.432 NA 
HETATM   20  N   UNL     1     -11.227  16.544  64.329  1.00  0.00    -1.010 NA 
ENDBRANCH  14  15
ENDBRANCH  13  14
ENDBRANCH   4  13
BRANCH   7  21
HETATM   21  N   UNL     1     -10.612   7.686  68.429  1.00  0.00    -0.344 N  
HETATM   22  H   UNL     1     -11.502   7.370  68.812  1.00  0.00     0.000 HD 
HETATM   23  O   UNL     1     -11.237   6.435  66.651  1.00  0.00    -0.245 OA 
HETATM   24  C   UNL     1     -10.366   7.153  67.145  1.00  0.00    -0.289 C  
BRANCH  24  25
HETATM   25  C   UNL     1      -9.021   7.240  66.426  1.00  0.00    -0.158 C  
BRANCH  25  26
HETATM   26  C   UNL     1      -7.955   6.231  66.633  1.00  0.00    -0.108 A  
HETATM   27  H2  UNL     1      -6.475   2.260  67.076  1.00  0.00     0.000 HD 
HETATM   28  H1  UNL     1      -7.774   2.368  65.890  1.00  0.00     0.000 HD 
HETATM   29  C   UNL     1      -6.908   6.398  67.535  1.00  0.00    -0.076 A  
HETATM   30  N   UNL     1      -8.029   4.938  66.122  1.00  0.00    -0.106 NA 
HETATM   31  N   UNL     1      -7.142   2.824  66.547  1.00  0.00    -0.053 NA 
HETATM   32  S   UNL     1      -6.110   4.915  67.830  1.00  0.00    -0.028 SA 
HETATM   33  C   UNL     1      -7.170   4.151  66.728  1.00  0.00    -0.072 A  
ENDBRANCH  25  26
BRANCH  25  34
HETATM   34  N   UNL     1      -8.567   8.263  65.755  1.00  0.00    -0.153 NA 
HETATM   35  H   UNL     1      -7.564   8.288  65.565  1.00  0.00     0.000 HD 
BRANCH  34  36
HETATM   36  O   UNL     1      -9.335   9.331  65.271  1.00  0.00    -0.241 OA 
HETATM   37  C   UNL     1      -9.026   9.906  64.028  1.00  0.00    -0.243 C  
ENDBRANCH  34  36
ENDBRANCH  25  34
ENDBRANCH  24  25
ENDBRANCH   7  21
TORSDOF 8
ENDMDL
MODEL      117
REMARK 921   NORMALIZED FREE ENERGY PREDICTED BY IDOCK:   -5.58 KCAL/MOL
REMARK 922        TOTAL FREE ENERGY PREDICTED BY IDOCK:   -9.35 KCAL/MOL
REMARK 923 INTER-LIGAND FREE ENERGY PREDICTED BY IDOCK:   -7.98 KCAL/MOL
REMARK 924 INTRA-LIGAND FREE ENERGY PREDICTED BY IDOCK:   -1.36 KCAL/MOL
REMARK 927      BINDING AFFINITY PREDICTED BY RF-SCORE:    0.00 PKD
ROOT
HETATM    1  C   UNL     1     -11.103  10.444  70.502  1.00  0.00    -0.265 C  
HETATM    2  S   UNL     1     -12.601   9.679  71.062  1.00  0.00    -0.250 SA 
HETATM    3  C   UNL     1     -12.253   7.910  70.895  1.00  0.00    -0.121 C  
HETATM    4  C   UNL     1     -10.854   7.478  70.524  1.00  0.00    -0.252 C  
HETATM    5  O   UNL     1      -8.504  10.688  68.603  1.00  0.00    -0.127 OA 
HETATM    6  CA  UNL     1      -9.874   8.301  70.076  1.00  0.00    -0.182 C  
HETATM    7  CA  UNL     1     -10.854  11.473  69.298  1.00  0.00    -0.167 C  
HETATM    8  N   UNL     1     -10.124   9.618  69.862  1.00  0.00    -0.229 N  
HETATM    9  C   UNL     1      -8.525   7.726  69.742  1.00  0.00    -0.133 C  
HETATM   10  OXT UNL     1      -8.070   6.751  70.324  1.00  0.00    -0.116 OA 
HETATM   11  C   UNL     1      -9.531  10.644  69.211  1.00  0.00    -0.133 C  
HETATM   12  O   UNL     1      -7.807   8.321  68.776  1.00  0.00    -0.111 OA 
ENDROOT
BRANCH   4  13
HETATM   13  C   UNL     1     -10.732   5.947  70.549  1.00  0.00    -0.294 C  
BRANCH  13  14
HETATM   14  S   UNL     1     -11.182   5.359  72.207  1.00  0.00    -0.116 SA 
BRANCH  14  15
HETATM   15  C   UNL     1      -9.968   6.107  73.170  1.00  0.00    -0.179 A  
HETATM   16  N   UNL     1      -9.958   7.339  73.624  1.00  0.00    -0.311 NA 
HETATM   17  C   UNL     1      -8.341   4.171  73.236  1.00  0.00    -0.090 C  
HETATM   18  N   UNL     1      -8.717   7.510  74.201  1.00  0.00    -0.227 NA 
HETATM   19  N   UNL     1      -8.783   5.514  73.484  1.00  0.00    -0.118 NA 
HETATM   20  N   UNL     1      -7.991   6.401  74.115  1.00  0.00    -0.104 NA 
ENDBRANCH  14  15
ENDBRANCH  13  14
ENDBRANCH   4  13
BRANCH   7  21
HETATM   21  N   UNL     1     -11.446  11.652  67.894  1.00  0.00    -0.301 N  
HETATM   22  H   UNL     1     -11.573  10.761  67.414  1.00  0.00     0.000 HD 
HETATM   23  O   UNL     1     -12.337  12.498  65.994  1.00  0.00    -0.615 OA 
HETATM   24  C   UNL     1     -11.858  12.745  67.102  1.00  0.00    -0.350 C  
BRANCH  24  25
HETATM   25  C   UNL     1     -11.564  14.205  67.441  1.00  0.00    -0.372 C  
BRANCH  25  26
HETATM   26  C   UNL     1     -10.355  14.899  66.935  1.00  0.00    -0.264 A  
HETATM   27  H2  UNL     1      -6.235  15.981  67.041  1.00  0.00     0.000 HD 
HETATM   28  H1  UNL     1      -6.508  14.313  67.541  1.00  0.00     0.000 HD 
HETATM   29  C   UNL     1     -10.371  16.198  66.435  1.00  0.00    -0.315 A  
HETATM   30  N   UNL     1      -9.067  14.408  67.126  1.00  0.00    -0.216 NA 
HETATM   31  N   UNL     1      -6.873  15.198  67.189  1.00  0.00    -0.250 NA 
HETATM   32  S   UNL     1      -8.788  16.835  66.330  1.00  0.00    -0.281 SA 
HETATM   33  C   UNL     1      -8.176  15.350  66.919  1.00  0.00    -0.246 A  
ENDBRANCH  25  26
BRANCH  25  34
HETATM   34  N   UNL     1     -12.169  14.928  68.344  1.00  0.00    -0.592 NA 
HETATM   35  H   UNL     1     -12.849  15.613  68.013  1.00  0.00     0.000 HD 
BRANCH  34  36
HETATM   36  O   UNL     1     -11.967  14.846  69.728  1.00  0.00    -0.291 OA 
HETATM   37  C   UNL     1     -11.106  15.755  70.363  1.00  0.00    -0.366 C  
ENDBRANCH  34  36
ENDBRANCH  25  34
ENDBRANCH  24  25
ENDBRANCH   7  21
TORSDOF 8
ENDMDL
MODEL      118
REMARK 921   NORMALIZED FREE ENERGY PREDICTED BY IDOCK:   -5.56 KCAL/MOL
REMARK 922        TOTAL FREE ENERGY PREDICTED BY IDOCK:   -9.31 KCAL/MOL
REMARK 923 INTER-LIGAND FREE ENERGY PREDICTED BY IDOCK:   -7.90 KCAL/MOL
REMARK 924 INTRA-LIGAND FREE ENERGY PREDICTED BY IDOCK:   -1.42 KCAL/MOL
REMARK 927      BINDING AFFINITY PREDICTED BY RF-SCORE:    0.00 PKD
ROOT
HETATM    1  C   UNL     1      -9.557  10.766  68.753  1.00  0.00    -0.189 C  
HETATM    2  S   UNL     1     -10.595  10.233  70.087  1.00  0.00    -0.180 SA 
HETATM    3  C   UNL     1     -11.007   8.527  69.638  1.00  0.00    -0.086 C  
HETATM    4  C   UNL     1     -10.320   7.905  68.445  1.00  0.00    -0.235 C  
HETATM    5  O   UNL     1      -8.644  10.897  65.659  1.00  0.00    -0.178 OA 
HETATM    6  CA  UNL     1      -9.582   8.579  67.528  1.00  0.00    -0.154 C  
HETATM    7  CA  UNL     1      -9.737  11.980  67.722  1.00  0.00    -0.192 C  
HETATM    8  N   UNL     1      -9.466   9.930  67.594  1.00  0.00    -0.146 N  
HETATM    9  C   UNL     1      -8.958   7.824  66.387  1.00  0.00    -0.163 C  
HETATM   10  OXT UNL     1      -8.596   6.660  66.497  1.00  0.00    -0.115 OA 
HETATM   11  C   UNL     1      -9.070  10.930  66.775  1.00  0.00    -0.152 C  
HETATM   12  O   UNL     1      -8.791   8.467  65.221  1.00  0.00    -0.160 OA 
ENDROOT
BRANCH   4  13
HETATM   13  C   UNL     1     -10.710   6.427  68.301  1.00  0.00    -0.285 C  
BRANCH  13  14
HETATM   14  S   UNL     1     -10.586   5.635  69.930  1.00  0.00    -0.321 SA 
BRANCH  14  15
HETATM   15  C   UNL     1      -8.883   5.652  70.183  1.00  0.00    -0.138 A  
HETATM   16  N   UNL     1      -7.959   5.110  69.425  1.00  0.00    -0.083 NA 
HETATM   17  C   UNL     1      -8.881   6.867  72.403  1.00  0.00    -0.129 C  
HETATM   18  N   UNL     1      -6.778   5.256  70.122  1.00  0.00    -0.042 NA 
HETATM   19  N   UNL     1      -8.293   6.153  71.304  1.00  0.00    -0.123 NA 
HETATM   20  N   UNL     1      -6.974   5.887  71.273  1.00  0.00    -0.066 NA 
ENDBRANCH  14  15
ENDBRANCH  13  14
ENDBRANCH   4  13
BRANCH   7  21
HETATM   21  N   UNL     1     -10.939  12.624  67.016  1.00  0.00    -0.257 N  
HETATM   22  H   UNL     1     -11.268  12.064  66.230  1.00  0.00     0.000 HD 
HETATM   23  O   UNL     1     -12.651  13.979  66.424  1.00  0.00    -0.428 OA 
HETATM   24  C   UNL     1     -11.700  13.800  67.187  1.00  0.00    -0.385 C  
BRANCH  24  25
HETATM   25  C   UNL     1     -11.301  14.950  68.110  1.00  0.00    -0.312 C  
BRANCH  25  26
HETATM   26  C   UNL     1     -11.554  14.907  69.571  1.00  0.00    -0.303 A  
HETATM   27  H2  UNL     1     -13.712  13.728  73.050  1.00  0.00     0.000 HD 
HETATM   28  H1  UNL     1     -13.647  12.456  71.832  1.00  0.00     0.000 HD 
HETATM   29  C   UNL     1     -11.407  16.011  70.405  1.00  0.00    -0.391 A  
HETATM   30  N   UNL     1     -12.178  13.833  70.198  1.00  0.00    -0.350 NA 
HETATM   31  N   UNL     1     -13.381  13.389  72.146  1.00  0.00    -0.493 NA 
HETATM   32  S   UNL     1     -12.160  15.742  71.917  1.00  0.00    -0.515 SA 
HETATM   33  C   UNL     1     -12.605  14.177  71.391  1.00  0.00    -0.368 A  
ENDBRANCH  25  26
BRANCH  25  34
HETATM   34  N   UNL     1     -10.919  16.143  67.741  1.00  0.00    -0.319 NA 
HETATM   35  H   UNL     1     -11.089  16.909  68.393  1.00  0.00     0.000 HD 
BRANCH  34  36
HETATM   36  O   UNL     1     -10.297  16.464  66.527  1.00  0.00    -0.293 OA 
HETATM   37  C   UNL     1      -8.989  16.019  66.275  1.00  0.00    -0.345 C  
ENDBRANCH  34  36
ENDBRANCH  25  34
ENDBRANCH  24  25
ENDBRANCH   7  21
TORSDOF 8
ENDMDL
MODEL      119
REMARK 921   NORMALIZED FREE ENERGY PREDICTED BY IDOCK:   -5.55 KCAL/MOL
REMARK 922        TOTAL FREE ENERGY PREDICTED BY IDOCK:   -9.31 KCAL/MOL
REMARK 923 INTER-LIGAND FREE ENERGY PREDICTED BY IDOCK:   -7.85 KCAL/MOL
REMARK 924 INTRA-LIGAND FREE ENERGY PREDICTED BY IDOCK:   -1.45 KCAL/MOL
REMARK 927      BINDING AFFINITY PREDICTED BY RF-SCORE:    0.00 PKD
ROOT
HETATM    1  C   UNL     1      -9.152  12.332  66.798  1.00  0.00    -0.211 C  
HETATM    2  S   UNL     1     -10.862  12.134  67.218  1.00  0.00    -0.257 SA 
HETATM    3  C   UNL     1     -11.124  13.384  68.502  1.00  0.00    -0.270 C  
HETATM    4  C   UNL     1     -10.009  14.359  68.801  1.00  0.00    -0.223 C  
HETATM    5  O   UNL     1      -6.049  12.926  67.464  1.00  0.00    -0.148 OA 
HETATM    6  CA  UNL     1      -8.733  14.249  68.357  1.00  0.00    -0.181 C  
HETATM    7  CA  UNL     1      -7.940  11.285  66.869  1.00  0.00    -0.155 C  
HETATM    8  N   UNL     1      -8.345  13.167  67.635  1.00  0.00    -0.160 N  
HETATM    9  C   UNL     1      -7.726  15.299  68.741  1.00  0.00    -0.147 C  
HETATM   10  OXT UNL     1      -8.043  16.465  68.932  1.00  0.00    -0.216 OA 
HETATM   11  C   UNL     1      -7.179  12.593  67.262  1.00  0.00    -0.103 C  
HETATM   12  O   UNL     1      -6.442  14.927  68.863  1.00  0.00    -0.084 OA 
ENDROOT
BRANCH   4  13
HETATM   13  C   UNL     1     -10.464  15.408  69.827  1.00  0.00    -0.293 C  
BRANCH  13  14
HETATM   14  S   UNL     1     -12.271  15.556  69.740  1.00  0.00    -0.227 SA 
BRANCH  14  15
HETATM   15  C   UNL     1     -12.747  14.700  71.155  1.00  0.00    -0.339 A  
HETATM   16  N   UNL     1     -13.379  13.552  71.217  1.00  0.00    -0.217 NA 
HETATM   17  C   UNL     1     -11.968  16.400  72.860  1.00  0.00    -0.474 C  
HETATM   18  N   UNL     1     -13.671  13.361  72.551  1.00  0.00    -0.698 NA 
HETATM   19  N   UNL     1     -12.617  15.197  72.417  1.00  0.00    -0.330 NA 
HETATM   20  N   UNL     1     -13.213  14.365  73.290  1.00  0.00    -0.580 NA 
ENDBRANCH  14  15
ENDBRANCH  13  14
ENDBRANCH   4  13
BRANCH   7  21
HETATM   21  N   UNL     1      -7.552  10.151  67.828  1.00  0.00    -0.090 N  
HETATM   22  H   UNL     1      -6.562  10.176  68.071  1.00  0.00     0.000 HD 
HETATM   23  O   UNL     1      -7.575   8.366  69.218  1.00  0.00    -0.085 OA 
HETATM   24  C   UNL     1      -8.227   9.082  68.456  1.00  0.00    -0.112 C  
BRANCH  24  25
HETATM   25  C   UNL     1      -9.643   8.637  68.097  1.00  0.00    -0.147 C  
BRANCH  25  26
HETATM   26  C   UNL     1     -10.639   8.278  69.135  1.00  0.00    -0.165 A  
HETATM   27  H2  UNL     1     -12.679   8.824  72.836  1.00  0.00     0.000 HD 
HETATM   28  H1  UNL     1     -12.321  10.351  72.029  1.00  0.00     0.000 HD 
HETATM   29  C   UNL     1     -10.883   6.969  69.541  1.00  0.00    -0.238 A  
HETATM   30  N   UNL     1     -11.248   9.222  69.956  1.00  0.00    -0.210 NA 
HETATM   31  N   UNL     1     -12.303   9.331  72.033  1.00  0.00    -0.371 NA 
HETATM   32  S   UNL     1     -11.760   6.935  71.008  1.00  0.00    -0.362 SA 
HETATM   33  C   UNL     1     -11.793   8.645  71.002  1.00  0.00    -0.265 A  
ENDBRANCH  25  26
BRANCH  25  34
HETATM   34  N   UNL     1     -10.074   8.311  66.908  1.00  0.00    -0.270 NA 
HETATM   35  H   UNL     1     -10.988   7.859  66.852  1.00  0.00     0.000 HD 
BRANCH  34  36
HETATM   36  O   UNL     1      -9.393   8.526  65.703  1.00  0.00    -0.162 OA 
HETATM   37  C   UNL     1      -8.512   7.547  65.215  1.00  0.00    -0.063 C  
ENDBRANCH  34  36
ENDBRANCH  25  34
ENDBRANCH  24  25
ENDBRANCH   7  21
TORSDOF 8
ENDMDL
MODEL      120
REMARK 921   NORMALIZED FREE ENERGY PREDICTED BY IDOCK:   -5.55 KCAL/MOL
REMARK 922        TOTAL FREE ENERGY PREDICTED BY IDOCK:   -9.30 KCAL/MOL
REMARK 923 INTER-LIGAND FREE ENERGY PREDICTED BY IDOCK:   -7.74 KCAL/MOL
REMARK 924 INTRA-LIGAND FREE ENERGY PREDICTED BY IDOCK:   -1.56 KCAL/MOL
REMARK 927      BINDING AFFINITY PREDICTED BY RF-SCORE:    0.00 PKD
ROOT
HETATM    1  C   UNL     1      -9.165  10.735  68.504  1.00  0.00    -0.174 C  
HETATM    2  S   UNL     1      -8.643  11.539  67.014  1.00  0.00    -0.166 SA 
HETATM    3  C   UNL     1      -9.782  12.940  66.876  1.00  0.00    -0.240 C  
HETATM    4  C   UNL     1     -10.729  13.220  68.019  1.00  0.00    -0.254 C  
HETATM    5  O   UNL     1     -11.367   9.718  70.636  1.00  0.00    -0.279 OA 
HETATM    6  CA  UNL     1     -10.972  12.383  69.057  1.00  0.00    -0.197 C  
HETATM    7  CA  UNL     1      -9.689   9.238  68.745  1.00  0.00    -0.157 C  
HETATM    8  N   UNL     1     -10.399  11.152  69.098  1.00  0.00    -0.195 N  
HETATM    9  C   UNL     1     -11.946  12.796  70.125  1.00  0.00    -0.296 C  
HETATM   10  OXT UNL     1     -12.111  13.968  70.438  1.00  0.00    -0.313 OA 
HETATM   11  C   UNL     1     -10.584   9.998  69.777  1.00  0.00    -0.267 C  
HETATM   12  O   UNL     1     -12.641  11.835  70.752  1.00  0.00    -0.317 OA 
ENDROOT
BRANCH   4  13
HETATM   13  C   UNL     1     -11.522  14.511  67.766  1.00  0.00    -0.340 C  
BRANCH  13  14
HETATM   14  S   UNL     1     -10.635  15.502  66.531  1.00  0.00    -0.305 SA 
BRANCH  14  15
HETATM   15  C   UNL     1      -9.902  16.700  67.526  1.00  0.00    -0.253 A  
HETATM   16  N   UNL     1     -10.460  17.785  68.009  1.00  0.00    -0.390 NA 
HETATM   17  C   UNL     1      -7.565  15.730  67.562  1.00  0.00    -0.168 C  
HETATM   18  N   UNL     1      -9.437  18.494  68.604  1.00  0.00    -0.345 NA 
HETATM   19  N   UNL     1      -8.576  16.712  67.838  1.00  0.00    -0.193 NA 
HETATM   20  N   UNL     1      -8.281  17.847  68.499  1.00  0.00    -0.295 NA 
ENDBRANCH  14  15
ENDBRANCH  13  14
ENDBRANCH   4  13
BRANCH   7  21
HETATM   21  N   UNL     1     -10.548   8.255  67.938  1.00  0.00    -0.411 N  
HETATM   22  H   UNL     1     -11.309   8.724  67.447  1.00  0.00     0.000 HD 
HETATM   23  O   UNL     1     -11.399   6.409  66.945  1.00  0.00    -0.304 OA 
HETATM   24  C   UNL     1     -10.545   6.863  67.708  1.00  0.00    -0.244 C  
BRANCH  24  25
HETATM   25  C   UNL     1      -9.692   5.868  68.494  1.00  0.00    -0.126 C  
BRANCH  25  26
HETATM   26  C   UNL     1      -9.780   5.755  69.970  1.00  0.00    -0.169 A  
HETATM   27  H2  UNL     1     -10.765   7.169  73.867  1.00  0.00     0.000 HD 
HETATM   28  H1  UNL     1     -11.949   7.652  72.654  1.00  0.00     0.000 HD 
HETATM   29  C   UNL     1      -8.776   5.197  70.756  1.00  0.00    -0.129 A  
HETATM   30  N   UNL     1     -10.761   6.398  70.719  1.00  0.00    -0.237 NA 
HETATM   31  N   UNL     1     -11.101   7.143  72.903  1.00  0.00    -0.303 NA 
HETATM   32  S   UNL     1      -8.999   5.590  72.405  1.00  0.00    -0.134 SA 
HETATM   33  C   UNL     1     -10.421   6.442  71.987  1.00  0.00    -0.208 A  
ENDBRANCH  25  26
BRANCH  25  34
HETATM   34  N   UNL     1      -8.675   5.190  68.037  1.00  0.00    -0.103 NA 
HETATM   35  H   UNL     1      -7.746   5.481  68.343  1.00  0.00     0.000 HD 
BRANCH  34  36
HETATM   36  O   UNL     1      -8.746   4.097  67.162  1.00  0.00    -0.106 OA 
HETATM   37  C   UNL     1      -8.733   4.312  65.775  1.00  0.00    -0.119 C  
ENDBRANCH  34  36
ENDBRANCH  25  34
ENDBRANCH  24  25
ENDBRANCH   7  21
TORSDOF 8
ENDMDL
MODEL      121
REMARK 921   NORMALIZED FREE ENERGY PREDICTED BY IDOCK:   -5.54 KCAL/MOL
REMARK 922        TOTAL FREE ENERGY PREDICTED BY IDOCK:   -9.29 KCAL/MOL
REMARK 923 INTER-LIGAND FREE ENERGY PREDICTED BY IDOCK:   -7.99 KCAL/MOL
REMARK 924 INTRA-LIGAND FREE ENERGY PREDICTED BY IDOCK:   -1.30 KCAL/MOL
REMARK 927      BINDING AFFINITY PREDICTED BY RF-SCORE:    0.00 PKD
ROOT
HETATM    1  C   UNL     1     -12.533  11.011  70.500  1.00  0.00    -0.344 C  
HETATM    2  S   UNL     1     -12.991  12.024  71.880  1.00  0.00    -0.211 SA 
HETATM    3  C   UNL     1     -12.730  13.708  71.266  1.00  0.00    -0.361 C  
HETATM    4  C   UNL     1     -12.383  13.902  69.808  1.00  0.00    -0.330 C  
HETATM    5  O   UNL     1     -10.747  10.259  67.917  1.00  0.00    -0.224 OA 
HETATM    6  CA  UNL     1     -12.023  12.915  68.952  1.00  0.00    -0.250 C  
HETATM    7  CA  UNL     1     -11.404   9.879  70.376  1.00  0.00    -0.307 C  
HETATM    8  N   UNL     1     -11.880  11.639  69.391  1.00  0.00    -0.326 N  
HETATM    9  C   UNL     1     -11.702  13.261  67.523  1.00  0.00    -0.366 C  
HETATM   10  OXT UNL     1     -12.241  14.194  66.943  1.00  0.00    -0.439 OA 
HETATM   11  C   UNL     1     -11.315  10.495  68.942  1.00  0.00    -0.251 C  
HETATM   12  O   UNL     1     -10.801  12.504  66.878  1.00  0.00    -0.239 OA 
ENDROOT
BRANCH   4  13
HETATM   13  C   UNL     1     -12.320  15.396  69.458  1.00  0.00    -0.174 C  
BRANCH  13  14
HETATM   14  S   UNL     1     -10.928  16.141  70.354  1.00  0.00    -0.251 SA 
BRANCH  14  15
HETATM   15  C   UNL     1      -9.977  16.747  69.053  1.00  0.00    -0.272 A  
HETATM   16  N   UNL     1     -10.072  17.922  68.476  1.00  0.00    -0.373 NA 
HETATM   17  C   UNL     1      -8.588  14.671  68.650  1.00  0.00    -0.172 C  
HETATM   18  N   UNL     1      -9.213  17.875  67.398  1.00  0.00    -0.251 NA 
HETATM   19  N   UNL     1      -9.060  15.999  68.377  1.00  0.00    -0.187 NA 
HETATM   20  N   UNL     1      -8.595  16.701  67.328  1.00  0.00    -0.187 NA 
ENDBRANCH  14  15
ENDBRANCH  13  14
ENDBRANCH   4  13
BRANCH   7  21
HETATM   21  N   UNL     1      -9.993   9.698  70.951  1.00  0.00    -0.311 N  
HETATM   22  H   UNL     1      -9.489  10.582  71.017  1.00  0.00     0.000 HD 
HETATM   23  O   UNL     1      -8.096   8.856  71.852  1.00  0.00    -0.338 OA 
HETATM   24  C   UNL     1      -9.220   8.610  71.411  1.00  0.00    -0.235 C  
BRANCH  24  25
HETATM   25  C   UNL     1      -9.601   7.145  71.208  1.00  0.00    -0.163 C  
BRANCH  25  26
HETATM   26  C   UNL     1      -8.966   6.307  70.162  1.00  0.00    -0.149 A  
HETATM   27  H2  UNL     1      -8.948   3.261  67.184  1.00  0.00     0.000 HD 
HETATM   28  H1  UNL     1     -10.449   4.184  67.196  1.00  0.00     0.000 HD 
HETATM   29  C   UNL     1      -7.684   5.777  70.280  1.00  0.00    -0.095 A  
HETATM   30  N   UNL     1      -9.670   5.787  69.080  1.00  0.00    -0.140 NA 
HETATM   31  N   UNL     1      -9.509   4.027  67.557  1.00  0.00    -0.183 NA 
HETATM   32  S   UNL     1      -7.420   4.547  69.122  1.00  0.00    -0.056 SA 
HETATM   33  C   UNL     1      -8.996   4.811  68.516  1.00  0.00    -0.111 A  
ENDBRANCH  25  26
BRANCH  25  34
HETATM   34  N   UNL     1     -10.627   6.531  71.733  1.00  0.00    -0.212 NA 
HETATM   35  H   UNL     1     -11.274   6.073  71.091  1.00  0.00     0.000 HD 
BRANCH  34  36
HETATM   36  O   UNL     1     -10.918   6.448  73.101  1.00  0.00    -0.257 OA 
HETATM   37  C   UNL     1      -9.970   5.906  73.984  1.00  0.00    -0.227 C  
ENDBRANCH  34  36
ENDBRANCH  25  34
ENDBRANCH  24  25
ENDBRANCH   7  21
TORSDOF 8
ENDMDL
MODEL      122
REMARK 921   NORMALIZED FREE ENERGY PREDICTED BY IDOCK:   -5.54 KCAL/MOL
REMARK 922        TOTAL FREE ENERGY PREDICTED BY IDOCK:   -9.29 KCAL/MOL
REMARK 923 INTER-LIGAND FREE ENERGY PREDICTED BY IDOCK:   -7.86 KCAL/MOL
REMARK 924 INTRA-LIGAND FREE ENERGY PREDICTED BY IDOCK:   -1.43 KCAL/MOL
REMARK 927      BINDING AFFINITY PREDICTED BY RF-SCORE:    0.00 PKD
ROOT
HETATM    1  C   UNL     1     -10.915  10.669  70.252  1.00  0.00    -0.164 C  
HETATM    2  S   UNL     1     -12.593  10.173  70.534  1.00  0.00    -0.159 SA 
HETATM    3  C   UNL     1     -12.423   8.707  71.583  1.00  0.00    -0.335 C  
HETATM    4  C   UNL     1     -11.052   8.340  72.101  1.00  0.00    -0.397 C  
HETATM    5  O   UNL     1      -7.775  10.125  69.734  1.00  0.00    -0.146 OA 
HETATM    6  CA  UNL     1      -9.884   8.877  71.669  1.00  0.00    -0.317 C  
HETATM    7  CA  UNL     1     -10.099  10.829  68.882  1.00  0.00    -0.205 C  
HETATM    8  N   UNL     1      -9.872   9.773  70.650  1.00  0.00    -0.192 N  
HETATM    9  C   UNL     1      -8.590   8.410  72.278  1.00  0.00    -0.197 C  
HETATM   10  OXT UNL     1      -8.516   8.031  73.439  1.00  0.00    -0.189 OA 
HETATM   11  C   UNL     1      -8.955  10.299  69.807  1.00  0.00    -0.049 C  
HETATM   12  O   UNL     1      -7.490   8.426  71.510  1.00  0.00    -0.081 OA 
ENDROOT
BRANCH   4  13
HETATM   13  C   UNL     1     -11.134   7.146  73.062  1.00  0.00    -0.283 C  
BRANCH  13  14
HETATM   14  S   UNL     1     -11.643   5.680  72.121  1.00  0.00    -0.053 SA 
BRANCH  14  15
HETATM   15  C   UNL     1     -10.242   5.393  71.162  1.00  0.00    -0.221 A  
HETATM   16  N   UNL     1      -9.081   4.932  71.565  1.00  0.00    -0.137 NA 
HETATM   17  C   UNL     1     -11.154   6.245  68.961  1.00  0.00    -0.378 C  
HETATM   18  N   UNL     1      -8.246   5.028  70.472  1.00  0.00    -0.098 NA 
HETATM   19  N   UNL     1     -10.146   5.735  69.847  1.00  0.00    -0.191 NA 
HETATM   20  N   UNL     1      -8.887   5.523  69.420  1.00  0.00    -0.106 NA 
ENDBRANCH  14  15
ENDBRANCH  13  14
ENDBRANCH   4  13
BRANCH   7  21
HETATM   21  N   UNL     1     -10.077  10.073  67.546  1.00  0.00    -0.186 N  
HETATM   22  H   UNL     1      -9.955   9.069  67.676  1.00  0.00     0.000 HD 
HETATM   23  O   UNL     1     -10.158   9.511  65.356  1.00  0.00    -0.218 OA 
HETATM   24  C   UNL     1     -10.184  10.424  66.184  1.00  0.00    -0.223 C  
BRANCH  24  25
HETATM   25  C   UNL     1     -10.123  11.859  65.663  1.00  0.00    -0.243 C  
BRANCH  25  26
HETATM   26  C   UNL     1     -10.465  13.019  66.521  1.00  0.00    -0.277 A  
HETATM   27  H2  UNL     1      -9.818  15.708  69.762  1.00  0.00     0.000 HD 
HETATM   28  H1  UNL     1      -8.318  15.242  68.961  1.00  0.00     0.000 HD 
HETATM   29  C   UNL     1     -11.761  13.306  66.938  1.00  0.00    -0.388 A  
HETATM   30  N   UNL     1      -9.504  13.787  67.172  1.00  0.00    -0.235 NA 
HETATM   31  N   UNL     1      -9.336  15.203  69.017  1.00  0.00    -0.210 NA 
HETATM   32  S   UNL     1     -11.757  14.435  68.223  1.00  0.00    -0.336 SA 
HETATM   33  C   UNL     1     -10.051  14.500  68.129  1.00  0.00    -0.227 A  
ENDBRANCH  25  26
BRANCH  25  34
HETATM   34  N   UNL     1      -9.994  12.226  64.417  1.00  0.00    -0.482 NA 
HETATM   35  H   UNL     1      -9.134  12.713  64.161  1.00  0.00     0.000 HD 
BRANCH  34  36
HETATM   36  O   UNL     1     -10.932  12.010  63.399  1.00  0.00    -0.409 OA 
HETATM   37  C   UNL     1     -12.139  12.727  63.399  1.00  0.00    -0.534 C  
ENDBRANCH  34  36
ENDBRANCH  25  34
ENDBRANCH  24  25
ENDBRANCH   7  21
TORSDOF 8
ENDMDL
MODEL      123
REMARK 921   NORMALIZED FREE ENERGY PREDICTED BY IDOCK:   -5.52 KCAL/MOL
REMARK 922        TOTAL FREE ENERGY PREDICTED BY IDOCK:   -9.26 KCAL/MOL
REMARK 923 INTER-LIGAND FREE ENERGY PREDICTED BY IDOCK:   -8.43 KCAL/MOL
REMARK 924 INTRA-LIGAND FREE ENERGY PREDICTED BY IDOCK:   -0.83 KCAL/MOL
REMARK 927      BINDING AFFINITY PREDICTED BY RF-SCORE:    0.00 PKD
ROOT
HETATM    1  C   UNL     1     -10.711  10.553  70.148  1.00  0.00    -0.171 C  
HETATM    2  S   UNL     1     -10.189  10.127  68.509  1.00  0.00    -0.184 SA 
HETATM    3  C   UNL     1     -10.912  11.436  67.488  1.00  0.00    -0.260 C  
HETATM    4  C   UNL     1     -11.589  12.600  68.175  1.00  0.00    -0.386 C  
HETATM    5  O   UNL     1     -12.807  11.691  72.324  1.00  0.00    -0.161 OA 
HETATM    6  CA  UNL     1     -11.913  12.651  69.490  1.00  0.00    -0.270 C  
HETATM    7  CA  UNL     1     -11.584   9.722  71.205  1.00  0.00    -0.390 C  
HETATM    8  N   UNL     1     -11.696  11.581  70.296  1.00  0.00    -0.320 N  
HETATM    9  C   UNL     1     -12.590  13.879  70.035  1.00  0.00    -0.169 C  
HETATM   10  OXT UNL     1     -12.388  14.994  69.571  1.00  0.00    -0.252 OA 
HETATM   11  C   UNL     1     -12.097  11.166  71.519  1.00  0.00     0.140 C  
HETATM   12  O   UNL     1     -13.432  13.729  71.068  1.00  0.00    -0.176 OA 
ENDROOT
BRANCH   4  13
HETATM   13  C   UNL     1     -12.029  13.656  67.150  1.00  0.00    -0.393 C  
BRANCH  13  14
HETATM   14  S   UNL     1     -10.837  13.664  65.780  1.00  0.00    -0.276 SA 
BRANCH  14  15
HETATM   15  C   UNL     1     -11.738  12.869  64.547  1.00  0.00    -0.365 A  
HETATM   16  N   UNL     1     -13.042  12.842  64.405  1.00  0.00    -0.656 NA 
HETATM   17  C   UNL     1      -9.791  11.787  63.346  1.00  0.00    -0.384 C  
HETATM   18  N   UNL     1     -13.283  11.958  63.374  1.00  0.00    -0.512 NA 
HETATM   19  N   UNL     1     -11.177  12.053  63.611  1.00  0.00    -0.422 NA 
HETATM   20  N   UNL     1     -12.149  11.467  62.887  1.00  0.00     0.223 NA 
ENDBRANCH  14  15
ENDBRANCH  13  14
ENDBRANCH   4  13
BRANCH   7  21
HETATM   21  N   UNL     1     -12.776   8.761  71.098  1.00  0.00    -0.480 N  
HETATM   22  H   UNL     1     -13.642   9.247  70.867  1.00  0.00     0.000 HD 
HETATM   23  O   UNL     1     -14.101   6.929  71.039  1.00  0.00    -0.042 OA 
HETATM   24  C   UNL     1     -12.969   7.370  71.241  1.00  0.00    -0.310 C  
BRANCH  24  25
HETATM   25  C   UNL     1     -11.926   6.417  71.822  1.00  0.00    -0.316 C  
BRANCH  25  26
HETATM   26  C   UNL     1     -10.737   5.988  71.047  1.00  0.00    -0.265 A  
HETATM   27  H2  UNL     1      -8.597   3.369  68.456  1.00  0.00     0.000 HD 
HETATM   28  H1  UNL     1     -10.297   3.517  68.013  1.00  0.00     0.000 HD 
HETATM   29  C   UNL     1      -9.435   6.088  71.526  1.00  0.00    -0.149 A  
HETATM   30  N   UNL     1     -10.829   5.240  69.877  1.00  0.00    -0.142 NA 
HETATM   31  N   UNL     1      -9.515   3.789  68.608  1.00  0.00    -0.163 NA 
HETATM   32  S   UNL     1      -8.361   5.145  70.586  1.00  0.00    -0.113 SA 
HETATM   33  C   UNL     1      -9.672   4.689  69.588  1.00  0.00    -0.213 A  
ENDBRANCH  25  26
BRANCH  25  34
HETATM   34  N   UNL     1     -12.043   5.716  72.918  1.00  0.00    -0.521 NA 
HETATM   35  H   UNL     1     -12.457   6.181  73.726  1.00  0.00     0.000 HD 
BRANCH  34  36
HETATM   36  O   UNL     1     -11.649   4.382  73.081  1.00  0.00    -0.210 OA 
HETATM   37  C   UNL     1     -10.906   4.007  74.212  1.00  0.00    -0.122 C  
ENDBRANCH  34  36
ENDBRANCH  25  34
ENDBRANCH  24  25
ENDBRANCH   7  21
TORSDOF 8
ENDMDL
MODEL      124
REMARK 921   NORMALIZED FREE ENERGY PREDICTED BY IDOCK:   -5.50 KCAL/MOL
REMARK 922        TOTAL FREE ENERGY PREDICTED BY IDOCK:   -9.22 KCAL/MOL
REMARK 923 INTER-LIGAND FREE ENERGY PREDICTED BY IDOCK:   -7.58 KCAL/MOL
REMARK 924 INTRA-LIGAND FREE ENERGY PREDICTED BY IDOCK:   -1.64 KCAL/MOL
REMARK 927      BINDING AFFINITY PREDICTED BY RF-SCORE:    0.00 PKD
ROOT
HETATM    1  C   UNL     1      -8.695  10.580  66.070  1.00  0.00    -0.164 C  
HETATM    2  S   UNL     1     -10.419  10.519  66.472  1.00  0.00    -0.179 SA 
HETATM    3  C   UNL     1     -10.678  12.034  67.430  1.00  0.00    -0.229 C  
HETATM    4  C   UNL     1      -9.545  13.028  67.535  1.00  0.00    -0.204 C  
HETATM    5  O   UNL     1      -5.594  11.245  66.677  1.00  0.00    -0.098 OA 
HETATM    6  CA  UNL     1      -8.262  12.792  67.166  1.00  0.00    -0.146 C  
HETATM    7  CA  UNL     1      -7.514   9.551  66.414  1.00  0.00    -0.097 C  
HETATM    8  N   UNL     1      -7.886  11.567  66.720  1.00  0.00    -0.158 N  
HETATM    9  C   UNL     1      -7.236  13.881  67.331  1.00  0.00    -0.093 C  
HETATM   10  OXT UNL     1      -7.526  15.066  67.243  1.00  0.00    -0.198 OA 
HETATM   11  C   UNL     1      -6.727  10.898  66.523  1.00  0.00    -0.133 C  
HETATM   12  O   UNL     1      -5.967  13.520  67.574  1.00  0.00    -0.296 OA 
ENDROOT
BRANCH   4  13
HETATM   13  C   UNL     1      -9.996  14.291  68.281  1.00  0.00    -0.239 C  
BRANCH  13  14
HETATM   14  S   UNL     1     -11.660  14.738  67.710  1.00  0.00    -0.345 SA 
BRANCH  14  15
HETATM   15  C   UNL     1     -11.300  15.578  66.251  1.00  0.00    -0.004 A  
HETATM   16  N   UNL     1     -10.643  16.706  66.122  1.00  0.00    -0.262 NA 
HETATM   17  C   UNL     1     -12.517  14.033  64.658  1.00  0.00    -0.335 C  
HETATM   18  N   UNL     1     -10.751  17.048  64.790  1.00  0.00    -0.665 NA 
HETATM   19  N   UNL     1     -11.776  15.206  65.030  1.00  0.00    -0.286 NA 
HETATM   20  N   UNL     1     -11.447  16.138  64.117  1.00  0.00    -0.799 NA 
ENDBRANCH  14  15
ENDBRANCH  13  14
ENDBRANCH   4  13
BRANCH   7  21
HETATM   21  N   UNL     1      -7.180   8.658  67.616  1.00  0.00    -0.083 N  
HETATM   22  H   UNL     1      -6.199   8.727  67.885  1.00  0.00     0.000 HD 
HETATM   23  O   UNL     1      -7.285   7.231  69.368  1.00  0.00    -0.079 OA 
HETATM   24  C   UNL     1      -7.896   7.764  68.441  1.00  0.00    -0.121 C  
BRANCH  24  25
HETATM   25  C   UNL     1      -9.307   7.263  68.136  1.00  0.00    -0.131 C  
BRANCH  25  26
HETATM   26  C   UNL     1     -10.413   7.392  69.115  1.00  0.00    -0.213 A  
HETATM   27  H2  UNL     1     -12.312   9.049  72.550  1.00  0.00     0.000 HD 
HETATM   28  H1  UNL     1     -11.414  10.253  71.628  1.00  0.00     0.000 HD 
HETATM   29  C   UNL     1     -11.111   6.303  69.629  1.00  0.00    -0.412 A  
HETATM   30  N   UNL     1     -10.698   8.581  69.780  1.00  0.00    -0.228 NA 
HETATM   31  N   UNL     1     -11.747   9.296  71.736  1.00  0.00    -0.380 NA 
HETATM   32  S   UNL     1     -12.014   6.749  71.010  1.00  0.00    -0.362 SA 
HETATM   33  C   UNL     1     -11.456   8.355  70.828  1.00  0.00    -0.255 A  
ENDBRANCH  25  26
BRANCH  25  34
HETATM   34  N   UNL     1      -9.659   6.499  67.137  1.00  0.00    -0.131 NA 
HETATM   35  H   UNL     1     -10.596   6.633  66.757  1.00  0.00     0.000 HD 
BRANCH  34  36
HETATM   36  O   UNL     1      -8.862   5.513  66.541  1.00  0.00    -0.117 OA 
HETATM   37  C   UNL     1      -8.238   5.770  65.309  1.00  0.00    -0.139 C  
ENDBRANCH  34  36
ENDBRANCH  25  34
ENDBRANCH  24  25
ENDBRANCH   7  21
TORSDOF 8
ENDMDL
MODEL      125
REMARK 921   NORMALIZED FREE ENERGY PREDICTED BY IDOCK:   -5.48 KCAL/MOL
REMARK 922        TOTAL FREE ENERGY PREDICTED BY IDOCK:   -9.20 KCAL/MOL
REMARK 923 INTER-LIGAND FREE ENERGY PREDICTED BY IDOCK:   -8.15 KCAL/MOL
REMARK 924 INTRA-LIGAND FREE ENERGY PREDICTED BY IDOCK:   -1.05 KCAL/MOL
REMARK 927      BINDING AFFINITY PREDICTED BY RF-SCORE:    0.00 PKD
ROOT
HETATM    1  C   UNL     1     -11.227  10.207  67.777  1.00  0.00    -0.133 C  
HETATM    2  S   UNL     1     -12.007  11.596  68.553  1.00  0.00    -0.095 SA 
HETATM    3  C   UNL     1     -11.539  12.984  67.489  1.00  0.00    -0.356 C  
HETATM    4  C   UNL     1     -10.809  12.695  66.199  1.00  0.00    -0.301 C  
HETATM    5  O   UNL     1      -8.839   8.740  66.174  1.00  0.00    -0.147 OA 
HETATM    6  CA  UNL     1     -10.263  11.501  65.860  1.00  0.00    -0.244 C  
HETATM    7  CA  UNL     1     -10.142   9.175  68.350  1.00  0.00    -0.196 C  
HETATM    8  N   UNL     1     -10.282  10.461  66.732  1.00  0.00    -0.217 N  
HETATM    9  C   UNL     1      -9.561  11.361  64.537  1.00  0.00    -0.192 C  
HETATM   10  OXT UNL     1      -9.895  12.006  63.551  1.00  0.00    -0.368 OA 
HETATM   11  C   UNL     1      -9.653   9.272  66.868  1.00  0.00    -0.174 C  
HETATM   12  O   UNL     1      -8.544  10.490  64.451  1.00  0.00    -0.179 OA 
ENDROOT
BRANCH   4  13
HETATM   13  C   UNL     1     -10.609  13.982  65.386  1.00  0.00    -0.341 C  
BRANCH  13  14
HETATM   14  S   UNL     1     -10.938  15.404  66.464  1.00  0.00    -0.222 SA 
BRANCH  14  15
HETATM   15  C   UNL     1      -9.385  16.145  66.528  1.00  0.00    -0.268 A  
HETATM   16  N   UNL     1      -9.003  17.248  65.927  1.00  0.00    -0.531 NA 
HETATM   17  C   UNL     1      -8.232  14.398  67.949  1.00  0.00    -0.156 C  
HETATM   18  N   UNL     1      -7.646  17.341  66.154  1.00  0.00    -0.388 NA 
HETATM   19  N   UNL     1      -8.306  15.583  67.141  1.00  0.00    -0.195 NA 
HETATM   20  N   UNL     1      -7.211  16.324  66.890  1.00  0.00    -0.225 NA 
ENDBRANCH  14  15
ENDBRANCH  13  14
ENDBRANCH   4  13
BRANCH   7  21
HETATM   21  N   UNL     1      -8.942   9.291  69.300  1.00  0.00    -0.142 N  
HETATM   22  H   UNL     1      -8.142   9.739  68.855  1.00  0.00     0.000 HD 
HETATM   23  O   UNL     1      -7.568   9.224  71.096  1.00  0.00    -0.261 OA 
HETATM   24  C   UNL     1      -8.674   8.931  70.638  1.00  0.00    -0.197 C  
BRANCH  24  25
HETATM   25  C   UNL     1      -9.577   8.031  71.479  1.00  0.00    -0.163 C  
BRANCH  25  26
HETATM   26  C   UNL     1     -10.996   8.369  71.742  1.00  0.00    -0.291 A  
HETATM   27  H2  UNL     1     -15.200   7.739  71.453  1.00  0.00     0.000 HD 
HETATM   28  H1  UNL     1     -14.302   6.233  71.626  1.00  0.00     0.000 HD 
HETATM   29  C   UNL     1     -11.494   9.668  71.697  1.00  0.00    -0.305 A  
HETATM   30  N   UNL     1     -11.999   7.408  71.828  1.00  0.00    -0.292 NA 
HETATM   31  N   UNL     1     -14.313   7.252  71.585  1.00  0.00    -0.444 NA 
HETATM   32  S   UNL     1     -13.202   9.669  71.634  1.00  0.00    -0.424 SA 
HETATM   33  C   UNL     1     -13.183   7.961  71.703  1.00  0.00    -0.334 A  
ENDBRANCH  25  26
BRANCH  25  34
HETATM   34  N   UNL     1      -9.195   7.027  72.222  1.00  0.00    -0.134 NA 
HETATM   35  H   UNL     1      -9.540   6.101  71.968  1.00  0.00     0.000 HD 
BRANCH  34  36
HETATM   36  O   UNL     1      -8.353   7.110  73.339  1.00  0.00    -0.112 OA 
HETATM   37  C   UNL     1      -8.510   6.205  74.401  1.00  0.00    -0.121 C  
ENDBRANCH  34  36
ENDBRANCH  25  34
ENDBRANCH  24  25
ENDBRANCH   7  21
TORSDOF 8
ENDMDL
MODEL      126
REMARK 921   NORMALIZED FREE ENERGY PREDICTED BY IDOCK:   -5.48 KCAL/MOL
REMARK 922        TOTAL FREE ENERGY PREDICTED BY IDOCK:   -9.20 KCAL/MOL
REMARK 923 INTER-LIGAND FREE ENERGY PREDICTED BY IDOCK:   -8.07 KCAL/MOL
REMARK 924 INTRA-LIGAND FREE ENERGY PREDICTED BY IDOCK:   -1.12 KCAL/MOL
REMARK 927      BINDING AFFINITY PREDICTED BY RF-SCORE:    0.00 PKD
ROOT
HETATM    1  C   UNL     1      -7.673  12.294  67.515  1.00  0.00    -0.158 C  
HETATM    2  S   UNL     1      -6.865  13.858  67.716  1.00  0.00    -0.180 SA 
HETATM    3  C   UNL     1      -8.116  15.047  67.168  1.00  0.00    -0.214 C  
HETATM    4  C   UNL     1      -9.505  14.544  66.855  1.00  0.00    -0.263 C  
HETATM    5  O   UNL     1      -9.629  10.208  66.016  1.00  0.00    -0.183 OA 
HETATM    6  CA  UNL     1      -9.855  13.241  66.723  1.00  0.00    -0.264 C  
HETATM    7  CA  UNL     1      -7.266  11.023  66.626  1.00  0.00    -0.143 C  
HETATM    8  N   UNL     1      -8.916  12.264  66.804  1.00  0.00    -0.209 N  
HETATM    9  C   UNL     1     -11.282  12.889  66.405  1.00  0.00    -0.300 C  
HETATM   10  OXT UNL     1     -12.221  13.577  66.783  1.00  0.00    -0.390 OA 
HETATM   11  C   UNL     1      -8.821  10.954  66.484  1.00  0.00    -0.163 C  
HETATM   12  O   UNL     1     -11.514  11.777  65.691  1.00  0.00    -0.290 OA 
ENDROOT
BRANCH   4  13
HETATM   13  C   UNL     1     -10.446  15.713  66.526  1.00  0.00    -0.302 C  
BRANCH  13  14
HETATM   14  S   UNL     1     -10.461  16.857  67.936  1.00  0.00    -0.353 SA 
BRANCH  14  15
HETATM   15  C   UNL     1     -10.288  18.373  67.140  1.00  0.00    -0.394 A  
HETATM   16  N   UNL     1     -10.247  18.595  65.847  1.00  0.00    -0.574 NA 
HETATM   17  C   UNL     1     -10.031  19.814  69.204  1.00  0.00    -0.308 C  
HETATM   18  N   UNL     1      -9.942  19.933  65.711  1.00  0.00    -0.387 NA 
HETATM   19  N   UNL     1     -10.050  19.545  67.793  1.00  0.00    -0.388 NA 
HETATM   20  N   UNL     1      -9.814  20.519  66.895  1.00  0.00    -0.431 NA 
ENDBRANCH  14  15
ENDBRANCH  13  14
ENDBRANCH   4  13
BRANCH   7  21
HETATM   21  N   UNL     1      -6.611  10.837  65.251  1.00  0.00    -0.356 N  
HETATM   22  H   UNL     1      -5.949  11.582  65.037  1.00  0.00     0.000 HD 
HETATM   23  O   UNL     1      -5.969  10.049  63.230  1.00  0.00    -0.112 OA 
HETATM   24  C   UNL     1      -6.700   9.889  64.209  1.00  0.00    -0.126 C  
BRANCH  24  25
HETATM   25  C   UNL     1      -7.775   8.807  64.127  1.00  0.00    -0.130 C  
BRANCH  25  26
HETATM   26  C   UNL     1      -7.619   7.494  64.797  1.00  0.00    -0.102 A  
HETATM   27  H2  UNL     1      -8.138   3.277  65.125  1.00  0.00     0.000 HD 
HETATM   28  H1  UNL     1      -7.833   3.793  63.468  1.00  0.00     0.000 HD 
HETATM   29  C   UNL     1      -7.760   7.313  66.169  1.00  0.00    -0.101 A  
HETATM   30  N   UNL     1      -7.547   6.293  64.097  1.00  0.00    -0.091 NA 
HETATM   31  N   UNL     1      -7.925   4.020  64.458  1.00  0.00    -0.085 NA 
HETATM   32  S   UNL     1      -7.930   5.656  66.556  1.00  0.00    -0.102 SA 
HETATM   33  C   UNL     1      -7.774   5.276  64.897  1.00  0.00    -0.087 A  
ENDBRANCH  25  26
BRANCH  25  34
HETATM   34  N   UNL     1      -8.805   8.799  63.324  1.00  0.00    -0.419 NA 
HETATM   35  H   UNL     1      -9.460   8.021  63.415  1.00  0.00     0.000 HD 
BRANCH  34  36
HETATM   36  O   UNL     1      -9.091   9.764  62.349  1.00  0.00    -0.257 OA 
HETATM   37  C   UNL     1      -9.785  10.931  62.705  1.00  0.00    -0.210 C  
ENDBRANCH  34  36
ENDBRANCH  25  34
ENDBRANCH  24  25
ENDBRANCH   7  21
TORSDOF 8
ENDMDL
MODEL      127
REMARK 921   NORMALIZED FREE ENERGY PREDICTED BY IDOCK:   -5.47 KCAL/MOL
REMARK 922        TOTAL FREE ENERGY PREDICTED BY IDOCK:   -9.19 KCAL/MOL
REMARK 923 INTER-LIGAND FREE ENERGY PREDICTED BY IDOCK:   -7.58 KCAL/MOL
REMARK 924 INTRA-LIGAND FREE ENERGY PREDICTED BY IDOCK:   -1.61 KCAL/MOL
REMARK 927      BINDING AFFINITY PREDICTED BY RF-SCORE:    0.00 PKD
ROOT
HETATM    1  C   UNL     1     -10.428   7.628  68.409  1.00  0.00    -0.169 C  
HETATM    2  S   UNL     1      -9.265   6.419  67.838  1.00  0.00    -0.111 SA 
HETATM    3  C   UNL     1      -9.009   5.368  69.290  1.00  0.00    -0.104 C  
HETATM    4  C   UNL     1      -9.873   5.594  70.509  1.00  0.00    -0.249 C  
HETATM    5  O   UNL     1     -11.708   9.612  70.611  1.00  0.00    -0.269 OA 
HETATM    6  CA  UNL     1     -10.678   6.666  70.710  1.00  0.00    -0.238 C  
HETATM    7  CA  UNL     1     -10.308   9.225  68.487  1.00  0.00    -0.209 C  
HETATM    8  N   UNL     1     -10.708   7.683  69.812  1.00  0.00    -0.245 N  
HETATM    9  C   UNL     1     -11.481   6.756  71.978  1.00  0.00    -0.282 C  
HETATM   10  OXT UNL     1     -11.892   5.762  72.561  1.00  0.00    -0.297 OA 
HETATM   11  C   UNL     1     -11.145   8.962  69.781  1.00  0.00    -0.089 C  
HETATM   12  O   UNL     1     -11.754   7.976  72.467  1.00  0.00    -0.367 OA 
ENDROOT
BRANCH   4  13
HETATM   13  C   UNL     1      -9.588   4.533  71.582  1.00  0.00    -0.159 C  
BRANCH  13  14
HETATM   14  S   UNL     1      -7.914   4.803  72.232  1.00  0.00    -0.108 SA 
BRANCH  14  15
HETATM   15  C   UNL     1      -8.144   6.229  73.169  1.00  0.00    -0.110 A  
HETATM   16  N   UNL     1      -8.843   6.353  74.273  1.00  0.00    -0.138 NA 
HETATM   17  C   UNL     1      -6.872   7.827  71.676  1.00  0.00    -0.058 C  
HETATM   18  N   UNL     1      -8.853   7.703  74.554  1.00  0.00    -0.116 NA 
HETATM   19  N   UNL     1      -7.702   7.460  72.789  1.00  0.00    -0.089 NA 
HETATM   20  N   UNL     1      -8.163   8.387  73.649  1.00  0.00    -0.377 NA 
ENDBRANCH  14  15
ENDBRANCH  13  14
ENDBRANCH   4  13
BRANCH   7  21
HETATM   21  N   UNL     1      -9.169  10.205  68.797  1.00  0.00    -0.156 N  
HETATM   22  H   UNL     1      -8.871  10.151  69.771  1.00  0.00     0.000 HD 
HETATM   23  O   UNL     1      -7.532  11.762  68.660  1.00  0.00    -0.111 OA 
HETATM   24  C   UNL     1      -8.432  11.163  68.068  1.00  0.00    -0.135 C  
BRANCH  24  25
HETATM   25  C   UNL     1      -8.808  11.646  66.668  1.00  0.00    -0.187 C  
BRANCH  25  26
HETATM   26  C   UNL     1     -10.002  12.490  66.425  1.00  0.00    -0.252 A  
HETATM   27  H2  UNL     1     -13.636  13.502  64.444  1.00  0.00     0.000 HD 
HETATM   28  H1  UNL     1     -13.454  11.764  64.674  1.00  0.00     0.000 HD 
HETATM   29  C   UNL     1      -9.969  13.881  66.426  1.00  0.00    -0.297 A  
HETATM   30  N   UNL     1     -11.205  11.977  65.948  1.00  0.00    -0.329 NA 
HETATM   31  N   UNL     1     -13.107  12.713  64.816  1.00  0.00    -0.848 NA 
HETATM   32  S   UNL     1     -11.383  14.530  65.717  1.00  0.00    -0.339 SA 
HETATM   33  C   UNL     1     -11.966  12.940  65.481  1.00  0.00    -0.436 A  
ENDBRANCH  25  26
BRANCH  25  34
HETATM   34  N   UNL     1      -8.300  11.226  65.541  1.00  0.00    -0.373 NA 
HETATM   35  H   UNL     1      -7.520  11.758  65.155  1.00  0.00     0.000 HD 
BRANCH  34  36
HETATM   36  O   UNL     1      -8.732  10.108  64.815  1.00  0.00    -0.161 OA 
HETATM   37  C   UNL     1      -8.389   9.980  63.460  1.00  0.00    -0.171 C  
ENDBRANCH  34  36
ENDBRANCH  25  34
ENDBRANCH  24  25
ENDBRANCH   7  21
TORSDOF 8
ENDMDL
MODEL      128
REMARK 921   NORMALIZED FREE ENERGY PREDICTED BY IDOCK:   -5.46 KCAL/MOL
REMARK 922        TOTAL FREE ENERGY PREDICTED BY IDOCK:   -9.17 KCAL/MOL
REMARK 923 INTER-LIGAND FREE ENERGY PREDICTED BY IDOCK:   -7.70 KCAL/MOL
REMARK 924 INTRA-LIGAND FREE ENERGY PREDICTED BY IDOCK:   -1.47 KCAL/MOL
REMARK 927      BINDING AFFINITY PREDICTED BY RF-SCORE:    0.00 PKD
ROOT
HETATM    1  C   UNL     1      -9.762   8.800  70.282  1.00  0.00    -0.176 C  
HETATM    2  S   UNL     1      -8.892   9.970  69.274  1.00  0.00    -0.188 SA 
HETATM    3  C   UNL     1     -10.051  11.355  69.146  1.00  0.00    -0.020 C  
HETATM    4  C   UNL     1     -11.314  11.322  69.975  1.00  0.00    -0.292 C  
HETATM    5  O   UNL     1     -12.403   7.252  71.309  1.00  0.00    -0.336 OA 
HETATM    6  CA  UNL     1     -11.782  10.240  70.645  1.00  0.00    -0.348 C  
HETATM    7  CA  UNL     1     -10.207   7.292  69.969  1.00  0.00    -0.201 C  
HETATM    8  N   UNL     1     -11.148   9.044  70.552  1.00  0.00    -0.248 N  
HETATM    9  C   UNL     1     -13.060  10.355  71.429  1.00  0.00    -0.413 C  
HETATM   10  OXT UNL     1     -13.408  11.403  71.957  1.00  0.00    -0.467 OA 
HETATM   11  C   UNL     1     -11.428   7.750  70.830  1.00  0.00    -0.279 C  
HETATM   12  O   UNL     1     -13.827   9.261  71.551  1.00  0.00    -0.360 OA 
ENDROOT
BRANCH   4  13
HETATM   13  C   UNL     1     -12.102  12.631  69.820  1.00  0.00    -0.233 C  
BRANCH  13  14
HETATM   14  S   UNL     1     -11.633  13.404  68.246  1.00  0.00    -0.366 SA 
BRANCH  14  15
HETATM   15  C   UNL     1     -11.082  14.945  68.780  1.00  0.00    -0.264 A  
HETATM   16  N   UNL     1     -11.375  15.550  69.907  1.00  0.00    -0.285 NA 
HETATM   17  C   UNL     1      -9.757  15.567  66.716  1.00  0.00    -0.239 C  
HETATM   18  N   UNL     1     -10.826  16.811  69.804  1.00  0.00    -0.265 NA 
HETATM   19  N   UNL     1     -10.341  15.789  68.008  1.00  0.00    -0.246 NA 
HETATM   20  N   UNL     1     -10.197  16.967  68.644  1.00  0.00    -0.281 NA 
ENDBRANCH  14  15
ENDBRANCH  13  14
ENDBRANCH   4  13
BRANCH   7  21
HETATM   21  N   UNL     1     -10.703   6.553  68.718  1.00  0.00    -0.244 N  
HETATM   22  H   UNL     1     -11.420   5.863  68.940  1.00  0.00     0.000 HD 
HETATM   23  O   UNL     1     -11.059   5.850  66.598  1.00  0.00    -0.246 OA 
HETATM   24  C   UNL     1     -10.412   6.593  67.338  1.00  0.00    -0.260 C  
BRANCH  24  25
HETATM   25  C   UNL     1      -9.221   7.336  66.737  1.00  0.00    -0.155 C  
BRANCH  25  26
HETATM   26  C   UNL     1      -9.395   8.422  65.741  1.00  0.00    -0.071 A  
HETATM   27  H2  UNL     1      -8.021  11.148  62.769  1.00  0.00     0.000 HD 
HETATM   28  H1  UNL     1      -7.222   9.580  62.668  1.00  0.00     0.000 HD 
HETATM   29  C   UNL     1     -10.203   9.534  65.956  1.00  0.00    -0.172 A  
HETATM   30  N   UNL     1      -8.595   8.543  64.609  1.00  0.00    -0.111 NA 
HETATM   31  N   UNL     1      -7.918  10.188  63.100  1.00  0.00    -0.150 NA 
HETATM   32  S   UNL     1      -9.864  10.767  64.820  1.00  0.00    -0.328 SA 
HETATM   33  C   UNL     1      -8.699   9.747  64.096  1.00  0.00    -0.213 A  
ENDBRANCH  25  26
BRANCH  25  34
HETATM   34  N   UNL     1      -7.965   6.993  66.833  1.00  0.00    -0.113 NA 
HETATM   35  H   UNL     1      -7.614   6.314  66.156  1.00  0.00     0.000 HD 
BRANCH  34  36
HETATM   36  O   UNL     1      -7.055   7.473  67.784  1.00  0.00    -0.080 OA 
HETATM   37  C   UNL     1      -6.541   6.604  68.759  1.00  0.00    -0.051 C  
ENDBRANCH  34  36
ENDBRANCH  25  34
ENDBRANCH  24  25
ENDBRANCH   7  21
TORSDOF 8
ENDMDL
MODEL      129
REMARK 921   NORMALIZED FREE ENERGY PREDICTED BY IDOCK:   -5.45 KCAL/MOL
REMARK 922        TOTAL FREE ENERGY PREDICTED BY IDOCK:   -9.16 KCAL/MOL
REMARK 923 INTER-LIGAND FREE ENERGY PREDICTED BY IDOCK:   -7.55 KCAL/MOL
REMARK 924 INTRA-LIGAND FREE ENERGY PREDICTED BY IDOCK:   -1.62 KCAL/MOL
REMARK 927      BINDING AFFINITY PREDICTED BY RF-SCORE:    0.00 PKD
ROOT
HETATM    1  C   UNL     1     -10.637   8.073  67.377  1.00  0.00    -0.267 C  
HETATM    2  S   UNL     1      -9.741   6.639  66.845  1.00  0.00    -0.171 SA 
HETATM    3  C   UNL     1      -9.505   5.702  68.377  1.00  0.00    -0.121 C  
HETATM    4  C   UNL     1     -10.194   6.182  69.633  1.00  0.00    -0.255 C  
HETATM    5  O   UNL     1     -11.358  10.441  69.450  1.00  0.00    -0.239 OA 
HETATM    6  CA  UNL     1     -10.798   7.387  69.783  1.00  0.00    -0.234 C  
HETATM    7  CA  UNL     1     -10.261   9.628  67.269  1.00  0.00    -0.233 C  
HETATM    8  N   UNL     1     -10.760   8.306  68.785  1.00  0.00    -0.109 N  
HETATM    9  C   UNL     1     -11.442   7.730  71.098  1.00  0.00    -0.274 C  
HETATM   10  OXT UNL     1     -11.942   6.877  71.820  1.00  0.00    -0.300 OA 
HETATM   11  C   UNL     1     -10.993   9.631  68.651  1.00  0.00    -0.111 C  
HETATM   12  O   UNL     1     -11.469   9.018  71.471  1.00  0.00    -0.286 OA 
ENDROOT
BRANCH   4  13
HETATM   13  C   UNL     1      -9.970   5.195  70.788  1.00  0.00    -0.215 C  
BRANCH  13  14
HETATM   14  S   UNL     1      -8.260   5.368  71.373  1.00  0.00    -0.119 SA 
BRANCH  14  15
HETATM   15  C   UNL     1      -8.387   6.763  72.374  1.00  0.00    -0.108 A  
HETATM   16  N   UNL     1      -7.893   7.957  72.143  1.00  0.00    -0.098 NA 
HETATM   17  C   UNL     1      -9.629   5.690  74.299  1.00  0.00    -0.162 C  
HETATM   18  N   UNL     1      -8.121   8.680  73.295  1.00  0.00    -0.410 NA 
HETATM   19  N   UNL     1      -8.938   6.750  73.619  1.00  0.00    -0.134 NA 
HETATM   20  N   UNL     1      -8.755   7.948  74.204  1.00  0.00    -0.252 NA 
ENDBRANCH  14  15
ENDBRANCH  13  14
ENDBRANCH   4  13
BRANCH   7  21
HETATM   21  N   UNL     1      -8.957  10.430  67.371  1.00  0.00    -0.135 N  
HETATM   22  H   UNL     1      -8.226   9.915  67.861  1.00  0.00     0.000 HD 
HETATM   23  O   UNL     1      -7.349  12.011  67.188  1.00  0.00    -0.140 OA 
HETATM   24  C   UNL     1      -8.519  11.706  66.954  1.00  0.00    -0.168 C  
BRANCH  24  25
HETATM   25  C   UNL     1      -9.448  12.797  66.423  1.00  0.00    -0.229 C  
BRANCH  25  26
HETATM   26  C   UNL     1     -10.018  13.840  67.309  1.00  0.00    -0.239 A  
HETATM   27  H2  UNL     1     -12.988  15.461  69.898  1.00  0.00     0.000 HD 
HETATM   28  H1  UNL     1     -12.777  13.725  70.116  1.00  0.00     0.000 HD 
HETATM   29  C   UNL     1      -9.954  15.202  67.026  1.00  0.00    -0.241 A  
HETATM   30  N   UNL     1     -10.862  13.547  68.375  1.00  0.00    -0.258 NA 
HETATM   31  N   UNL     1     -12.500  14.596  69.664  1.00  0.00    -0.219 NA 
HETATM   32  S   UNL     1     -11.042  16.083  68.006  1.00  0.00    -0.303 SA 
HETATM   33  C   UNL     1     -11.506  14.623  68.765  1.00  0.00    -0.296 A  
ENDBRANCH  25  26
BRANCH  25  34
HETATM   34  N   UNL     1     -10.013  12.827  65.247  1.00  0.00    -0.435 NA 
HETATM   35  H   UNL     1      -9.424  13.079  64.453  1.00  0.00     0.000 HD 
BRANCH  34  36
HETATM   36  O   UNL     1     -11.360  12.545  64.979  1.00  0.00    -0.296 OA 
HETATM   37  C   UNL     1     -12.002  13.172  63.899  1.00  0.00    -0.488 C  
ENDBRANCH  34  36
ENDBRANCH  25  34
ENDBRANCH  24  25
ENDBRANCH   7  21
TORSDOF 8
ENDMDL
MODEL      130
REMARK 921   NORMALIZED FREE ENERGY PREDICTED BY IDOCK:   -5.43 KCAL/MOL
REMARK 922        TOTAL FREE ENERGY PREDICTED BY IDOCK:   -9.13 KCAL/MOL
REMARK 923 INTER-LIGAND FREE ENERGY PREDICTED BY IDOCK:   -7.94 KCAL/MOL
REMARK 924 INTRA-LIGAND FREE ENERGY PREDICTED BY IDOCK:   -1.19 KCAL/MOL
REMARK 927      BINDING AFFINITY PREDICTED BY RF-SCORE:    0.00 PKD
ROOT
HETATM    1  C   UNL     1     -10.718  14.388  69.379  1.00  0.00    -0.162 C  
HETATM    2  S   UNL     1     -12.028  13.484  68.601  1.00  0.00    -0.290 SA 
HETATM    3  C   UNL     1     -11.218  12.729  67.167  1.00  0.00    -0.292 C  
HETATM    4  C   UNL     1      -9.719  12.856  67.031  1.00  0.00    -0.230 C  
HETATM    5  O   UNL     1      -8.044  16.198  69.386  1.00  0.00    -0.226 OA 
HETATM    6  CA  UNL     1      -8.934  13.682  67.766  1.00  0.00    -0.196 C  
HETATM    7  CA  UNL     1     -10.587  15.953  69.699  1.00  0.00    -0.301 C  
HETATM    8  N   UNL     1      -9.484  14.535  68.667  1.00  0.00    -0.207 N  
HETATM    9  C   UNL     1      -7.451  13.704  67.516  1.00  0.00    -0.170 C  
HETATM   10  OXT UNL     1      -6.840  12.713  67.136  1.00  0.00    -0.132 OA 
HETATM   11  C   UNL     1      -9.096  15.631  69.356  1.00  0.00    -0.278 C  
HETATM   12  O   UNL     1      -6.791  14.852  67.731  1.00  0.00    -0.143 OA 
ENDROOT
BRANCH   4  13
HETATM   13  C   UNL     1      -9.212  12.053  65.824  1.00  0.00    -0.060 C  
BRANCH  13  14
HETATM   14  S   UNL     1     -10.000  10.418  65.844  1.00  0.00    -0.260 SA 
BRANCH  14  15
HETATM   15  C   UNL     1      -8.984   9.569  66.943  1.00  0.00    -0.131 A  
HETATM   16  N   UNL     1      -7.707   9.299  66.802  1.00  0.00    -0.093 NA 
HETATM   17  C   UNL     1     -10.748   8.990  68.662  1.00  0.00    -0.097 C  
HETATM   18  N   UNL     1      -7.385   8.474  67.859  1.00  0.00    -0.091 NA 
HETATM   19  N   UNL     1      -9.439   8.958  68.073  1.00  0.00    -0.142 NA 
HETATM   20  N   UNL     1      -8.439   8.256  68.637  1.00  0.00    -0.125 NA 
ENDBRANCH  14  15
ENDBRANCH  13  14
ENDBRANCH   4  13
BRANCH   7  21
HETATM   21  N   UNL     1     -11.018  17.239  68.979  1.00  0.00    -0.262 N  
HETATM   22  H   UNL     1     -11.843  17.660  69.407  1.00  0.00     0.000 HD 
HETATM   23  O   UNL     1     -11.152  19.023  67.595  1.00  0.00    -0.340 OA 
HETATM   24  C   UNL     1     -10.554  17.982  67.873  1.00  0.00    -0.372 C  
BRANCH  24  25
HETATM   25  C   UNL     1      -9.502  17.479  66.886  1.00  0.00    -0.274 C  
BRANCH  25  26
HETATM   26  C   UNL     1      -8.199  18.166  66.711  1.00  0.00    -0.252 A  
HETATM   27  H2  UNL     1      -5.700  21.595  66.328  1.00  0.00     0.000 HD 
HETATM   28  H1  UNL     1      -7.011  21.840  67.480  1.00  0.00     0.000 HD 
HETATM   29  C   UNL     1      -7.213  17.724  65.835  1.00  0.00    -0.225 A  
HETATM   30  N   UNL     1      -7.937  19.431  67.228  1.00  0.00    -0.258 NA 
HETATM   31  N   UNL     1      -6.506  21.231  66.837  1.00  0.00    -0.446 NA 
HETATM   32  S   UNL     1      -6.039  18.938  65.568  1.00  0.00    -0.260 SA 
HETATM   33  C   UNL     1      -6.884  19.960  66.648  1.00  0.00    -0.213 A  
ENDBRANCH  25  26
BRANCH  25  34
HETATM   34  N   UNL     1      -9.678  16.577  65.959  1.00  0.00    -0.390 NA 
HETATM   35  H   UNL     1      -9.107  15.733  66.016  1.00  0.00     0.000 HD 
BRANCH  34  36
HETATM   36  O   UNL     1     -10.583  16.665  64.892  1.00  0.00    -0.694 OA 
HETATM   37  C   UNL     1     -11.437  15.587  64.611  1.00  0.00    -0.324 C  
ENDBRANCH  34  36
ENDBRANCH  25  34
ENDBRANCH  24  25
ENDBRANCH   7  21
TORSDOF 8
ENDMDL
MODEL      131
REMARK 921   NORMALIZED FREE ENERGY PREDICTED BY IDOCK:   -5.42 KCAL/MOL
REMARK 922        TOTAL FREE ENERGY PREDICTED BY IDOCK:   -9.11 KCAL/MOL
REMARK 923 INTER-LIGAND FREE ENERGY PREDICTED BY IDOCK:   -7.66 KCAL/MOL
REMARK 924 INTRA-LIGAND FREE ENERGY PREDICTED BY IDOCK:   -1.45 KCAL/MOL
REMARK 927      BINDING AFFINITY PREDICTED BY RF-SCORE:    0.00 PKD
ROOT
HETATM    1  C   UNL     1      -9.555  12.425  67.638  1.00  0.00    -0.193 C  
HETATM    2  S   UNL     1      -8.425  11.087  67.365  1.00  0.00    -0.134 SA 
HETATM    3  C   UNL     1      -8.932  10.434  65.754  1.00  0.00    -0.168 C  
HETATM    4  C   UNL     1      -9.981  11.184  64.966  1.00  0.00    -0.325 C  
HETATM    5  O   UNL     1     -12.437  13.870  67.472  1.00  0.00    -0.177 OA 
HETATM    6  CA  UNL     1     -10.755  12.187  65.450  1.00  0.00    -0.284 C  
HETATM    7  CA  UNL     1     -10.607  12.667  68.823  1.00  0.00    -0.186 C  
HETATM    8  N   UNL     1     -10.675  12.551  66.755  1.00  0.00    -0.233 N  
HETATM    9  C   UNL     1     -11.763  12.841  64.546  1.00  0.00    -0.366 C  
HETATM   10  OXT UNL     1     -11.585  12.944  63.339  1.00  0.00    -0.498 OA 
HETATM   11  C   UNL     1     -11.415  13.270  67.628  1.00  0.00    -0.321 C  
HETATM   12  O   UNL     1     -12.884  13.329  65.099  1.00  0.00    -0.670 OA 
ENDROOT
BRANCH   4  13
HETATM   13  C   UNL     1     -10.186  10.544  63.585  1.00  0.00    -0.043 C  
BRANCH  13  14
HETATM   14  S   UNL     1      -8.744  10.928  62.551  1.00  0.00    -0.291 SA 
BRANCH  14  15
HETATM   15  C   UNL     1      -7.965   9.394  62.479  1.00  0.00    -0.122 A  
HETATM   16  N   UNL     1      -8.533   8.212  62.443  1.00  0.00    -0.145 NA 
HETATM   17  C   UNL     1      -5.576  10.221  62.600  1.00  0.00    -0.122 C  
HETATM   18  N   UNL     1      -7.502   7.303  62.550  1.00  0.00    -0.094 NA 
HETATM   19  N   UNL     1      -6.616   9.230  62.570  1.00  0.00    -0.093 NA 
HETATM   20  N   UNL     1      -6.327   7.917  62.633  1.00  0.00    -0.076 NA 
ENDBRANCH  14  15
ENDBRANCH  13  14
ENDBRANCH   4  13
BRANCH   7  21
HETATM   21  N   UNL     1     -11.518  11.756  69.657  1.00  0.00    -0.387 N  
HETATM   22  H   UNL     1     -12.404  12.205  69.886  1.00  0.00     0.000 HD 
HETATM   23  O   UNL     1     -12.410  10.017  70.797  1.00  0.00    -0.297 OA 
HETATM   24  C   UNL     1     -11.432  10.450  70.185  1.00  0.00    -0.319 C  
BRANCH  24  25
HETATM   25  C   UNL     1     -10.146   9.627  70.224  1.00  0.00    -0.275 C  
BRANCH  25  26
HETATM   26  C   UNL     1     -10.088   8.237  69.709  1.00  0.00    -0.197 A  
HETATM   27  H2  UNL     1     -10.856   5.181  66.841  1.00  0.00     0.000 HD 
HETATM   28  H1  UNL     1     -10.464   6.728  66.092  1.00  0.00     0.000 HD 
HETATM   29  C   UNL     1     -10.288   7.116  70.509  1.00  0.00    -0.202 A  
HETATM   30  N   UNL     1     -10.059   7.936  68.351  1.00  0.00    -0.189 NA 
HETATM   31  N   UNL     1     -10.578   6.160  66.931  1.00  0.00    -0.285 NA 
HETATM   32  S   UNL     1     -10.564   5.724  69.556  1.00  0.00    -0.331 SA 
HETATM   33  C   UNL     1     -10.371   6.676  68.149  1.00  0.00    -0.190 A  
ENDBRANCH  25  26
BRANCH  25  34
HETATM   34  N   UNL     1      -9.055   9.925  70.877  1.00  0.00    -0.278 NA 
HETATM   35  H   UNL     1      -9.147  10.554  71.675  1.00  0.00     0.000 HD 
BRANCH  34  36
HETATM   36  O   UNL     1      -7.768   9.456  70.578  1.00  0.00    -0.134 OA 
HETATM   37  C   UNL     1      -6.698  10.361  70.499  1.00  0.00    -0.031 C  
ENDBRANCH  34  36
ENDBRANCH  25  34
ENDBRANCH  24  25
ENDBRANCH   7  21
TORSDOF 8
ENDMDL
MODEL      132
REMARK 921   NORMALIZED FREE ENERGY PREDICTED BY IDOCK:   -5.41 KCAL/MOL
REMARK 922        TOTAL FREE ENERGY PREDICTED BY IDOCK:   -9.09 KCAL/MOL
REMARK 923 INTER-LIGAND FREE ENERGY PREDICTED BY IDOCK:   -7.92 KCAL/MOL
REMARK 924 INTRA-LIGAND FREE ENERGY PREDICTED BY IDOCK:   -1.17 KCAL/MOL
REMARK 927      BINDING AFFINITY PREDICTED BY RF-SCORE:    0.00 PKD
ROOT
HETATM    1  C   UNL     1      -9.174  11.830  68.362  1.00  0.00    -0.175 C  
HETATM    2  S   UNL     1     -10.827  11.210  68.508  1.00  0.00    -0.223 SA 
HETATM    3  C   UNL     1     -10.770   9.648  67.594  1.00  0.00    -0.262 C  
HETATM    4  C   UNL     1      -9.433   9.149  67.096  1.00  0.00    -0.197 C  
HETATM    5  O   UNL     1      -6.393  12.341  66.803  1.00  0.00    -0.143 OA 
HETATM    6  CA  UNL     1      -8.288   9.874  67.068  1.00  0.00    -0.121 C  
HETATM    7  CA  UNL     1      -8.634  13.201  67.731  1.00  0.00    -0.188 C  
HETATM    8  N   UNL     1      -8.289  11.178  67.444  1.00  0.00    -0.132 N  
HETATM    9  C   UNL     1      -7.029   9.243  66.540  1.00  0.00    -0.081 C  
HETATM   10  OXT UNL     1      -6.807   8.044  66.648  1.00  0.00    -0.065 OA 
HETATM   11  C   UNL     1      -7.469  12.245  67.315  1.00  0.00    -0.147 C  
HETATM   12  O   UNL     1      -6.128  10.037  65.942  1.00  0.00    -0.068 OA 
ENDROOT
BRANCH   4  13
HETATM   13  C   UNL     1      -9.575   7.760  66.455  1.00  0.00    -0.201 C  
BRANCH  13  14
HETATM   14  S   UNL     1     -10.822   6.821  67.381  1.00  0.00    -0.347 SA 
BRANCH  14  15
HETATM   15  C   UNL     1      -9.924   6.349  68.772  1.00  0.00    -0.147 A  
HETATM   16  N   UNL     1      -8.866   5.573  68.811  1.00  0.00    -0.107 NA 
HETATM   17  C   UNL     1     -11.365   7.489  70.512  1.00  0.00    -0.260 C  
HETATM   18  N   UNL     1      -8.608   5.368  70.151  1.00  0.00    -0.117 NA 
HETATM   19  N   UNL     1     -10.297   6.648  70.047  1.00  0.00    -0.193 NA 
HETATM   20  N   UNL     1      -9.481   6.017  70.912  1.00  0.00    -0.167 NA 
ENDBRANCH  14  15
ENDBRANCH  13  14
ENDBRANCH   4  13
BRANCH   7  21
HETATM   21  N   UNL     1      -9.043  14.071  66.534  1.00  0.00    -0.437 N  
HETATM   22  H   UNL     1      -8.742  13.668  65.646  1.00  0.00     0.000 HD 
HETATM   23  O   UNL     1      -9.914  15.680  65.204  1.00  0.00    -0.357 OA 
HETATM   24  C   UNL     1      -9.733  15.289  66.358  1.00  0.00    -0.285 C  
BRANCH  24  25
HETATM   25  C   UNL     1     -10.084  16.244  67.497  1.00  0.00    -0.258 C  
BRANCH  25  26
HETATM   26  C   UNL     1     -11.007  15.856  68.591  1.00  0.00    -0.320 A  
HETATM   27  H2  UNL     1     -12.049  15.191  72.668  1.00  0.00     0.000 HD 
HETATM   28  H1  UNL     1     -11.003  16.595  72.458  1.00  0.00     0.000 HD 
HETATM   29  C   UNL     1     -11.880  14.775  68.507  1.00  0.00    -0.306 A  
HETATM   30  N   UNL     1     -10.923  16.386  69.875  1.00  0.00    -0.361 NA 
HETATM   31  N   UNL     1     -11.540  15.828  72.053  1.00  0.00    -0.440 NA 
HETATM   32  S   UNL     1     -12.486  14.354  70.049  1.00  0.00    -0.238 SA 
HETATM   33  C   UNL     1     -11.587  15.641  70.728  1.00  0.00    -0.382 A  
ENDBRANCH  25  26
BRANCH  25  34
HETATM   34  N   UNL     1      -9.822  17.523  67.544  1.00  0.00    -0.285 NA 
HETATM   35  H   UNL     1      -8.841  17.796  67.601  1.00  0.00     0.000 HD 
BRANCH  34  36
HETATM   36  O   UNL     1     -10.772  18.554  67.524  1.00  0.00    -0.427 OA 
HETATM   37  C   UNL     1     -10.624  19.620  66.623  1.00  0.00    -0.487 C  
ENDBRANCH  34  36
ENDBRANCH  25  34
ENDBRANCH  24  25
ENDBRANCH   7  21
TORSDOF 8
ENDMDL
MODEL      133
REMARK 921   NORMALIZED FREE ENERGY PREDICTED BY IDOCK:   -5.40 KCAL/MOL
REMARK 922        TOTAL FREE ENERGY PREDICTED BY IDOCK:   -9.09 KCAL/MOL
REMARK 923 INTER-LIGAND FREE ENERGY PREDICTED BY IDOCK:   -7.34 KCAL/MOL
REMARK 924 INTRA-LIGAND FREE ENERGY PREDICTED BY IDOCK:   -1.75 KCAL/MOL
REMARK 927      BINDING AFFINITY PREDICTED BY RF-SCORE:    0.00 PKD
ROOT
HETATM    1  C   UNL     1      -9.880   9.802  70.361  1.00  0.00    -0.209 C  
HETATM    2  S   UNL     1      -8.691   8.503  70.556  1.00  0.00    -0.165 SA 
HETATM    3  C   UNL     1      -8.307   8.029  68.851  1.00  0.00    -0.126 C  
HETATM    4  C   UNL     1      -8.875   8.859  67.723  1.00  0.00    -0.136 C  
HETATM    5  O   UNL     1     -12.385  11.254  68.932  1.00  0.00    -0.485 OA 
HETATM    6  CA  UNL     1      -9.840   9.802  67.854  1.00  0.00    -0.149 C  
HETATM    7  CA  UNL     1     -11.389   9.913  70.890  1.00  0.00    -0.370 C  
HETATM    8  N   UNL     1     -10.430  10.022  69.057  1.00  0.00    -0.202 N  
HETATM    9  C   UNL     1     -10.310  10.550  66.637  1.00  0.00    -0.237 C  
HETATM   10  OXT UNL     1      -9.570  10.784  65.691  1.00  0.00    -0.194 OA 
HETATM   11  C   UNL     1     -11.540  10.642  69.515  1.00  0.00    -0.288 C  
HETATM   12  O   UNL     1     -11.583  10.974  66.609  1.00  0.00    -0.263 OA 
ENDROOT
BRANCH   4  13
HETATM   13  C   UNL     1      -8.342   8.373  66.367  1.00  0.00    -0.116 C  
BRANCH  13  14
HETATM   14  S   UNL     1      -7.336   6.887  66.640  1.00  0.00    -0.078 SA 
BRANCH  14  15
HETATM   15  C   UNL     1      -7.906   5.859  65.383  1.00  0.00    -0.102 A  
HETATM   16  N   UNL     1      -7.406   5.722  64.177  1.00  0.00    -0.059 NA 
HETATM   17  C   UNL     1      -9.932   4.938  66.587  1.00  0.00    -0.229 C  
HETATM   18  N   UNL     1      -8.294   4.914  63.498  1.00  0.00    -0.117 NA 
HETATM   19  N   UNL     1      -9.055   5.131  65.466  1.00  0.00    -0.158 NA 
HETATM   20  N   UNL     1      -9.307   4.553  64.277  1.00  0.00    -0.126 NA 
ENDBRANCH  14  15
ENDBRANCH  13  14
ENDBRANCH   4  13
BRANCH   7  21
HETATM   21  N   UNL     1     -12.541   8.915  71.077  1.00  0.00    -0.489 N  
HETATM   22  H   UNL     1     -13.438   9.309  70.796  1.00  0.00     0.000 HD 
HETATM   23  O   UNL     1     -13.784   7.077  71.515  1.00  0.00    -0.343 OA 
HETATM   24  C   UNL     1     -12.664   7.588  71.542  1.00  0.00    -0.359 C  
BRANCH  24  25
HETATM   25  C   UNL     1     -11.550   6.827  72.258  1.00  0.00    -0.273 C  
BRANCH  25  26
HETATM   26  C   UNL     1     -10.993   5.562  71.721  1.00  0.00    -0.182 A  
HETATM   27  H2  UNL     1      -8.560   2.069  71.899  1.00  0.00     0.000 HD 
HETATM   28  H1  UNL     1      -9.293   2.462  73.453  1.00  0.00     0.000 HD 
HETATM   29  C   UNL     1     -10.596   5.403  70.396  1.00  0.00    -0.252 A  
HETATM   30  N   UNL     1     -10.602   4.503  72.535  1.00  0.00    -0.185 NA 
HETATM   31  N   UNL     1      -9.179   2.657  72.459  1.00  0.00    -0.082 NA 
HETATM   32  S   UNL     1      -9.635   4.002  70.208  1.00  0.00    -0.197 SA 
HETATM   33  C   UNL     1      -9.827   3.674  71.875  1.00  0.00    -0.171 A  
ENDBRANCH  25  26
BRANCH  25  34
HETATM   34  N   UNL     1     -11.122   7.043  73.473  1.00  0.00    -0.539 NA 
HETATM   35  H   UNL     1     -11.652   6.620  74.236  1.00  0.00     0.000 HD 
BRANCH  34  36
HETATM   36  O   UNL     1      -9.999   7.805  73.822  1.00  0.00    -0.249 OA 
HETATM   37  C   UNL     1      -8.852   7.168  74.322  1.00  0.00    -0.213 C  
ENDBRANCH  34  36
ENDBRANCH  25  34
ENDBRANCH  24  25
ENDBRANCH   7  21
TORSDOF 8
ENDMDL
MODEL      134
REMARK 921   NORMALIZED FREE ENERGY PREDICTED BY IDOCK:   -5.40 KCAL/MOL
REMARK 922        TOTAL FREE ENERGY PREDICTED BY IDOCK:   -9.08 KCAL/MOL
REMARK 923 INTER-LIGAND FREE ENERGY PREDICTED BY IDOCK:   -7.15 KCAL/MOL
REMARK 924 INTRA-LIGAND FREE ENERGY PREDICTED BY IDOCK:   -1.93 KCAL/MOL
REMARK 927      BINDING AFFINITY PREDICTED BY RF-SCORE:    0.00 PKD
ROOT
HETATM    1  C   UNL     1     -10.864  15.490  69.450  1.00  0.00    -0.261 C  
HETATM    2  S   UNL     1     -12.195  14.437  68.942  1.00  0.00    -0.087 SA 
HETATM    3  C   UNL     1     -11.354  13.096  68.063  1.00  0.00    -0.292 C  
HETATM    4  C   UNL     1      -9.844  13.049  68.087  1.00  0.00    -0.228 C  
HETATM    5  O   UNL     1      -8.006  16.945  69.072  1.00  0.00    -0.236 OA 
HETATM    6  CA  UNL     1      -9.037  14.050  68.517  1.00  0.00    -0.163 C  
HETATM    7  CA  UNL     1     -10.577  17.032  69.117  1.00  0.00    -0.303 C  
HETATM    8  N   UNL     1      -9.561  15.238  68.910  1.00  0.00    -0.209 N  
HETATM    9  C   UNL     1      -7.545  13.861  68.480  1.00  0.00    -0.134 C  
HETATM   10  OXT UNL     1      -7.024  12.762  68.622  1.00  0.00    -0.091 OA 
HETATM   11  C   UNL     1      -9.110  16.493  69.137  1.00  0.00    -0.184 C  
HETATM   12  O   UNL     1      -6.776  14.944  68.293  1.00  0.00    -0.095 OA 
ENDROOT
BRANCH   4  13
HETATM   13  C   UNL     1      -9.328  11.781  67.392  1.00  0.00    -0.174 C  
BRANCH  13  14
HETATM   14  S   UNL     1     -10.751  10.754  66.929  1.00  0.00    -0.226 SA 
BRANCH  14  15
HETATM   15  C   UNL     1     -10.022   9.199  66.819  1.00  0.00    -0.254 A  
HETATM   16  N   UNL     1     -10.246   8.158  67.587  1.00  0.00    -0.217 NA 
HETATM   17  C   UNL     1      -8.437   9.699  64.912  1.00  0.00    -0.151 C  
HETATM   18  N   UNL     1      -9.318   7.211  67.205  1.00  0.00    -0.131 NA 
HETATM   19  N   UNL     1      -9.009   8.900  65.960  1.00  0.00    -0.179 NA 
HETATM   20  N   UNL     1      -8.555   7.659  66.215  1.00  0.00    -0.137 NA 
ENDBRANCH  14  15
ENDBRANCH  13  14
ENDBRANCH   4  13
BRANCH   7  21
HETATM   21  N   UNL     1     -10.784  17.924  67.885  1.00  0.00    -0.372 N  
HETATM   22  H   UNL     1     -11.378  18.728  68.088  1.00  0.00     0.000 HD 
HETATM   23  O   UNL     1     -10.704  18.843  65.819  1.00  0.00    -0.462 OA 
HETATM   24  C   UNL     1     -10.356  17.906  66.540  1.00  0.00    -0.362 C  
BRANCH  24  25
HETATM   25  C   UNL     1      -9.671  16.713  65.877  1.00  0.00    -0.237 C  
BRANCH  25  26
HETATM   26  C   UNL     1     -10.428  15.508  65.458  1.00  0.00    -0.386 A  
HETATM   27  H2  UNL     1     -11.032  11.975  63.155  1.00  0.00     0.000 HD 
HETATM   28  H1  UNL     1      -9.345  12.201  63.615  1.00  0.00     0.000 HD 
HETATM   29  C   UNL     1     -11.808  15.494  65.285  1.00  0.00     0.233 A  
HETATM   30  N   UNL     1      -9.809  14.356  64.981  1.00  0.00    -0.161 NA 
HETATM   31  N   UNL     1     -10.318  12.507  63.654  1.00  0.00    -0.407 NA 
HETATM   32  S   UNL     1     -12.303  14.106  64.416  1.00  0.00    -0.320 SA 
HETATM   33  C   UNL     1     -10.673  13.594  64.351  1.00  0.00    -0.354 A  
ENDBRANCH  25  26
BRANCH  25  34
HETATM   34  N   UNL     1      -8.385  16.503  65.800  1.00  0.00    -0.221 NA 
HETATM   35  H   UNL     1      -8.081  15.631  65.365  1.00  0.00     0.000 HD 
BRANCH  34  36
HETATM   36  O   UNL     1      -7.385  17.369  66.262  1.00  0.00    -0.264 OA 
HETATM   37  C   UNL     1      -6.779  18.272  65.374  1.00  0.00    -0.088 C  
ENDBRANCH  34  36
ENDBRANCH  25  34
ENDBRANCH  24  25
ENDBRANCH   7  21
TORSDOF 8
ENDMDL
MODEL      135
REMARK 921   NORMALIZED FREE ENERGY PREDICTED BY IDOCK:   -5.40 KCAL/MOL
REMARK 922        TOTAL FREE ENERGY PREDICTED BY IDOCK:   -9.08 KCAL/MOL
REMARK 923 INTER-LIGAND FREE ENERGY PREDICTED BY IDOCK:   -7.56 KCAL/MOL
REMARK 924 INTRA-LIGAND FREE ENERGY PREDICTED BY IDOCK:   -1.52 KCAL/MOL
REMARK 927      BINDING AFFINITY PREDICTED BY RF-SCORE:    0.00 PKD
ROOT
HETATM    1  C   UNL     1      -8.961   9.610  67.432  1.00  0.00    -0.131 C  
HETATM    2  S   UNL     1     -10.720   9.816  67.457  1.00  0.00    -0.216 SA 
HETATM    3  C   UNL     1     -10.928  11.589  67.759  1.00  0.00    -0.236 C  
HETATM    4  C   UNL     1      -9.703  12.474  67.752  1.00  0.00    -0.202 C  
HETATM    5  O   UNL     1      -5.950  10.238  68.415  1.00  0.00    -0.041 OA 
HETATM    6  CA  UNL     1      -8.421  12.034  67.767  1.00  0.00    -0.157 C  
HETATM    7  CA  UNL     1      -8.011   8.699  68.349  1.00  0.00    -0.113 C  
HETATM    8  N   UNL     1      -8.147  10.708  67.859  1.00  0.00    -0.110 N  
HETATM    9  C   UNL     1      -7.299  13.036  67.761  1.00  0.00    -0.139 C  
HETATM   10  OXT UNL     1      -7.401  14.125  67.212  1.00  0.00    -0.161 OA 
HETATM   11  C   UNL     1      -7.076   9.937  68.153  1.00  0.00    -0.077 C  
HETATM   12  O   UNL     1      -6.153  12.704  68.375  1.00  0.00    -0.057 OA 
ENDROOT
BRANCH   4  13
HETATM   13  C   UNL     1     -10.097  13.950  67.906  1.00  0.00    -0.242 C  
BRANCH  13  14
HETATM   14  S   UNL     1     -11.879  14.042  68.241  1.00  0.00    -0.360 SA 
BRANCH  14  15
HETATM   15  C   UNL     1     -11.887  14.662  69.847  1.00  0.00    -0.319 A  
HETATM   16  N   UNL     1     -12.350  14.075  70.926  1.00  0.00    -0.352 NA 
HETATM   17  C   UNL     1     -10.904  16.937  69.339  1.00  0.00    -0.186 C  
HETATM   18  N   UNL     1     -12.276  15.024  71.924  1.00  0.00    -0.335 NA 
HETATM   19  N   UNL     1     -11.503  15.929  70.168  1.00  0.00    -0.341 NA 
HETATM   20  N   UNL     1     -11.765  16.162  71.467  1.00  0.00    -0.477 NA 
ENDBRANCH  14  15
ENDBRANCH  13  14
ENDBRANCH   4  13
BRANCH   7  21
HETATM   21  N   UNL     1      -8.018   8.285  69.827  1.00  0.00    -0.104 N  
HETATM   22  H   UNL     1      -7.114   8.437  70.273  1.00  0.00     0.000 HD 
HETATM   23  O   UNL     1      -8.614   7.568  71.888  1.00  0.00    -0.106 OA 
HETATM   24  C   UNL     1      -8.967   7.744  70.721  1.00  0.00    -0.148 C  
BRANCH  24  25
HETATM   25  C   UNL     1     -10.321   7.180  70.293  1.00  0.00    -0.201 C  
BRANCH  25  26
HETATM   26  C   UNL     1     -11.598   7.815  70.696  1.00  0.00    -0.218 A  
HETATM   27  H2  UNL     1     -13.951  10.860  72.524  1.00  0.00     0.000 HD 
HETATM   28  H1  UNL     1     -12.525  11.504  71.712  1.00  0.00     0.000 HD 
HETATM   29  C   UNL     1     -12.685   7.100  71.192  1.00  0.00    -0.315 A  
HETATM   30  N   UNL     1     -11.747   9.191  70.834  1.00  0.00    -0.284 NA 
HETATM   31  N   UNL     1     -13.119  10.710  71.953  1.00  0.00    -0.487 NA 
HETATM   32  S   UNL     1     -13.817   8.142  71.937  1.00  0.00    -0.347 SA 
HETATM   33  C   UNL     1     -12.823   9.473  71.532  1.00  0.00    -0.377 A  
ENDBRANCH  25  26
BRANCH  25  34
HETATM   34  N   UNL     1     -10.535   6.014  69.745  1.00  0.00    -0.228 NA 
HETATM   35  H   UNL     1     -11.020   5.316  70.310  1.00  0.00     0.000 HD 
BRANCH  34  36
HETATM   36  O   UNL     1     -10.157   5.637  68.449  1.00  0.00    -0.149 OA 
HETATM   37  C   UNL     1     -10.873   6.125  67.344  1.00  0.00    -0.343 C  
ENDBRANCH  34  36
ENDBRANCH  25  34
ENDBRANCH  24  25
ENDBRANCH   7  21
TORSDOF 8
ENDMDL
MODEL      136
REMARK 921   NORMALIZED FREE ENERGY PREDICTED BY IDOCK:   -5.39 KCAL/MOL
REMARK 922        TOTAL FREE ENERGY PREDICTED BY IDOCK:   -9.06 KCAL/MOL
REMARK 923 INTER-LIGAND FREE ENERGY PREDICTED BY IDOCK:   -7.65 KCAL/MOL
REMARK 924 INTRA-LIGAND FREE ENERGY PREDICTED BY IDOCK:   -1.41 KCAL/MOL
REMARK 927      BINDING AFFINITY PREDICTED BY RF-SCORE:    0.00 PKD
ROOT
HETATM    1  C   UNL     1     -11.149   7.613  68.980  1.00  0.00     0.177 C  
HETATM    2  S   UNL     1     -10.501   6.359  67.910  1.00  0.00    -0.255 SA 
HETATM    3  C   UNL     1      -9.758   5.173  69.059  1.00  0.00    -0.161 C  
HETATM    4  C   UNL     1      -9.970   5.371  70.542  1.00  0.00    -0.288 C  
HETATM    5  O   UNL     1     -11.100   9.512  71.591  1.00  0.00    -0.371 OA 
HETATM    6  CA  UNL     1     -10.477   6.489  71.117  1.00  0.00    -0.220 C  
HETATM    7  CA  UNL     1     -10.825   9.181  69.054  1.00  0.00    -0.090 C  
HETATM    8  N   UNL     1     -10.780   7.576  70.363  1.00  0.00    -0.234 N  
HETATM    9  C   UNL     1     -10.628   6.544  72.613  1.00  0.00    -0.221 C  
HETATM   10  OXT UNL     1     -10.854   5.545  73.282  1.00  0.00    -0.253 OA 
HETATM   11  C   UNL     1     -11.036   8.887  70.575  1.00  0.00    -0.251 C  
HETATM   12  O   UNL     1     -10.517   7.738  73.215  1.00  0.00    -0.349 OA 
ENDROOT
BRANCH   4  13
HETATM   13  C   UNL     1      -9.368   4.204  71.339  1.00  0.00    -0.145 C  
BRANCH  13  14
HETATM   14  S   UNL     1      -7.567   4.219  71.116  1.00  0.00    -0.067 SA 
BRANCH  14  15
HETATM   15  C   UNL     1      -7.086   5.330  72.340  1.00  0.00    -0.086 A  
HETATM   16  N   UNL     1      -6.779   6.597  72.190  1.00  0.00    -0.059 NA 
HETATM   17  C   UNL     1      -7.068   3.709  74.283  1.00  0.00    -0.052 C  
HETATM   18  N   UNL     1      -6.312   7.012  73.420  1.00  0.00    -0.065 NA 
HETATM   19  N   UNL     1      -6.850   4.971  73.633  1.00  0.00    -0.076 NA 
HETATM   20  N   UNL     1      -6.348   6.023  74.306  1.00  0.00    -0.069 NA 
ENDBRANCH  14  15
ENDBRANCH  13  14
ENDBRANCH   4  13
BRANCH   7  21
HETATM   21  N   UNL     1      -9.560  10.030  68.861  1.00  0.00    -0.173 N  
HETATM   22  H   UNL     1      -8.709   9.485  68.995  1.00  0.00     0.000 HD 
HETATM   23  O   UNL     1      -8.103  11.707  68.435  1.00  0.00    -0.141 OA 
HETATM   24  C   UNL     1      -9.285  11.377  68.545  1.00  0.00    -0.174 C  
BRANCH  24  25
HETATM   25  C   UNL     1     -10.337  12.485  68.534  1.00  0.00    -0.222 C  
BRANCH  25  26
HETATM   26  C   UNL     1     -10.847  13.069  67.270  1.00  0.00    -0.252 A  
HETATM   27  H2  UNL     1     -12.966  12.946  63.576  1.00  0.00     0.000 HD 
HETATM   28  H1  UNL     1     -13.761  12.012  64.841  1.00  0.00     0.000 HD 
HETATM   29  C   UNL     1     -10.098  13.921  66.464  1.00  0.00    -0.286 A  
HETATM   30  N   UNL     1     -12.023  12.641  66.660  1.00  0.00    -0.529 NA 
HETATM   31  N   UNL     1     -13.006  12.631  64.546  1.00  0.00    -0.797 NA 
HETATM   32  S   UNL     1     -10.802  14.076  64.914  1.00  0.00    -0.427 SA 
HETATM   33  C   UNL     1     -12.067  13.039  65.410  1.00  0.00    -0.444 A  
ENDBRANCH  25  26
BRANCH  25  34
HETATM   34  N   UNL     1     -10.738  13.182  69.562  1.00  0.00    -0.423 NA 
HETATM   35  H   UNL     1     -10.187  14.004  69.810  1.00  0.00     0.000 HD 
BRANCH  34  36
HETATM   36  O   UNL     1     -11.859  12.902  70.355  1.00  0.00    -0.284 OA 
HETATM   37  C   UNL     1     -12.613  13.955  70.895  1.00  0.00    -0.361 C  
ENDBRANCH  34  36
ENDBRANCH  25  34
ENDBRANCH  24  25
ENDBRANCH   7  21
TORSDOF 8
ENDMDL
MODEL      137
REMARK 921   NORMALIZED FREE ENERGY PREDICTED BY IDOCK:   -5.38 KCAL/MOL
REMARK 922        TOTAL FREE ENERGY PREDICTED BY IDOCK:   -9.05 KCAL/MOL
REMARK 923 INTER-LIGAND FREE ENERGY PREDICTED BY IDOCK:   -8.15 KCAL/MOL
REMARK 924 INTRA-LIGAND FREE ENERGY PREDICTED BY IDOCK:   -0.90 KCAL/MOL
REMARK 927      BINDING AFFINITY PREDICTED BY RF-SCORE:    0.00 PKD
ROOT
HETATM    1  C   UNL     1     -11.113  10.696  67.871  1.00  0.00    -0.308 C  
HETATM    2  S   UNL     1      -9.934   9.720  66.978  1.00  0.00    -0.216 SA 
HETATM    3  C   UNL     1      -9.573   8.358  68.117  1.00  0.00    -0.143 C  
HETATM    4  C   UNL     1     -10.387   8.238  69.384  1.00  0.00    -0.223 C  
HETATM    5  O   UNL     1     -12.361  12.018  70.539  1.00  0.00    -0.336 OA 
HETATM    6  CA  UNL     1     -11.221   9.189  69.871  1.00  0.00    -0.102 C  
HETATM    7  CA  UNL     1     -11.047  12.229  68.336  1.00  0.00    -0.243 C  
HETATM    8  N   UNL     1     -11.330  10.393  69.254  1.00  0.00    -0.243 N  
HETATM    9  C   UNL     1     -11.968   8.929  71.151  1.00  0.00    -0.293 C  
HETATM   10  OXT UNL     1     -12.315   7.804  71.485  1.00  0.00    -0.302 OA 
HETATM   11  C   UNL     1     -11.814  11.619  69.555  1.00  0.00    -0.348 C  
HETATM   12  O   UNL     1     -12.262   9.978  71.935  1.00  0.00    -0.351 OA 
ENDROOT
BRANCH   4  13
HETATM   13  C   UNL     1     -10.015   6.961  70.151  1.00  0.00    -0.178 C  
BRANCH  13  14
HETATM   14  S   UNL     1     -10.304   5.531  69.070  1.00  0.00    -0.221 SA 
BRANCH  14  15
HETATM   15  C   UNL     1      -8.716   4.877  68.946  1.00  0.00    -0.089 A  
HETATM   16  N   UNL     1      -7.581   5.491  69.184  1.00  0.00    -0.085 NA 
HETATM   17  C   UNL     1      -9.358   2.586  68.086  1.00  0.00    -0.207 C  
HETATM   18  N   UNL     1      -6.595   4.608  68.796  1.00  0.00    -0.044 NA 
HETATM   19  N   UNL     1      -8.449   3.635  68.455  1.00  0.00    -0.084 NA 
HETATM   20  N   UNL     1      -7.118   3.473  68.344  1.00  0.00    -0.050 NA 
ENDBRANCH  14  15
ENDBRANCH  13  14
ENDBRANCH   4  13
BRANCH   7  21
HETATM   21  N   UNL     1      -9.931  13.156  68.838  1.00  0.00    -0.434 N  
HETATM   22  H   UNL     1      -9.211  12.647  69.350  1.00  0.00     0.000 HD 
HETATM   23  O   UNL     1      -8.607  14.937  69.273  1.00  0.00    -0.175 OA 
HETATM   24  C   UNL     1      -9.656  14.538  68.766  1.00  0.00    -0.193 C  
BRANCH  24  25
HETATM   25  C   UNL     1     -10.660  15.586  68.287  1.00  0.00    -0.255 C  
BRANCH  25  26
HETATM   26  C   UNL     1     -10.230  16.822  67.591  1.00  0.00    -0.289 A  
HETATM   27  H2  UNL     1      -7.401  19.310  65.601  1.00  0.00     0.000 HD 
HETATM   28  H1  UNL     1      -7.204  17.606  65.196  1.00  0.00     0.000 HD 
HETATM   29  C   UNL     1     -10.619  18.098  67.987  1.00  0.00    -0.341 A  
HETATM   30  N   UNL     1      -9.224  16.837  66.629  1.00  0.00    -0.242 NA 
HETATM   31  N   UNL     1      -7.714  18.342  65.684  1.00  0.00    -0.494 NA 
HETATM   32  S   UNL     1      -9.641  19.294  67.253  1.00  0.00    -0.332 SA 
HETATM   33  C   UNL     1      -8.787  18.060  66.434  1.00  0.00    -0.231 A  
ENDBRANCH  25  26
BRANCH  25  34
HETATM   34  N   UNL     1     -11.925  15.648  68.604  1.00  0.00    -0.537 NA 
HETATM   35  H   UNL     1     -12.598  15.365  67.892  1.00  0.00     0.000 HD 
BRANCH  34  36
HETATM   36  O   UNL     1     -12.440  16.070  69.837  1.00  0.00    -0.198 OA 
HETATM   37  C   UNL     1     -12.114  15.366  71.007  1.00  0.00    -0.365 C  
ENDBRANCH  34  36
ENDBRANCH  25  34
ENDBRANCH  24  25
ENDBRANCH   7  21
TORSDOF 8
ENDMDL
MODEL      138
REMARK 921   NORMALIZED FREE ENERGY PREDICTED BY IDOCK:   -5.37 KCAL/MOL
REMARK 922        TOTAL FREE ENERGY PREDICTED BY IDOCK:   -9.05 KCAL/MOL
REMARK 923 INTER-LIGAND FREE ENERGY PREDICTED BY IDOCK:   -7.42 KCAL/MOL
REMARK 924 INTRA-LIGAND FREE ENERGY PREDICTED BY IDOCK:   -1.62 KCAL/MOL
REMARK 927      BINDING AFFINITY PREDICTED BY RF-SCORE:    0.00 PKD
ROOT
HETATM    1  C   UNL     1      -8.175   8.161  66.816  1.00  0.00    -0.107 C  
HETATM    2  S   UNL     1      -6.464   7.764  67.049  1.00  0.00    -0.056 SA 
HETATM    3  C   UNL     1      -6.474   6.732  68.537  1.00  0.00    -0.039 C  
HETATM    4  C   UNL     1      -7.803   6.312  69.119  1.00  0.00    -0.105 C  
HETATM    5  O   UNL     1     -11.149   8.898  67.836  1.00  0.00     0.000 OA 
HETATM    6  CA  UNL     1      -9.009   6.823  68.765  1.00  0.00    -0.130 C  
HETATM    7  CA  UNL     1      -8.911   9.585  66.768  1.00  0.00    -0.131 C  
HETATM    8  N   UNL     1      -9.091   7.839  67.869  1.00  0.00    -0.132 N  
HETATM    9  C   UNL     1     -10.252   6.307  69.435  1.00  0.00    -0.193 C  
HETATM   10  OXT UNL     1     -10.346   5.155  69.836  1.00  0.00    -0.279 OA 
HETATM   11  C   UNL     1     -10.018   8.743  67.481  1.00  0.00    -0.198 C  
HETATM   12  O   UNL     1     -11.286   7.150  69.582  1.00  0.00    -0.180 OA 
ENDROOT
BRANCH   4  13
HETATM   13  C   UNL     1      -7.602   5.350  70.298  1.00  0.00    -0.076 C  
BRANCH  13  14
HETATM   14  S   UNL     1      -7.058   6.308  71.741  1.00  0.00    -0.087 SA 
BRANCH  14  15
HETATM   15  C   UNL     1      -8.568   6.753  72.438  1.00  0.00    -0.123 A  
HETATM   16  N   UNL     1      -9.171   7.916  72.358  1.00  0.00    -0.162 NA 
HETATM   17  C   UNL     1      -9.036   4.582  73.650  1.00  0.00    -0.105 C  
HETATM   18  N   UNL     1     -10.259   7.827  73.201  1.00  0.00    -0.327 NA 
HETATM   19  N   UNL     1      -9.276   5.948  73.279  1.00  0.00    -0.133 NA 
HETATM   20  N   UNL     1     -10.327   6.629  73.772  1.00  0.00    -0.320 NA 
ENDBRANCH  14  15
ENDBRANCH  13  14
ENDBRANCH   4  13
BRANCH   7  21
HETATM   21  N   UNL     1      -8.722  10.920  67.501  1.00  0.00    -0.129 N  
HETATM   22  H   UNL     1      -7.763  11.048  67.825  1.00  0.00     0.000 HD 
HETATM   23  O   UNL     1      -9.024  12.965  68.421  1.00  0.00    -0.187 OA 
HETATM   24  C   UNL     1      -9.547  12.014  67.837  1.00  0.00    -0.196 C  
BRANCH  24  25
HETATM   25  C   UNL     1     -11.070  12.007  67.711  1.00  0.00    -0.249 C  
BRANCH  25  26
HETATM   26  C   UNL     1     -11.767  12.684  66.592  1.00  0.00    -0.398 A  
HETATM   27  H2  UNL     1     -12.968  13.109  62.526  1.00  0.00     0.000 HD 
HETATM   28  H1  UNL     1     -12.953  11.428  63.054  1.00  0.00     0.000 HD 
HETATM   29  C   UNL     1     -11.784  14.066  66.425  1.00  0.00    -0.391 A  
HETATM   30  N   UNL     1     -12.267  11.999  65.488  1.00  0.00    -0.421 NA 
HETATM   31  N   UNL     1     -12.834  12.418  63.265  1.00  0.00    -0.665 NA 
HETATM   32  S   UNL     1     -12.302  14.488  64.851  1.00  0.00    -0.296 SA 
HETATM   33  C   UNL     1     -12.503  12.827  64.497  1.00  0.00    -0.428 A  
ENDBRANCH  25  26
BRANCH  25  34
HETATM   34  N   UNL     1     -11.921  11.629  68.627  1.00  0.00    -0.459 NA 
HETATM   35  H   UNL     1     -12.820  11.268  68.306  1.00  0.00     0.000 HD 
BRANCH  34  36
HETATM   36  O   UNL     1     -11.709  11.676  70.011  1.00  0.00    -0.318 OA 
HETATM   37  C   UNL     1     -12.298  10.709  70.840  1.00  0.00    -0.401 C  
ENDBRANCH  34  36
ENDBRANCH  25  34
ENDBRANCH  24  25
ENDBRANCH   7  21
TORSDOF 8
ENDMDL
MODEL      139
REMARK 921   NORMALIZED FREE ENERGY PREDICTED BY IDOCK:   -5.37 KCAL/MOL
REMARK 922        TOTAL FREE ENERGY PREDICTED BY IDOCK:   -9.04 KCAL/MOL
REMARK 923 INTER-LIGAND FREE ENERGY PREDICTED BY IDOCK:   -7.99 KCAL/MOL
REMARK 924 INTRA-LIGAND FREE ENERGY PREDICTED BY IDOCK:   -1.05 KCAL/MOL
REMARK 927      BINDING AFFINITY PREDICTED BY RF-SCORE:    0.00 PKD
ROOT
HETATM    1  C   UNL     1     -10.683   9.508  67.967  1.00  0.00    -0.212 C  
HETATM    2  S   UNL     1      -9.542   8.639  66.926  1.00  0.00    -0.215 SA 
HETATM    3  C   UNL     1      -8.841   7.386  68.030  1.00  0.00    -0.126 C  
HETATM    4  C   UNL     1      -9.429   7.229  69.414  1.00  0.00    -0.154 C  
HETATM    5  O   UNL     1     -11.661  10.795  70.762  1.00  0.00    -0.328 OA 
HETATM    6  CA  UNL     1     -10.291   8.095  70.001  1.00  0.00    -0.215 C  
HETATM    7  CA  UNL     1     -10.741  11.058  68.373  1.00  0.00    -0.203 C  
HETATM    8  N   UNL     1     -10.644   9.246  69.375  1.00  0.00    -0.222 N  
HETATM    9  C   UNL     1     -10.792   7.808  71.390  1.00  0.00    -0.228 C  
HETATM   10  OXT UNL     1     -10.938   6.667  71.806  1.00  0.00    -0.228 OA 
HETATM   11  C   UNL     1     -11.227  10.418  69.714  1.00  0.00    -0.293 C  
HETATM   12  O   UNL     1     -11.091   8.850  72.180  1.00  0.00    -0.362 OA 
ENDROOT
BRANCH   4  13
HETATM   13  C   UNL     1      -8.784   6.044  70.148  1.00  0.00    -0.139 C  
BRANCH  13  14
HETATM   14  S   UNL     1      -9.579   4.513  69.584  1.00  0.00    -0.213 SA 
BRANCH  14  15
HETATM   15  C   UNL     1      -8.372   3.873  68.536  1.00  0.00    -0.082 A  
HETATM   16  N   UNL     1      -7.122   3.603  68.832  1.00  0.00    -0.049 NA 
HETATM   17  C   UNL     1      -9.759   3.805  66.421  1.00  0.00    -0.122 C  
HETATM   18  N   UNL     1      -6.525   3.265  67.635  1.00  0.00    -0.036 NA 
HETATM   19  N   UNL     1      -8.560   3.677  67.202  1.00  0.00    -0.104 NA 
HETATM   20  N   UNL     1      -7.395   3.313  66.634  1.00  0.00    -0.073 NA 
ENDBRANCH  14  15
ENDBRANCH  13  14
ENDBRANCH   4  13
BRANCH   7  21
HETATM   21  N   UNL     1      -9.687  12.135  68.665  1.00  0.00    -0.380 N  
HETATM   22  H   UNL     1      -8.778  11.731  68.890  1.00  0.00     0.000 HD 
HETATM   23  O   UNL     1      -8.589  14.093  68.946  1.00  0.00    -0.110 OA 
HETATM   24  C   UNL     1      -9.665  13.545  68.698  1.00  0.00    -0.101 C  
BRANCH  24  25
HETATM   25  C   UNL     1     -10.916  14.421  68.652  1.00  0.00    -0.250 C  
BRANCH  25  26
HETATM   26  C   UNL     1     -11.697  14.738  69.872  1.00  0.00    -0.306 A  
HETATM   27  H2  UNL     1     -12.276  16.548  73.685  1.00  0.00     0.000 HD 
HETATM   28  H1  UNL     1     -11.350  17.569  72.586  1.00  0.00     0.000 HD 
HETATM   29  C   UNL     1     -12.503  13.811  70.526  1.00  0.00    -0.339 A  
HETATM   30  N   UNL     1     -11.518  15.910  70.600  1.00  0.00    -0.372 NA 
HETATM   31  N   UNL     1     -11.874  16.711  72.761  1.00  0.00    -0.418 NA 
HETATM   32  S   UNL     1     -12.921  14.358  72.091  1.00  0.00    -0.375 SA 
HETATM   33  C   UNL     1     -12.043  15.796  71.798  1.00  0.00    -0.464 A  
ENDBRANCH  25  26
BRANCH  25  34
HETATM   34  N   UNL     1     -11.559  14.797  67.579  1.00  0.00    -0.358 NA 
HETATM   35  H   UNL     1     -11.465  15.774  67.299  1.00  0.00     0.000 HD 
BRANCH  34  36
HETATM   36  O   UNL     1     -12.366  13.977  66.779  1.00  0.00    -0.439 OA 
HETATM   37  C   UNL     1     -12.449  14.213  65.398  1.00  0.00    -0.472 C  
ENDBRANCH  34  36
ENDBRANCH  25  34
ENDBRANCH  24  25
ENDBRANCH   7  21
TORSDOF 8
ENDMDL
MODEL      140
REMARK 921   NORMALIZED FREE ENERGY PREDICTED BY IDOCK:   -5.37 KCAL/MOL
REMARK 922        TOTAL FREE ENERGY PREDICTED BY IDOCK:   -9.04 KCAL/MOL
REMARK 923 INTER-LIGAND FREE ENERGY PREDICTED BY IDOCK:   -7.75 KCAL/MOL
REMARK 924 INTRA-LIGAND FREE ENERGY PREDICTED BY IDOCK:   -1.29 KCAL/MOL
REMARK 927      BINDING AFFINITY PREDICTED BY RF-SCORE:    0.00 PKD
ROOT
HETATM    1  C   UNL     1     -10.513  12.891  65.906  1.00  0.00    -0.279 C  
HETATM    2  S   UNL     1     -12.165  13.507  66.073  1.00  0.00    -0.438 SA 
HETATM    3  C   UNL     1     -12.125  14.385  67.656  1.00  0.00    -0.277 C  
HETATM    4  C   UNL     1     -10.797  14.554  68.358  1.00  0.00    -0.250 C  
HETATM    5  O   UNL     1      -7.753  11.643  67.024  1.00  0.00    -0.148 OA 
HETATM    6  CA  UNL     1      -9.651  13.910  68.028  1.00  0.00    -0.219 C  
HETATM    7  CA  UNL     1      -9.978  11.387  65.757  1.00  0.00    -0.230 C  
HETATM    8  N   UNL     1      -9.642  12.979  67.040  1.00  0.00    -0.229 N  
HETATM    9  C   UNL     1      -8.401  14.178  68.821  1.00  0.00    -0.069 C  
HETATM   10  OXT UNL     1      -8.181  15.263  69.342  1.00  0.00    -0.227 OA 
HETATM   11  C   UNL     1      -8.821  11.991  66.618  1.00  0.00    -0.191 C  
HETATM   12  O   UNL     1      -7.506  13.185  68.943  1.00  0.00    -0.084 OA 
ENDROOT
BRANCH   4  13
HETATM   13  C   UNL     1     -10.952  15.423  69.615  1.00  0.00    -0.284 C  
BRANCH  13  14
HETATM   14  S   UNL     1     -12.707  15.463  70.077  1.00  0.00    -0.037 SA 
BRANCH  14  15
HETATM   15  C   UNL     1     -12.600  15.602  71.790  1.00  0.00    -0.442 A  
HETATM   16  N   UNL     1     -12.031  16.565  72.477  1.00  0.00    -0.478 NA 
HETATM   17  C   UNL     1     -13.712  13.407  72.380  1.00  0.00    -0.597 C  
HETATM   18  N   UNL     1     -12.067  16.151  73.792  1.00  0.00    -0.447 NA 
HETATM   19  N   UNL     1     -13.010  14.631  72.652  1.00  0.00    -0.410 NA 
HETATM   20  N   UNL     1     -12.659  14.968  73.907  1.00  0.00    -0.531 NA 
ENDBRANCH  14  15
ENDBRANCH  13  14
ENDBRANCH   4  13
BRANCH   7  21
HETATM   21  N   UNL     1     -10.402  10.031  66.338  1.00  0.00    -0.209 N  
HETATM   22  H   UNL     1     -11.193  10.117  66.975  1.00  0.00     0.000 HD 
HETATM   23  O   UNL     1     -10.594   7.829  66.822  1.00  0.00    -0.331 OA 
HETATM   24  C   UNL     1      -9.967   8.695  66.208  1.00  0.00    -0.217 C  
BRANCH  24  25
HETATM   25  C   UNL     1      -8.662   8.283  65.529  1.00  0.00    -0.140 C  
BRANCH  25  26
HETATM   26  C   UNL     1      -7.523   7.721  66.295  1.00  0.00    -0.079 A  
HETATM   27  H2  UNL     1      -4.231   7.959  68.989  1.00  0.00     0.000 HD 
HETATM   28  H1  UNL     1      -5.576   8.990  69.473  1.00  0.00     0.000 HD 
HETATM   29  C   UNL     1      -6.636   6.785  65.771  1.00  0.00    -0.051 A  
HETATM   30  N   UNL     1      -7.103   8.242  67.515  1.00  0.00    -0.082 NA 
HETATM   31  N   UNL     1      -5.182   8.297  68.837  1.00  0.00    -0.031 NA 
HETATM   32  S   UNL     1      -5.232   6.662  66.738  1.00  0.00    -0.013 SA 
HETATM   33  C   UNL     1      -5.892   7.823  67.805  1.00  0.00    -0.040 A  
ENDBRANCH  25  26
BRANCH  25  34
HETATM   34  N   UNL     1      -8.305   8.561  64.304  1.00  0.00    -0.295 NA 
HETATM   35  H   UNL     1      -7.489   8.072  63.935  1.00  0.00     0.000 HD 
BRANCH  34  36
HETATM   36  O   UNL     1      -8.943   9.472  63.452  1.00  0.00    -0.235 OA 
HETATM   37  C   UNL     1      -8.180  10.390  62.715  1.00  0.00    -0.160 C  
ENDBRANCH  34  36
ENDBRANCH  25  34
ENDBRANCH  24  25
ENDBRANCH   7  21
TORSDOF 8
ENDMDL
MODEL      141
REMARK 921   NORMALIZED FREE ENERGY PREDICTED BY IDOCK:   -5.36 KCAL/MOL
REMARK 922        TOTAL FREE ENERGY PREDICTED BY IDOCK:   -9.03 KCAL/MOL
REMARK 923 INTER-LIGAND FREE ENERGY PREDICTED BY IDOCK:   -7.62 KCAL/MOL
REMARK 924 INTRA-LIGAND FREE ENERGY PREDICTED BY IDOCK:   -1.42 KCAL/MOL
REMARK 927      BINDING AFFINITY PREDICTED BY RF-SCORE:    0.00 PKD
ROOT
HETATM    1  C   UNL     1      -9.148  10.272  69.204  1.00  0.00    -0.191 C  
HETATM    2  S   UNL     1      -8.101  10.815  67.882  1.00  0.00    -0.114 SA 
HETATM    3  C   UNL     1      -8.872  12.365  67.351  1.00  0.00    -0.188 C  
HETATM    4  C   UNL     1     -10.020  12.920  68.162  1.00  0.00    -0.234 C  
HETATM    5  O   UNL     1     -11.993   9.869  70.677  1.00  0.00    -0.271 OA 
HETATM    6  CA  UNL     1     -10.688  12.248  69.132  1.00  0.00    -0.043 C  
HETATM    7  CA  UNL     1      -9.992   8.918  69.368  1.00  0.00    -0.192 C  
HETATM    8  N   UNL     1     -10.393  10.951  69.401  1.00  0.00    -0.188 N  
HETATM    9  C   UNL     1     -11.816  12.930  69.857  1.00  0.00    -0.303 C  
HETATM   10  OXT UNL     1     -11.832  14.139  70.045  1.00  0.00    -0.286 OA 
HETATM   11  C   UNL     1     -10.971   9.922  70.061  1.00  0.00    -0.291 C  
HETATM   12  O   UNL     1     -12.824  12.171  70.312  1.00  0.00     0.104 OA 
ENDROOT
BRANCH   4  13
HETATM   13  C   UNL     1     -10.455  14.291  67.624  1.00  0.00    -0.248 C  
BRANCH  13  14
HETATM   14  S   UNL     1      -9.568  14.612  66.074  1.00  0.00    -0.255 SA 
BRANCH  14  15
HETATM   15  C   UNL     1     -10.865  14.636  64.943  1.00  0.00    -0.419 A  
HETATM   16  N   UNL     1     -11.750  15.589  64.765  1.00  0.00    -0.250 NA 
HETATM   17  C   UNL     1     -10.518  12.323  63.976  1.00  0.00    -0.399 C  
HETATM   18  N   UNL     1     -12.666  15.080  63.868  1.00  0.00    -0.654 NA 
HETATM   19  N   UNL     1     -11.199  13.575  64.155  1.00  0.00    -0.360 NA 
HETATM   20  N   UNL     1     -12.339  13.848  63.495  1.00  0.00    -0.765 NA 
ENDBRANCH  14  15
ENDBRANCH  13  14
ENDBRANCH   4  13
BRANCH   7  21
HETATM   21  N   UNL     1     -10.774   8.014  68.405  1.00  0.00    -0.412 N  
HETATM   22  H   UNL     1     -11.771   8.232  68.398  1.00  0.00     0.000 HD 
HETATM   23  O   UNL     1     -11.371   6.472  66.861  1.00  0.00    -0.330 OA 
HETATM   24  C   UNL     1     -10.455   6.956  67.528  1.00  0.00    -0.247 C  
BRANCH  24  25
HETATM   25  C   UNL     1      -9.104   6.243  67.504  1.00  0.00    -0.110 C  
BRANCH  25  26
HETATM   26  C   UNL     1      -8.324   6.083  66.253  1.00  0.00    -0.122 A  
HETATM   27  H2  UNL     1      -7.470   6.843  62.149  1.00  0.00     0.000 HD 
HETATM   28  H1  UNL     1      -8.050   8.276  62.995  1.00  0.00     0.000 HD 
HETATM   29  C   UNL     1      -7.816   4.862  65.820  1.00  0.00    -0.095 A  
HETATM   30  N   UNL     1      -8.226   7.083  65.291  1.00  0.00    -0.137 NA 
HETATM   31  N   UNL     1      -7.774   7.295  63.012  1.00  0.00    -0.119 NA 
HETATM   32  S   UNL     1      -7.342   4.942  64.179  1.00  0.00    -0.056 SA 
HETATM   33  C   UNL     1      -7.804   6.588  64.150  1.00  0.00    -0.111 A  
ENDBRANCH  25  26
BRANCH  25  34
HETATM   34  N   UNL     1      -8.590   5.525  68.466  1.00  0.00    -0.103 NA 
HETATM   35  H   UNL     1      -7.936   4.789  68.199  1.00  0.00     0.000 HD 
BRANCH  34  36
HETATM   36  O   UNL     1      -8.859   5.677  69.833  1.00  0.00    -0.126 OA 
HETATM   37  C   UNL     1      -7.821   6.021  70.714  1.00  0.00    -0.103 C  
ENDBRANCH  34  36
ENDBRANCH  25  34
ENDBRANCH  24  25
ENDBRANCH   7  21
TORSDOF 8
ENDMDL
MODEL      142
REMARK 921   NORMALIZED FREE ENERGY PREDICTED BY IDOCK:   -5.36 KCAL/MOL
REMARK 922        TOTAL FREE ENERGY PREDICTED BY IDOCK:   -9.03 KCAL/MOL
REMARK 923 INTER-LIGAND FREE ENERGY PREDICTED BY IDOCK:   -7.05 KCAL/MOL
REMARK 924 INTRA-LIGAND FREE ENERGY PREDICTED BY IDOCK:   -1.98 KCAL/MOL
REMARK 927      BINDING AFFINITY PREDICTED BY RF-SCORE:    0.00 PKD
ROOT
HETATM    1  C   UNL     1     -11.212   9.767  70.949  1.00  0.00    -0.359 C  
HETATM    2  S   UNL     1     -12.719   8.913  71.321  1.00  0.00    -0.195 SA 
HETATM    3  C   UNL     1     -12.186   7.599  72.448  1.00  0.00    -0.167 C  
HETATM    4  C   UNL     1     -10.756   7.598  72.935  1.00  0.00    -0.428 C  
HETATM    5  O   UNL     1      -8.044   9.938  70.349  1.00  0.00    -0.187 OA 
HETATM    6  CA  UNL     1      -9.757   8.362  72.430  1.00  0.00    -0.306 C  
HETATM    7  CA  UNL     1     -10.487  10.023  69.542  1.00  0.00    -0.240 C  
HETATM    8  N   UNL     1      -9.978   9.167  71.360  1.00  0.00    -0.314 N  
HETATM    9  C   UNL     1      -8.376   8.252  73.017  1.00  0.00    -0.181 C  
HETATM   10  OXT UNL     1      -8.190   7.978  74.195  1.00  0.00    -0.226 OA 
HETATM   11  C   UNL     1      -9.230   9.836  70.454  1.00  0.00    -0.111 C  
HETATM   12  O   UNL     1      -7.328   8.473  72.209  1.00  0.00    -0.166 OA 
ENDROOT
BRANCH   4  13
HETATM   13  C   UNL     1     -10.534   6.483  73.968  1.00  0.00    -0.285 C  
BRANCH  13  14
HETATM   14  S   UNL     1     -10.772   4.880  73.149  1.00  0.00    -0.280 SA 
BRANCH  14  15
HETATM   15  C   UNL     1      -9.266   4.692  72.336  1.00  0.00    -0.125 A  
HETATM   16  N   UNL     1      -8.128   4.287  72.850  1.00  0.00    -0.089 NA 
HETATM   17  C   UNL     1      -9.995   5.538  70.066  1.00  0.00    -0.218 C  
HETATM   18  N   UNL     1      -7.192   4.452  71.851  1.00  0.00    -0.061 NA 
HETATM   19  N   UNL     1      -9.055   5.066  71.043  1.00  0.00    -0.137 NA 
HETATM   20  N   UNL     1      -7.749   4.933  70.745  1.00  0.00    -0.069 NA 
ENDBRANCH  14  15
ENDBRANCH  13  14
ENDBRANCH   4  13
BRANCH   7  21
HETATM   21  N   UNL     1     -10.317   9.206  68.254  1.00  0.00    -0.207 N  
HETATM   22  H   UNL     1     -10.195   8.211  68.443  1.00  0.00     0.000 HD 
HETATM   23  O   UNL     1     -10.165   8.542  66.097  1.00  0.00    -0.173 OA 
HETATM   24  C   UNL     1     -10.288   9.491  66.872  1.00  0.00    -0.237 C  
BRANCH  24  25
HETATM   25  C   UNL     1     -10.194  10.902  66.293  1.00  0.00    -0.247 C  
BRANCH  25  26
HETATM   26  C   UNL     1      -9.099  11.830  66.664  1.00  0.00    -0.194 A  
HETATM   27  H2  UNL     1      -5.697  13.026  68.933  1.00  0.00     0.000 HD 
HETATM   28  H1  UNL     1      -5.703  11.299  68.584  1.00  0.00     0.000 HD 
HETATM   29  C   UNL     1      -9.261  13.210  66.746  1.00  0.00    -0.230 A  
HETATM   30  N   UNL     1      -7.884  11.396  67.184  1.00  0.00    -0.148 NA 
HETATM   31  N   UNL     1      -6.128  12.220  68.480  1.00  0.00    -0.053 NA 
HETATM   32  S   UNL     1      -7.957  13.932  67.584  1.00  0.00    -0.189 SA 
HETATM   33  C   UNL     1      -7.244  12.389  67.758  1.00  0.00    -0.119 A  
ENDBRANCH  25  26
BRANCH  25  34
HETATM   34  N   UNL     1     -11.121  11.525  65.616  1.00  0.00    -0.246 NA 
HETATM   35  H   UNL     1     -11.830  12.027  66.152  1.00  0.00     0.000 HD 
BRANCH  34  36
HETATM   36  O   UNL     1     -11.229  11.564  64.220  1.00  0.00    -0.338 OA 
HETATM   37  C   UNL     1     -12.420  12.008  63.624  1.00  0.00    -0.525 C  
ENDBRANCH  34  36
ENDBRANCH  25  34
ENDBRANCH  24  25
ENDBRANCH   7  21
TORSDOF 8
ENDMDL
MODEL      143
REMARK 921   NORMALIZED FREE ENERGY PREDICTED BY IDOCK:   -5.35 KCAL/MOL
REMARK 922        TOTAL FREE ENERGY PREDICTED BY IDOCK:   -9.01 KCAL/MOL
REMARK 923 INTER-LIGAND FREE ENERGY PREDICTED BY IDOCK:   -8.23 KCAL/MOL
REMARK 924 INTRA-LIGAND FREE ENERGY PREDICTED BY IDOCK:   -0.78 KCAL/MOL
REMARK 927      BINDING AFFINITY PREDICTED BY RF-SCORE:    0.00 PKD
ROOT
HETATM    1  C   UNL     1     -10.753  10.844  67.315  1.00  0.00    -0.268 C  
HETATM    2  S   UNL     1     -11.580  12.141  66.436  1.00  0.00    -0.312 SA 
HETATM    3  C   UNL     1     -10.456  13.549  66.616  1.00  0.00    -0.274 C  
HETATM    4  C   UNL     1      -9.105  13.322  67.253  1.00  0.00    -0.221 C  
HETATM    5  O   UNL     1      -8.948   9.656  69.714  1.00  0.00    -0.178 OA 
HETATM    6  CA  UNL     1      -8.732  12.200  67.917  1.00  0.00    -0.176 C  
HETATM    7  CA  UNL     1     -11.233   9.977  68.576  1.00  0.00    -0.123 C  
HETATM    8  N   UNL     1      -9.617  11.191  68.116  1.00  0.00    -0.173 N  
HETATM    9  C   UNL     1      -7.350  12.116  68.504  1.00  0.00    -0.105 C  
HETATM   10  OXT UNL     1      -6.392  12.685  67.997  1.00  0.00    -0.071 OA 
HETATM   11  C   UNL     1      -9.710  10.097  68.906  1.00  0.00    -0.187 C  
HETATM   12  O   UNL     1      -7.178  11.382  69.614  1.00  0.00    -0.052 OA 
ENDROOT
BRANCH   4  13
HETATM   13  C   UNL     1      -8.258  14.602  67.206  1.00  0.00    -0.212 C  
BRANCH  13  14
HETATM   14  S   UNL     1      -8.282  15.372  68.849  1.00  0.00    -0.210 SA 
BRANCH  14  15
HETATM   15  C   UNL     1      -9.973  15.448  69.160  1.00  0.00    -0.241 A  
HETATM   16  N   UNL     1     -10.701  14.581  69.824  1.00  0.00    -0.116 NA 
HETATM   17  C   UNL     1     -10.464  17.565  67.863  1.00  0.00    -0.384 C  
HETATM   18  N   UNL     1     -12.007  14.997  69.666  1.00  0.00    -0.313 NA 
HETATM   19  N   UNL     1     -10.795  16.397  68.631  1.00  0.00    -0.313 NA 
HETATM   20  N   UNL     1     -12.073  16.103  68.934  1.00  0.00    -0.065 NA 
ENDBRANCH  14  15
ENDBRANCH  13  14
ENDBRANCH   4  13
BRANCH   7  21
HETATM   21  N   UNL     1     -12.061  10.273  69.834  1.00  0.00    -0.476 N  
HETATM   22  H   UNL     1     -12.317  11.258  69.902  1.00  0.00     0.000 HD 
HETATM   23  O   UNL     1     -13.239  10.109  71.758  1.00  0.00    -0.409 OA 
HETATM   24  C   UNL     1     -12.555   9.519  70.919  1.00  0.00    -0.177 C  
BRANCH  24  25
HETATM   25  C   UNL     1     -12.132   8.084  71.227  1.00  0.00    -0.291 C  
BRANCH  25  26
HETATM   26  C   UNL     1     -11.168   7.765  72.307  1.00  0.00    -0.312 A  
HETATM   27  H2  UNL     1      -7.314   7.768  74.124  1.00  0.00     0.000 HD 
HETATM   28  H1  UNL     1      -7.653   9.265  73.258  1.00  0.00     0.000 HD 
HETATM   29  C   UNL     1     -11.153   6.550  72.985  1.00  0.00    -0.198 A  
HETATM   30  N   UNL     1     -10.053   8.552  72.582  1.00  0.00    -0.252 NA 
HETATM   31  N   UNL     1      -7.957   8.347  73.583  1.00  0.00    -0.367 NA 
HETATM   32  S   UNL     1      -9.694   6.350  73.854  1.00  0.00    -0.241 SA 
HETATM   33  C   UNL     1      -9.186   7.889  73.311  1.00  0.00    -0.282 A  
ENDBRANCH  25  26
BRANCH  25  34
HETATM   34  N   UNL     1     -12.363   7.033  70.487  1.00  0.00    -0.614 NA 
HETATM   35  H   UNL     1     -13.339   6.788  70.318  1.00  0.00     0.000 HD 
BRANCH  34  36
HETATM   36  O   UNL     1     -11.388   6.211  69.905  1.00  0.00    -0.405 OA 
HETATM   37  C   UNL     1     -11.194   6.236  68.515  1.00  0.00    -0.209 C  
ENDBRANCH  34  36
ENDBRANCH  25  34
ENDBRANCH  24  25
ENDBRANCH   7  21
TORSDOF 8
ENDMDL
MODEL      144
REMARK 921   NORMALIZED FREE ENERGY PREDICTED BY IDOCK:   -5.34 KCAL/MOL
REMARK 922        TOTAL FREE ENERGY PREDICTED BY IDOCK:   -8.99 KCAL/MOL
REMARK 923 INTER-LIGAND FREE ENERGY PREDICTED BY IDOCK:   -7.30 KCAL/MOL
REMARK 924 INTRA-LIGAND FREE ENERGY PREDICTED BY IDOCK:   -1.69 KCAL/MOL
REMARK 927      BINDING AFFINITY PREDICTED BY RF-SCORE:    0.00 PKD
ROOT
HETATM    1  C   UNL     1      -7.166   9.856  66.216  1.00  0.00    -0.102 C  
HETATM    2  S   UNL     1      -5.705   9.157  66.936  1.00  0.00    -0.045 SA 
HETATM    3  C   UNL     1      -6.329   7.706  67.820  1.00  0.00    -0.050 C  
HETATM    4  C   UNL     1      -7.779   7.318  67.644  1.00  0.00    -0.112 C  
HETATM    5  O   UNL     1     -10.297  10.644  66.189  1.00  0.00    -0.245 OA 
HETATM    6  CA  UNL     1      -8.730   8.088  67.060  1.00  0.00    -0.128 C  
HETATM    7  CA  UNL     1      -7.819  11.308  66.403  1.00  0.00    -0.109 C  
HETATM    8  N   UNL     1      -8.435   9.343  66.636  1.00  0.00    -0.125 N  
HETATM    9  C   UNL     1     -10.138   7.569  66.958  1.00  0.00    -0.261 C  
HETATM   10  OXT UNL     1     -10.385   6.376  66.845  1.00  0.00    -0.198 OA 
HETATM   11  C   UNL     1      -9.120  10.450  66.272  1.00  0.00    -0.158 C  
HETATM   12  O   UNL     1     -11.142   8.459  66.983  1.00  0.00     0.051 OA 
ENDROOT
BRANCH   4  13
HETATM   13  C   UNL     1      -8.083   6.001  68.375  1.00  0.00    -0.107 C  
BRANCH  13  14
HETATM   14  S   UNL     1      -8.037   6.309  70.163  1.00  0.00    -0.118 SA 
BRANCH  14  15
HETATM   15  C   UNL     1      -9.711   6.504  70.514  1.00  0.00    -0.172 A  
HETATM   16  N   UNL     1     -10.689   5.680  70.218  1.00  0.00    -0.302 NA 
HETATM   17  C   UNL     1      -9.574   8.800  71.568  1.00  0.00    -0.284 C  
HETATM   18  N   UNL     1     -11.848   6.343  70.561  1.00  0.00    -0.331 NA 
HETATM   19  N   UNL     1     -10.241   7.636  71.057  1.00  0.00    -0.194 NA 
HETATM   20  N   UNL     1     -11.583   7.541  71.069  1.00  0.00    -0.279 NA 
ENDBRANCH  14  15
ENDBRANCH  13  14
ENDBRANCH   4  13
BRANCH   7  21
HETATM   21  N   UNL     1      -7.958  12.283  67.580  1.00  0.00    -0.155 N  
HETATM   22  H   UNL     1      -7.690  11.856  68.466  1.00  0.00     0.000 HD 
HETATM   23  O   UNL     1      -8.311  14.107  68.871  1.00  0.00    -0.111 OA 
HETATM   24  C   UNL     1      -8.365  13.625  67.738  1.00  0.00    -0.181 C  
BRANCH  24  25
HETATM   25  C   UNL     1      -9.054  14.444  66.648  1.00  0.00    -0.240 C  
BRANCH  25  26
HETATM   26  C   UNL     1     -10.355  14.036  66.065  1.00  0.00    -0.306 A  
HETATM   27  H2  UNL     1     -13.301  13.909  62.990  1.00  0.00     0.000 HD 
HETATM   28  H1  UNL     1     -11.659  13.845  62.354  1.00  0.00     0.000 HD 
HETATM   29  C   UNL     1     -11.544  14.015  66.787  1.00  0.00    -0.386 A  
HETATM   30  N   UNL     1     -10.548  13.861  64.698  1.00  0.00    -0.425 NA 
HETATM   31  N   UNL     1     -12.294  13.872  63.151  1.00  0.00    -0.596 NA 
HETATM   32  S   UNL     1     -12.894  13.906  65.744  1.00  0.00    -0.232 SA 
HETATM   33  C   UNL     1     -11.829  13.860  64.407  1.00  0.00    -0.429 A  
ENDBRANCH  25  26
BRANCH  25  34
HETATM   34  N   UNL     1      -8.525  15.421  65.962  1.00  0.00    -0.236 NA 
HETATM   35  H   UNL     1      -7.651  15.227  65.473  1.00  0.00     0.000 HD 
BRANCH  34  36
HETATM   36  O   UNL     1      -9.052  16.714  65.840  1.00  0.00    -0.480 OA 
HETATM   37  C   UNL     1      -8.495  17.767  66.582  1.00  0.00    -0.258 C  
ENDBRANCH  34  36
ENDBRANCH  25  34
ENDBRANCH  24  25
ENDBRANCH   7  21
TORSDOF 8
ENDMDL
MODEL      145
REMARK 921   NORMALIZED FREE ENERGY PREDICTED BY IDOCK:   -5.32 KCAL/MOL
REMARK 922        TOTAL FREE ENERGY PREDICTED BY IDOCK:   -8.97 KCAL/MOL
REMARK 923 INTER-LIGAND FREE ENERGY PREDICTED BY IDOCK:   -7.34 KCAL/MOL
REMARK 924 INTRA-LIGAND FREE ENERGY PREDICTED BY IDOCK:   -1.64 KCAL/MOL
REMARK 927      BINDING AFFINITY PREDICTED BY RF-SCORE:    0.00 PKD
ROOT
HETATM    1  C   UNL     1      -8.507   8.611  69.106  1.00  0.00    -0.124 C  
HETATM    2  S   UNL     1      -7.496   9.503  70.256  1.00  0.00    -0.155 SA 
HETATM    3  C   UNL     1      -7.228   8.306  71.589  1.00  0.00    -0.088 C  
HETATM    4  C   UNL     1      -7.711   6.888  71.398  1.00  0.00    -0.092 C  
HETATM    5  O   UNL     1     -10.837   6.528  68.295  1.00  0.00    -0.249 OA 
HETATM    6  CA  UNL     1      -8.538   6.470  70.408  1.00  0.00    -0.146 C  
HETATM    7  CA  UNL     1      -9.973   8.939  68.544  1.00  0.00    -0.177 C  
HETATM    8  N   UNL     1      -9.059   7.358  69.524  1.00  0.00    -0.144 N  
HETATM    9  C   UNL     1      -8.939   5.021  70.345  1.00  0.00    -0.124 C  
HETATM   10  OXT UNL     1      -8.202   4.125  70.732  1.00  0.00    -0.068 OA 
HETATM   11  C   UNL     1     -10.064   7.380  68.620  1.00  0.00    -0.179 C  
HETATM   12  O   UNL     1     -10.144   4.721  69.837  1.00  0.00    -0.235 OA 
ENDROOT
BRANCH   4  13
HETATM   13  C   UNL     1      -7.286   6.004  72.579  1.00  0.00    -0.090 C  
BRANCH  13  14
HETATM   14  S   UNL     1      -8.257   6.480  74.037  1.00  0.00    -0.121 SA 
BRANCH  14  15
HETATM   15  C   UNL     1      -9.752   5.688  73.719  1.00  0.00    -0.157 A  
HETATM   16  N   UNL     1     -10.022   4.411  73.858  1.00  0.00    -0.140 NA 
HETATM   17  C   UNL     1     -11.023   7.694  72.846  1.00  0.00    -0.400 C  
HETATM   18  N   UNL     1     -11.287   4.242  73.334  1.00  0.00    -0.275 NA 
HETATM   19  N   UNL     1     -10.828   6.305  73.156  1.00  0.00    -0.260 NA 
HETATM   20  N   UNL     1     -11.784   5.394  72.898  1.00  0.00    -0.248 NA 
ENDBRANCH  14  15
ENDBRANCH  13  14
ENDBRANCH   4  13
BRANCH   7  21
HETATM   21  N   UNL     1     -11.241   9.562  69.143  1.00  0.00    -0.447 N  
HETATM   22  H   UNL     1     -11.755   8.902  69.726  1.00  0.00     0.000 HD 
HETATM   23  O   UNL     1     -12.898  10.977  69.751  1.00  0.00    -0.133 OA 
HETATM   24  C   UNL     1     -11.871  10.824  69.087  1.00  0.00    -0.275 C  
BRANCH  24  25
HETATM   25  C   UNL     1     -11.483  11.931  68.109  1.00  0.00    -0.320 C  
BRANCH  25  26
HETATM   26  C   UNL     1     -10.697  13.114  68.535  1.00  0.00    -0.259 A  
HETATM   27  H2  UNL     1     -10.191  17.238  69.477  1.00  0.00     0.000 HD 
HETATM   28  H1  UNL     1     -11.748  16.609  70.011  1.00  0.00     0.000 HD 
HETATM   29  C   UNL     1      -9.397  13.364  68.104  1.00  0.00    -0.217 A  
HETATM   30  N   UNL     1     -11.260  14.191  69.213  1.00  0.00    -0.263 NA 
HETATM   31  N   UNL     1     -10.836  16.454  69.583  1.00  0.00    -0.338 NA 
HETATM   32  S   UNL     1      -8.941  14.978  68.436  1.00  0.00    -0.186 SA 
HETATM   33  C   UNL     1     -10.470  15.238  69.155  1.00  0.00    -0.247 A  
ENDBRANCH  25  26
BRANCH  25  34
HETATM   34  N   UNL     1     -11.949  12.095  66.900  1.00  0.00    -0.609 NA 
HETATM   35  H   UNL     1     -12.950  12.271  66.807  1.00  0.00     0.000 HD 
BRANCH  34  36
HETATM   36  O   UNL     1     -11.197  12.050  65.719  1.00  0.00    -0.318 OA 
HETATM   37  C   UNL     1     -10.373  10.943  65.459  1.00  0.00    -0.252 C  
ENDBRANCH  34  36
ENDBRANCH  25  34
ENDBRANCH  24  25
ENDBRANCH   7  21
TORSDOF 8
ENDMDL
MODEL      146
REMARK 921   NORMALIZED FREE ENERGY PREDICTED BY IDOCK:   -5.31 KCAL/MOL
REMARK 922        TOTAL FREE ENERGY PREDICTED BY IDOCK:   -8.96 KCAL/MOL
REMARK 923 INTER-LIGAND FREE ENERGY PREDICTED BY IDOCK:   -7.95 KCAL/MOL
REMARK 924 INTRA-LIGAND FREE ENERGY PREDICTED BY IDOCK:   -1.01 KCAL/MOL
REMARK 927      BINDING AFFINITY PREDICTED BY RF-SCORE:    0.00 PKD
ROOT
HETATM    1  C   UNL     1     -10.593   9.334  67.947  1.00  0.00    -0.231 C  
HETATM    2  S   UNL     1      -9.528   8.956  66.582  1.00  0.00    -0.222 SA 
HETATM    3  C   UNL     1      -8.340   7.788  67.291  1.00  0.00    -0.118 C  
HETATM    4  C   UNL     1      -8.569   7.285  68.696  1.00  0.00    -0.128 C  
HETATM    5  O   UNL     1     -11.230   9.902  71.061  1.00  0.00    -0.340 OA 
HETATM    6  CA  UNL     1      -9.464   7.798  69.575  1.00  0.00    -0.160 C  
HETATM    7  CA  UNL     1     -10.921  10.738  68.647  1.00  0.00    -0.239 C  
HETATM    8  N   UNL     1     -10.199   8.893  69.251  1.00  0.00    -0.204 N  
HETATM    9  C   UNL     1      -9.580   7.193  70.947  1.00  0.00    -0.167 C  
HETATM   10  OXT UNL     1      -9.367   6.006  71.155  1.00  0.00    -0.158 OA 
HETATM   11  C   UNL     1     -10.952   9.807  69.902  1.00  0.00    -0.264 C  
HETATM   12  O   UNL     1      -9.939   7.994  71.963  1.00  0.00    -0.183 OA 
ENDROOT
BRANCH   4  13
HETATM   13  C   UNL     1      -7.527   6.220  69.070  1.00  0.00    -0.091 C  
BRANCH  13  14
HETATM   14  S   UNL     1      -6.881   5.482  67.542  1.00  0.00    -0.062 SA 
BRANCH  14  15
HETATM   15  C   UNL     1      -7.865   4.075  67.407  1.00  0.00    -0.091 A  
HETATM   16  N   UNL     1      -8.086   3.166  68.327  1.00  0.00    -0.068 NA 
HETATM   17  C   UNL     1      -8.519   4.349  64.978  1.00  0.00    -0.124 C  
HETATM   18  N   UNL     1      -8.802   2.170  67.697  1.00  0.00    -0.119 NA 
HETATM   19  N   UNL     1      -8.454   3.676  66.245  1.00  0.00    -0.109 NA 
HETATM   20  N   UNL     1      -9.026   2.471  66.423  1.00  0.00    -0.130 NA 
ENDBRANCH  14  15
ENDBRANCH  13  14
ENDBRANCH   4  13
BRANCH   7  21
HETATM   21  N   UNL     1     -10.108  12.002  68.959  1.00  0.00    -0.416 N  
HETATM   22  H   UNL     1      -9.396  11.835  69.669  1.00  0.00     0.000 HD 
HETATM   23  O   UNL     1      -9.251  14.096  68.973  1.00  0.00    -0.062 OA 
HETATM   24  C   UNL     1     -10.103  13.338  68.505  1.00  0.00    -0.206 C  
BRANCH  24  25
HETATM   25  C   UNL     1     -11.200  13.951  67.637  1.00  0.00    -0.295 C  
BRANCH  25  26
HETATM   26  C   UNL     1     -11.297  13.673  66.183  1.00  0.00    -0.312 A  
HETATM   27  H2  UNL     1     -12.847  11.656  62.766  1.00  0.00     0.000 HD 
HETATM   28  H1  UNL     1     -14.081  11.960  63.987  1.00  0.00     0.000 HD 
HETATM   29  C   UNL     1     -10.192  13.615  65.340  1.00  0.00    -0.313 A  
HETATM   30  N   UNL     1     -12.465  13.220  65.577  1.00  0.00    -0.476 NA 
HETATM   31  N   UNL     1     -13.119  12.060  63.662  1.00  0.00    -0.711 NA 
HETATM   32  S   UNL     1     -10.594  12.880  63.850  1.00  0.00    -0.233 SA 
HETATM   33  C   UNL     1     -12.207  12.713  64.394  1.00  0.00    -0.443 A  
ENDBRANCH  25  26
BRANCH  25  34
HETATM   34  N   UNL     1     -12.010  14.916  67.979  1.00  0.00    -0.537 NA 
HETATM   35  H   UNL     1     -12.768  15.139  67.333  1.00  0.00     0.000 HD 
BRANCH  34  36
HETATM   36  O   UNL     1     -11.931  15.672  69.156  1.00  0.00    -0.368 OA 
HETATM   37  C   UNL     1     -12.469  15.165  70.349  1.00  0.00    -0.368 C  
ENDBRANCH  34  36
ENDBRANCH  25  34
ENDBRANCH  24  25
ENDBRANCH   7  21
TORSDOF 8
ENDMDL
MODEL      147
REMARK 921   NORMALIZED FREE ENERGY PREDICTED BY IDOCK:   -5.30 KCAL/MOL
REMARK 922        TOTAL FREE ENERGY PREDICTED BY IDOCK:   -8.94 KCAL/MOL
REMARK 923 INTER-LIGAND FREE ENERGY PREDICTED BY IDOCK:   -7.63 KCAL/MOL
REMARK 924 INTRA-LIGAND FREE ENERGY PREDICTED BY IDOCK:   -1.30 KCAL/MOL
REMARK 927      BINDING AFFINITY PREDICTED BY RF-SCORE:    0.00 PKD
ROOT
HETATM    1  C   UNL     1     -11.443  10.343  67.994  1.00  0.00    -0.082 C  
HETATM    2  S   UNL     1     -10.328   9.517  66.893  1.00  0.00    -0.216 SA 
HETATM    3  C   UNL     1      -9.650   8.181  67.911  1.00  0.00    -0.155 C  
HETATM    4  C   UNL     1     -10.234   7.950  69.285  1.00  0.00    -0.216 C  
HETATM    5  O   UNL     1     -12.377  11.473  70.871  1.00  0.00    -0.377 OA 
HETATM    6  CA  UNL     1     -11.073   8.796  69.932  1.00  0.00    -0.123 C  
HETATM    7  CA  UNL     1     -11.463  11.866  68.498  1.00  0.00    -0.295 C  
HETATM    8  N   UNL     1     -11.403   9.993  69.382  1.00  0.00    -0.185 N  
HETATM    9  C   UNL     1     -11.573   8.433  71.303  1.00  0.00    -0.283 C  
HETATM   10  OXT UNL     1     -11.743   7.271  71.647  1.00  0.00    -0.262 OA 
HETATM   11  C   UNL     1     -11.957  11.153  69.799  1.00  0.00    -0.357 C  
HETATM   12  O   UNL     1     -11.844   9.429  72.160  1.00  0.00    -0.310 OA 
ENDROOT
BRANCH   4  13
HETATM   13  C   UNL     1      -9.612   6.707  69.938  1.00  0.00    -0.155 C  
BRANCH  13  14
HETATM   14  S   UNL     1      -8.255   6.118  68.886  1.00  0.00    -0.112 SA 
BRANCH  14  15
HETATM   15  C   UNL     1      -6.947   6.097  70.005  1.00  0.00    -0.070 A  
HETATM   16  N   UNL     1      -6.554   5.093  70.753  1.00  0.00    -0.034 NA 
HETATM   17  C   UNL     1      -6.258   8.521  69.770  1.00  0.00    -0.035 C  
HETATM   18  N   UNL     1      -5.582   5.609  71.584  1.00  0.00    -0.020 NA 
HETATM   19  N   UNL     1      -6.219   7.200  70.335  1.00  0.00    -0.034 NA 
HETATM   20  N   UNL     1      -5.375   6.898  71.339  1.00  0.00    -0.027 NA 
ENDBRANCH  14  15
ENDBRANCH  13  14
ENDBRANCH   4  13
BRANCH   7  21
HETATM   21  N   UNL     1     -10.383  12.898  68.850  1.00  0.00    -0.429 N  
HETATM   22  H   UNL     1      -9.985  12.736  69.775  1.00  0.00     0.000 HD 
HETATM   23  O   UNL     1      -8.903  14.608  68.804  1.00  0.00    -0.176 OA 
HETATM   24  C   UNL     1      -9.805  14.015  68.210  1.00  0.00    -0.233 C  
BRANCH  24  25
HETATM   25  C   UNL     1     -10.358  14.651  66.936  1.00  0.00    -0.264 C  
BRANCH  25  26
HETATM   26  C   UNL     1     -10.886  13.834  65.817  1.00  0.00    -0.277 A  
HETATM   27  H2  UNL     1     -10.513  11.512  62.264  1.00  0.00     0.000 HD 
HETATM   28  H1  UNL     1      -9.185  11.241  63.391  1.00  0.00     0.000 HD 
HETATM   29  C   UNL     1     -12.057  14.142  65.131  1.00  0.00    -0.414 A  
HETATM   30  N   UNL     1     -10.146  12.828  65.202  1.00  0.00    -0.260 NA 
HETATM   31  N   UNL     1     -10.073  11.690  63.168  1.00  0.00    -0.402 NA 
HETATM   32  S   UNL     1     -12.159  13.266  63.666  1.00  0.00    -0.420 SA 
HETATM   33  C   UNL     1     -10.671  12.511  64.041  1.00  0.00    -0.415 A  
ENDBRANCH  25  26
BRANCH  25  34
HETATM   34  N   UNL     1     -10.242  15.903  66.582  1.00  0.00    -0.280 NA 
HETATM   35  H   UNL     1     -10.896  16.567  66.999  1.00  0.00     0.000 HD 
BRANCH  34  36
HETATM   36  O   UNL     1      -9.300  16.414  65.680  1.00  0.00    -0.476 OA 
HETATM   37  C   UNL     1      -8.018  16.762  66.134  1.00  0.00    -0.238 C  
ENDBRANCH  34  36
ENDBRANCH  25  34
ENDBRANCH  24  25
ENDBRANCH   7  21
TORSDOF 8
ENDMDL
MODEL      148
REMARK 921   NORMALIZED FREE ENERGY PREDICTED BY IDOCK:   -5.29 KCAL/MOL
REMARK 922        TOTAL FREE ENERGY PREDICTED BY IDOCK:   -8.93 KCAL/MOL
REMARK 923 INTER-LIGAND FREE ENERGY PREDICTED BY IDOCK:   -6.81 KCAL/MOL
REMARK 924 INTRA-LIGAND FREE ENERGY PREDICTED BY IDOCK:   -2.11 KCAL/MOL
REMARK 927      BINDING AFFINITY PREDICTED BY RF-SCORE:    0.00 PKD
ROOT
HETATM    1  C   UNL     1      -9.797   5.349  67.977  1.00  0.00    -0.144 C  
HETATM    2  S   UNL     1     -11.153   6.291  67.336  1.00  0.00    -0.158 SA 
HETATM    3  C   UNL     1     -10.444   7.941  67.108  1.00  0.00    -0.344 C  
HETATM    4  C   UNL     1      -8.959   8.127  67.315  1.00  0.00    -0.149 C  
HETATM    5  O   UNL     1      -7.140   4.930  69.764  1.00  0.00    -0.051 OA 
HETATM    6  CA  UNL     1      -8.128   7.217  67.881  1.00  0.00    -0.119 C  
HETATM    7  CA  UNL     1      -9.653   4.548  69.358  1.00  0.00    -0.194 C  
HETATM    8  N   UNL     1      -8.618   6.054  68.381  1.00  0.00    -0.112 N  
HETATM    9  C   UNL     1      -6.667   7.542  68.025  1.00  0.00    -0.059 C  
HETATM   10  OXT UNL     1      -6.079   8.262  67.228  1.00  0.00    -0.052 OA 
HETATM   11  C   UNL     1      -8.188   5.073  69.207  1.00  0.00    -0.083 C  
HETATM   12  O   UNL     1      -6.000   7.009  69.061  1.00  0.00    -0.021 OA 
ENDROOT
BRANCH   4  13
HETATM   13  C   UNL     1      -8.534   9.559  66.960  1.00  0.00    -0.128 C  
BRANCH  13  14
HETATM   14  S   UNL     1      -9.306  10.018  65.383  1.00  0.00    -0.251 SA 
BRANCH  14  15
HETATM   15  C   UNL     1     -10.506  11.135  65.909  1.00  0.00    -0.253 A  
HETATM   16  N   UNL     1     -10.891  11.369  67.141  1.00  0.00    -0.253 NA 
HETATM   17  C   UNL     1     -11.245  11.941  63.627  1.00  0.00    -0.441 C  
HETATM   18  N   UNL     1     -11.972  12.219  67.036  1.00  0.00    -0.590 NA 
HETATM   19  N   UNL     1     -11.301  11.843  65.059  1.00  0.00    -0.302 NA 
HETATM   20  N   UNL     1     -12.232  12.509  65.766  1.00  0.00    -0.626 NA 
ENDBRANCH  14  15
ENDBRANCH  13  14
ENDBRANCH   4  13
BRANCH   7  21
HETATM   21  N   UNL     1     -10.141   4.782  70.794  1.00  0.00    -0.230 N  
HETATM   22  H   UNL     1     -10.516   3.932  71.216  1.00  0.00     0.000 HD 
HETATM   23  O   UNL     1     -10.640   5.682  72.809  1.00  0.00    -0.202 OA 
HETATM   24  C   UNL     1     -10.200   5.883  71.675  1.00  0.00    -0.202 C  
BRANCH  24  25
HETATM   25  C   UNL     1      -9.949   7.329  71.254  1.00  0.00    -0.188 C  
BRANCH  25  26
HETATM   26  C   UNL     1      -8.712   8.054  71.633  1.00  0.00    -0.132 A  
HETATM   27  H2  UNL     1      -5.308  10.491  70.845  1.00  0.00     0.000 HD 
HETATM   28  H1  UNL     1      -6.724  10.990  69.922  1.00  0.00     0.000 HD 
HETATM   29  C   UNL     1      -7.763   7.539  72.511  1.00  0.00    -0.094 A  
HETATM   30  N   UNL     1      -8.277   9.201  70.976  1.00  0.00    -0.259 NA 
HETATM   31  N   UNL     1      -6.297  10.380  70.619  1.00  0.00    -0.278 NA 
HETATM   32  S   UNL     1      -6.297   8.413  72.412  1.00  0.00    -0.084 SA 
HETATM   33  C   UNL     1      -7.013   9.436  71.244  1.00  0.00     0.048 A  
ENDBRANCH  25  26
BRANCH  25  34
HETATM   34  N   UNL     1     -10.825   8.147  70.735  1.00  0.00    -0.224 NA 
HETATM   35  H   UNL     1     -10.903   8.161  69.717  1.00  0.00     0.000 HD 
BRANCH  34  36
HETATM   36  O   UNL     1     -11.666   9.009  71.452  1.00  0.00    -0.278 OA 
HETATM   37  C   UNL     1     -12.917   8.553  71.895  1.00  0.00    -0.362 C  
ENDBRANCH  34  36
ENDBRANCH  25  34
ENDBRANCH  24  25
ENDBRANCH   7  21
TORSDOF 8
ENDMDL
MODEL      149
REMARK 921   NORMALIZED FREE ENERGY PREDICTED BY IDOCK:   -5.29 KCAL/MOL
REMARK 922        TOTAL FREE ENERGY PREDICTED BY IDOCK:   -8.92 KCAL/MOL
REMARK 923 INTER-LIGAND FREE ENERGY PREDICTED BY IDOCK:   -7.54 KCAL/MOL
REMARK 924 INTRA-LIGAND FREE ENERGY PREDICTED BY IDOCK:   -1.38 KCAL/MOL
REMARK 927      BINDING AFFINITY PREDICTED BY RF-SCORE:    0.00 PKD
ROOT
HETATM    1  C   UNL     1     -10.129  12.778  68.420  1.00  0.00    -0.226 C  
HETATM    2  S   UNL     1     -11.639  11.850  68.384  1.00  0.00    -0.328 SA 
HETATM    3  C   UNL     1     -11.154  10.298  67.588  1.00  0.00    -0.251 C  
HETATM    4  C   UNL     1      -9.690  10.054  67.306  1.00  0.00    -0.206 C  
HETATM    5  O   UNL     1      -7.302  13.770  67.218  1.00  0.00    -0.145 OA 
HETATM    6  CA  UNL     1      -8.712  10.989  67.384  1.00  0.00    -0.132 C  
HETATM    7  CA  UNL     1      -9.775  14.205  67.780  1.00  0.00    -0.223 C  
HETATM    8  N   UNL     1      -9.014  12.280  67.672  1.00  0.00    -0.172 N  
HETATM    9  C   UNL     1      -7.293  10.599  67.071  1.00  0.00    -0.102 C  
HETATM   10  OXT UNL     1      -6.865   9.473  67.284  1.00  0.00    -0.081 OA 
HETATM   11  C   UNL     1      -8.402  13.483  67.585  1.00  0.00    -0.179 C  
HETATM   12  O   UNL     1      -6.483  11.533  66.549  1.00  0.00    -0.121 OA 
ENDROOT
BRANCH   4  13
HETATM   13  C   UNL     1      -9.472   8.642  66.742  1.00  0.00    -0.191 C  
BRANCH  13  14
HETATM   14  S   UNL     1     -10.544   7.487  67.643  1.00  0.00    -0.209 SA 
BRANCH  14  15
HETATM   15  C   UNL     1      -9.537   7.061  68.972  1.00  0.00    -0.141 A  
HETATM   16  N   UNL     1      -9.374   7.723  70.093  1.00  0.00    -0.154 NA 
HETATM   17  C   UNL     1      -8.510   4.978  67.967  1.00  0.00    -0.103 C  
HETATM   18  N   UNL     1      -8.361   7.070  70.764  1.00  0.00    -0.128 NA 
HETATM   19  N   UNL     1      -8.676   6.005  68.957  1.00  0.00    -0.122 NA 
HETATM   20  N   UNL     1      -7.925   6.022  70.074  1.00  0.00    -0.107 NA 
ENDBRANCH  14  15
ENDBRANCH  13  14
ENDBRANCH   4  13
BRANCH   7  21
HETATM   21  N   UNL     1     -10.166  14.932  66.486  1.00  0.00    -0.268 N  
HETATM   22  H   UNL     1     -10.373  14.282  65.728  1.00  0.00     0.000 HD 
HETATM   23  O   UNL     1     -10.689  16.492  64.934  1.00  0.00    -0.702 OA 
HETATM   24  C   UNL     1     -10.310  16.278  66.086  1.00  0.00    -0.341 C  
BRANCH  24  25
HETATM   25  C   UNL     1      -9.835  17.471  66.914  1.00  0.00    -0.302 C  
BRANCH  25  26
HETATM   26  C   UNL     1      -8.412  17.646  67.292  1.00  0.00    -0.216 A  
HETATM   27  H2  UNL     1      -4.332  16.437  67.511  1.00  0.00     0.000 HD 
HETATM   28  H1  UNL     1      -5.094  15.970  65.992  1.00  0.00     0.000 HD 
HETATM   29  C   UNL     1      -8.004  18.180  68.510  1.00  0.00    -0.300 A  
HETATM   30  N   UNL     1      -7.364  17.084  66.568  1.00  0.00    -0.257 NA 
HETATM   31  N   UNL     1      -5.145  16.443  66.894  1.00  0.00    -0.342 NA 
HETATM   32  S   UNL     1      -6.348  17.864  68.795  1.00  0.00    -0.226 SA 
HETATM   33  C   UNL     1      -6.262  17.072  67.283  1.00  0.00    -0.166 A  
ENDBRANCH  25  26
BRANCH  25  34
HETATM   34  N   UNL     1     -10.592  18.320  67.553  1.00  0.00    -0.419 NA 
HETATM   35  H   UNL     1     -10.882  18.066  68.498  1.00  0.00     0.000 HD 
BRANCH  34  36
HETATM   36  O   UNL     1     -11.043  19.550  67.056  1.00  0.00    -0.424 OA 
HETATM   37  C   UNL     1     -10.147  20.408  66.399  1.00  0.00    -0.253 C  
ENDBRANCH  34  36
ENDBRANCH  25  34
ENDBRANCH  24  25
ENDBRANCH   7  21
TORSDOF 8
ENDMDL
MODEL      150
REMARK 921   NORMALIZED FREE ENERGY PREDICTED BY IDOCK:   -5.29 KCAL/MOL
REMARK 922        TOTAL FREE ENERGY PREDICTED BY IDOCK:   -8.92 KCAL/MOL
REMARK 923 INTER-LIGAND FREE ENERGY PREDICTED BY IDOCK:   -7.27 KCAL/MOL
REMARK 924 INTRA-LIGAND FREE ENERGY PREDICTED BY IDOCK:   -1.65 KCAL/MOL
REMARK 927      BINDING AFFINITY PREDICTED BY RF-SCORE:    0.00 PKD
ROOT
HETATM    1  C   UNL     1     -12.058  12.825  69.579  1.00  0.00    -0.205 C  
HETATM    2  S   UNL     1     -11.679  14.219  70.605  1.00  0.00    -0.164 SA 
HETATM    3  C   UNL     1     -11.220  15.502  69.412  1.00  0.00    -0.300 C  
HETATM    4  C   UNL     1     -11.402  15.220  67.938  1.00  0.00    -0.339 C  
HETATM    5  O   UNL     1     -11.637  10.905  67.017  1.00  0.00    -0.383 OA 
HETATM    6  CA  UNL     1     -11.667  14.004  67.401  1.00  0.00    -0.388 C  
HETATM    7  CA  UNL     1     -11.408  11.360  69.540  1.00  0.00    -0.289 C  
HETATM    8  N   UNL     1     -11.722  12.899  68.189  1.00  0.00    -0.336 N  
HETATM    9  C   UNL     1     -11.821  13.874  65.911  1.00  0.00    -0.382 C  
HETATM   10  OXT UNL     1     -12.263  14.783  65.221  1.00  0.00    -0.277 OA 
HETATM   11  C   UNL     1     -11.696  11.559  68.016  1.00  0.00    -0.273 C  
HETATM   12  O   UNL     1     -11.466  12.714  65.338  1.00  0.00    -0.311 OA 
ENDROOT
BRANCH   4  13
HETATM   13  C   UNL     1     -11.073  16.465  67.101  1.00  0.00     0.026 C  
BRANCH  13  14
HETATM   14  S   UNL     1     -10.908  17.886  68.218  1.00  0.00     0.046 SA 
BRANCH  14  15
HETATM   15  C   UNL     1      -9.558  18.701  67.528  1.00  0.00    -0.294 A  
HETATM   16  N   UNL     1      -8.337  18.764  68.005  1.00  0.00    -0.281 NA 
HETATM   17  C   UNL     1     -10.752  19.723  65.546  1.00  0.00    -0.227 C  
HETATM   18  N   UNL     1      -7.667  19.651  67.188  1.00  0.00    -0.249 NA 
HETATM   19  N   UNL     1      -9.640  19.497  66.426  1.00  0.00    -0.369 NA 
HETATM   20  N   UNL     1      -8.458  20.108  66.224  1.00  0.00    -0.263 NA 
ENDBRANCH  14  15
ENDBRANCH  13  14
ENDBRANCH   4  13
BRANCH   7  21
HETATM   21  N   UNL     1      -9.989  10.806  69.731  1.00  0.00    -0.423 N  
HETATM   22  H   UNL     1      -9.895  10.284  70.602  1.00  0.00     0.000 HD 
HETATM   23  O   UNL     1      -7.818  10.230  69.462  1.00  0.00    -0.144 OA 
HETATM   24  C   UNL     1      -8.783  10.840  68.999  1.00  0.00    -0.130 C  
BRANCH  24  25
HETATM   25  C   UNL     1      -8.542  11.744  67.791  1.00  0.00    -0.151 C  
BRANCH  25  26
HETATM   26  C   UNL     1      -8.037  13.130  67.937  1.00  0.00    -0.159 A  
HETATM   27  H2  UNL     1      -6.704  16.896  66.455  1.00  0.00     0.000 HD 
HETATM   28  H1  UNL     1      -8.023  16.222  65.499  1.00  0.00     0.000 HD 
HETATM   29  C   UNL     1      -7.074  13.499  68.872  1.00  0.00    -0.093 A  
HETATM   30  N   UNL     1      -8.303  14.133  67.010  1.00  0.00    -0.164 NA 
HETATM   31  N   UNL     1      -7.398  16.163  66.303  1.00  0.00     0.040 NA 
HETATM   32  S   UNL     1      -6.423  15.038  68.509  1.00  0.00    -0.100 SA 
HETATM   33  C   UNL     1      -7.472  15.138  67.162  1.00  0.00    -0.141 A  
ENDBRANCH  25  26
BRANCH  25  34
HETATM   34  N   UNL     1      -8.936  11.521  66.566  1.00  0.00    -0.185 NA 
HETATM   35  H   UNL     1      -9.827  11.930  66.281  1.00  0.00     0.000 HD 
BRANCH  34  36
HETATM   36  O   UNL     1      -8.243  10.769  65.608  1.00  0.00    -0.162 OA 
HETATM   37  C   UNL     1      -8.843  10.495  64.368  1.00  0.00    -0.197 C  
ENDBRANCH  34  36
ENDBRANCH  25  34
ENDBRANCH  24  25
ENDBRANCH   7  21
TORSDOF 8
ENDMDL
MODEL      151
REMARK 921   NORMALIZED FREE ENERGY PREDICTED BY IDOCK:   -5.28 KCAL/MOL
REMARK 922        TOTAL FREE ENERGY PREDICTED BY IDOCK:   -8.91 KCAL/MOL
REMARK 923 INTER-LIGAND FREE ENERGY PREDICTED BY IDOCK:   -7.63 KCAL/MOL
REMARK 924 INTRA-LIGAND FREE ENERGY PREDICTED BY IDOCK:   -1.28 KCAL/MOL
REMARK 927      BINDING AFFINITY PREDICTED BY RF-SCORE:    0.00 PKD
ROOT
HETATM    1  C   UNL     1     -10.101  12.622  68.107  1.00  0.00    -0.231 C  
HETATM    2  S   UNL     1     -11.351  11.417  67.749  1.00  0.00    -0.280 SA 
HETATM    3  C   UNL     1     -10.434  10.105  66.902  1.00  0.00    -0.222 C  
HETATM    4  C   UNL     1      -8.928  10.201  66.834  1.00  0.00    -0.146 C  
HETATM    5  O   UNL     1      -7.424  14.308  67.462  1.00  0.00    -0.167 OA 
HETATM    6  CA  UNL     1      -8.199  11.299  67.151  1.00  0.00    -0.149 C  
HETATM    7  CA  UNL     1      -9.985  14.158  67.663  1.00  0.00    -0.233 C  
HETATM    8  N   UNL     1      -8.813  12.457  67.503  1.00  0.00    -0.172 N  
HETATM    9  C   UNL     1      -6.700  11.247  67.032  1.00  0.00    -0.126 C  
HETATM   10  OXT UNL     1      -6.068  10.214  67.207  1.00  0.00    -0.056 OA 
HETATM   11  C   UNL     1      -8.474  13.760  67.624  1.00  0.00    -0.183 C  
HETATM   12  O   UNL     1      -6.052  12.383  66.731  1.00  0.00    -0.210 OA 
ENDROOT
BRANCH   4  13
HETATM   13  C   UNL     1      -8.331   8.943  66.186  1.00  0.00    -0.122 C  
BRANCH  13  14
HETATM   14  S   UNL     1      -8.951   7.486  67.074  1.00  0.00    -0.135 SA 
BRANCH  14  15
HETATM   15  C   UNL     1      -8.461   6.216  66.020  1.00  0.00    -0.141 A  
HETATM   16  N   UNL     1      -7.324   6.111  65.374  1.00  0.00    -0.077 NA 
HETATM   17  C   UNL     1     -10.603   4.871  66.087  1.00  0.00    -0.271 C  
HETATM   18  N   UNL     1      -7.468   5.016  64.548  1.00  0.00    -0.067 NA 
HETATM   19  N   UNL     1      -9.280   5.198  65.634  1.00  0.00    -0.157 NA 
HETATM   20  N   UNL     1      -8.663   4.456  64.697  1.00  0.00    -0.136 NA 
ENDBRANCH  14  15
ENDBRANCH  13  14
ENDBRANCH   4  13
BRANCH   7  21
HETATM   21  N   UNL     1     -10.348  14.943  66.395  1.00  0.00    -0.277 N  
HETATM   22  H   UNL     1     -10.607  14.327  65.624  1.00  0.00     0.000 HD 
HETATM   23  O   UNL     1     -10.792  16.574  64.892  1.00  0.00    -0.684 OA 
HETATM   24  C   UNL     1     -10.411  16.305  66.032  1.00  0.00    -0.349 C  
BRANCH  24  25
HETATM   25  C   UNL     1      -9.847  17.443  66.882  1.00  0.00    -0.289 C  
BRANCH  25  26
HETATM   26  C   UNL     1      -8.401  17.550  67.188  1.00  0.00    -0.216 A  
HETATM   27  H2  UNL     1      -5.052  18.973  69.406  1.00  0.00     0.000 HD 
HETATM   28  H1  UNL     1      -6.447  18.637  70.430  1.00  0.00     0.000 HD 
HETATM   29  C   UNL     1      -7.418  17.666  66.210  1.00  0.00    -0.305 A  
HETATM   30  N   UNL     1      -7.916  17.778  68.473  1.00  0.00    -0.288 NA 
HETATM   31  N   UNL     1      -6.009  18.632  69.509  1.00  0.00    -0.248 NA 
HETATM   32  S   UNL     1      -5.934  18.180  66.888  1.00  0.00    -0.152 SA 
HETATM   33  C   UNL     1      -6.669  18.187  68.432  1.00  0.00    -0.219 A  
ENDBRANCH  25  26
BRANCH  25  34
HETATM   34  N   UNL     1     -10.537  18.289  67.598  1.00  0.00    -0.419 NA 
HETATM   35  H   UNL     1     -10.804  17.996  68.538  1.00  0.00     0.000 HD 
BRANCH  34  36
HETATM   36  O   UNL     1     -10.945  19.566  67.188  1.00  0.00    -0.492 OA 
HETATM   37  C   UNL     1     -10.506  20.076  65.955  1.00  0.00    -0.416 C  
ENDBRANCH  34  36
ENDBRANCH  25  34
ENDBRANCH  24  25
ENDBRANCH   7  21
TORSDOF 8
ENDMDL
MODEL      152
REMARK 921   NORMALIZED FREE ENERGY PREDICTED BY IDOCK:   -5.27 KCAL/MOL
REMARK 922        TOTAL FREE ENERGY PREDICTED BY IDOCK:   -8.90 KCAL/MOL
REMARK 923 INTER-LIGAND FREE ENERGY PREDICTED BY IDOCK:   -7.41 KCAL/MOL
REMARK 924 INTRA-LIGAND FREE ENERGY PREDICTED BY IDOCK:   -1.49 KCAL/MOL
REMARK 927      BINDING AFFINITY PREDICTED BY RF-SCORE:    0.00 PKD
ROOT
HETATM    1  C   UNL     1      -9.533  11.385  67.831  1.00  0.00    -0.174 C  
HETATM    2  S   UNL     1      -7.921  11.769  68.459  1.00  0.00    -0.122 SA 
HETATM    3  C   UNL     1      -7.927  13.578  68.541  1.00  0.00    -0.119 C  
HETATM    4  C   UNL     1      -9.217  14.313  68.260  1.00  0.00    -0.197 C  
HETATM    5  O   UNL     1     -12.121  11.896  65.970  1.00  0.00    -0.500 OA 
HETATM    6  CA  UNL     1     -10.332  13.758  67.725  1.00  0.00    -0.241 C  
HETATM    7  CA  UNL     1      -9.966  10.595  66.504  1.00  0.00    -0.215 C  
HETATM    8  N   UNL     1     -10.335  12.460  67.329  1.00  0.00    -0.214 N  
HETATM    9  C   UNL     1     -11.546  14.617  67.499  1.00  0.00    -0.375 C  
HETATM   10  OXT UNL     1     -11.812  15.571  68.218  1.00  0.00    -0.330 OA 
HETATM   11  C   UNL     1     -11.107  11.662  66.558  1.00  0.00    -0.301 C  
HETATM   12  O   UNL     1     -12.358  14.305  66.477  1.00  0.00    -0.445 OA 
ENDROOT
BRANCH   4  13
HETATM   13  C   UNL     1      -9.047  15.821  68.495  1.00  0.00    -0.194 C  
BRANCH  13  14
HETATM   14  S   UNL     1      -8.204  16.539  67.058  1.00  0.00    -0.218 SA 
BRANCH  14  15
HETATM   15  C   UNL     1      -9.404  17.625  66.471  1.00  0.00    -0.272 A  
HETATM   16  N   UNL     1     -10.279  17.406  65.518  1.00  0.00    -0.618 NA 
HETATM   17  C   UNL     1      -8.791  19.618  67.904  1.00  0.00    -0.324 C  
HETATM   18  N   UNL     1     -10.908  18.615  65.309  1.00  0.00    -0.448 NA 
HETATM   19  N   UNL     1      -9.506  18.923  66.870  1.00  0.00    -0.306 NA 
HETATM   20  N   UNL     1     -10.437  19.549  66.128  1.00  0.00    -0.495 NA 
ENDBRANCH  14  15
ENDBRANCH  13  14
ENDBRANCH   4  13
BRANCH   7  21
HETATM   21  N   UNL     1      -9.410  10.502  65.077  1.00  0.00    -0.203 N  
HETATM   22  H   UNL     1      -9.995  10.997  64.404  1.00  0.00     0.000 HD 
HETATM   23  O   UNL     1      -8.140  10.073  63.254  1.00  0.00    -0.145 OA 
HETATM   24  C   UNL     1      -8.289   9.900  64.465  1.00  0.00    -0.166 C  
BRANCH  24  25
HETATM   25  C   UNL     1      -7.375   8.893  65.159  1.00  0.00    -0.092 C  
BRANCH  25  26
HETATM   26  C   UNL     1      -7.442   7.441  64.866  1.00  0.00    -0.087 A  
HETATM   27  H2  UNL     1      -8.551   3.413  65.702  1.00  0.00     0.000 HD 
HETATM   28  H1  UNL     1      -9.786   4.569  66.194  1.00  0.00     0.000 HD 
HETATM   29  C   UNL     1      -6.380   6.718  64.331  1.00  0.00    -0.035 A  
HETATM   30  N   UNL     1      -8.482   6.628  65.309  1.00  0.00    -0.115 NA 
HETATM   31  N   UNL     1      -8.887   4.375  65.753  1.00  0.00    -0.119 NA 
HETATM   32  S   UNL     1      -6.633   5.036  64.502  1.00  0.00    -0.044 SA 
HETATM   33  C   UNL     1      -8.141   5.362  65.240  1.00  0.00    -0.123 A  
ENDBRANCH  25  26
BRANCH  25  34
HETATM   34  N   UNL     1      -6.620   9.121  66.200  1.00  0.00    -0.069 NA 
HETATM   35  H   UNL     1      -5.836   9.762  66.075  1.00  0.00     0.000 HD 
BRANCH  34  36
HETATM   36  O   UNL     1      -6.791   8.561  67.474  1.00  0.00    -0.069 OA 
HETATM   37  C   UNL     1      -5.670   8.142  68.208  1.00  0.00    -0.034 C  
ENDBRANCH  34  36
ENDBRANCH  25  34
ENDBRANCH  24  25
ENDBRANCH   7  21
TORSDOF 8
ENDMDL
MODEL      153
REMARK 921   NORMALIZED FREE ENERGY PREDICTED BY IDOCK:   -5.26 KCAL/MOL
REMARK 922        TOTAL FREE ENERGY PREDICTED BY IDOCK:   -8.88 KCAL/MOL
REMARK 923 INTER-LIGAND FREE ENERGY PREDICTED BY IDOCK:   -7.22 KCAL/MOL
REMARK 924 INTRA-LIGAND FREE ENERGY PREDICTED BY IDOCK:   -1.66 KCAL/MOL
REMARK 927      BINDING AFFINITY PREDICTED BY RF-SCORE:    0.00 PKD
ROOT
HETATM    1  C   UNL     1      -8.511  10.351  69.166  1.00  0.00    -0.164 C  
HETATM    2  S   UNL     1     -10.211  10.511  68.690  1.00  0.00    -0.195 SA 
HETATM    3  C   UNL     1     -11.088   9.547  69.947  1.00  0.00    -0.216 C  
HETATM    4  C   UNL     1     -10.307   9.006  71.122  1.00  0.00    -0.362 C  
HETATM    5  O   UNL     1      -5.965   8.753  70.344  1.00  0.00    -0.029 OA 
HETATM    6  CA  UNL     1      -8.954   8.978  71.215  1.00  0.00    -0.211 C  
HETATM    7  CA  UNL     1      -7.262   9.753  68.358  1.00  0.00    -0.077 C  
HETATM    8  N   UNL     1      -8.183   9.394  70.180  1.00  0.00    -0.149 N  
HETATM    9  C   UNL     1      -8.313   8.404  72.449  1.00  0.00    -0.155 C  
HETATM   10  OXT UNL     1      -8.845   8.470  73.550  1.00  0.00    -0.279 OA 
HETATM   11  C   UNL     1      -6.889   9.283  69.802  1.00  0.00    -0.053 C  
HETATM   12  O   UNL     1      -7.115   7.813  72.322  1.00  0.00    -0.066 OA 
ENDROOT
BRANCH   4  13
HETATM   13  C   UNL     1     -11.242   8.324  72.131  1.00  0.00    -0.345 C  
BRANCH  13  14
HETATM   14  S   UNL     1     -12.068   6.934  71.306  1.00  0.00    -0.380 SA 
BRANCH  14  15
HETATM   15  C   UNL     1     -10.800   5.771  71.257  1.00  0.00    -0.247 A  
HETATM   16  N   UNL     1      -9.949   5.561  70.281  1.00  0.00    -0.199 NA 
HETATM   17  C   UNL     1     -11.265   4.665  73.485  1.00  0.00    -0.316 C  
HETATM   18  N   UNL     1      -9.239   4.435  70.644  1.00  0.00    -0.120 NA 
HETATM   19  N   UNL     1     -10.606   4.826  72.219  1.00  0.00    -0.188 NA 
HETATM   20  N   UNL     1      -9.639   3.977  71.825  1.00  0.00    -0.146 NA 
ENDBRANCH  14  15
ENDBRANCH  13  14
ENDBRANCH   4  13
BRANCH   7  21
HETATM   21  N   UNL     1      -7.073   8.592  67.371  1.00  0.00    -0.079 N  
HETATM   22  H   UNL     1      -6.143   8.180  67.437  1.00  0.00     0.000 HD 
HETATM   23  O   UNL     1      -7.379   6.997  65.796  1.00  0.00    -0.074 OA 
HETATM   24  C   UNL     1      -7.869   7.956  66.395  1.00  0.00    -0.097 C  
BRANCH  24  25
HETATM   25  C   UNL     1      -9.206   8.500  65.894  1.00  0.00    -0.182 C  
BRANCH  25  26
HETATM   26  C   UNL     1      -9.284   9.639  64.947  1.00  0.00    -0.246 A  
HETATM   27  H2  UNL     1     -11.346  12.586  62.664  1.00  0.00     0.000 HD 
HETATM   28  H1  UNL     1     -12.078  12.323  64.246  1.00  0.00     0.000 HD 
HETATM   29  C   UNL     1      -8.500   9.736  63.801  1.00  0.00    -0.184 A  
HETATM   30  N   UNL     1     -10.298  10.590  64.992  1.00  0.00    -0.295 NA 
HETATM   31  N   UNL     1     -11.338  12.123  63.574  1.00  0.00    -0.444 NA 
HETATM   32  S   UNL     1      -9.114  10.925  62.737  1.00  0.00    -0.349 SA 
HETATM   33  C   UNL     1     -10.354  11.261  63.864  1.00  0.00    -0.381 A  
ENDBRANCH  25  26
BRANCH  25  34
HETATM   34  N   UNL     1     -10.387   8.213  66.371  1.00  0.00    -0.431 NA 
HETATM   35  H   UNL     1     -11.170   8.783  66.051  1.00  0.00     0.000 HD 
BRANCH  34  36
HETATM   36  O   UNL     1     -10.674   7.189  67.284  1.00  0.00    -0.286 OA 
HETATM   37  C   UNL     1     -10.846   5.873  66.826  1.00  0.00    -0.270 C  
ENDBRANCH  34  36
ENDBRANCH  25  34
ENDBRANCH  24  25
ENDBRANCH   7  21
TORSDOF 8
ENDMDL
MODEL      154
REMARK 921   NORMALIZED FREE ENERGY PREDICTED BY IDOCK:   -5.25 KCAL/MOL
REMARK 922        TOTAL FREE ENERGY PREDICTED BY IDOCK:   -8.86 KCAL/MOL
REMARK 923 INTER-LIGAND FREE ENERGY PREDICTED BY IDOCK:   -7.08 KCAL/MOL
REMARK 924 INTRA-LIGAND FREE ENERGY PREDICTED BY IDOCK:   -1.78 KCAL/MOL
REMARK 927      BINDING AFFINITY PREDICTED BY RF-SCORE:    0.00 PKD
ROOT
HETATM    1  C   UNL     1     -11.059  12.916  66.717  1.00  0.00    -0.281 C  
HETATM    2  S   UNL     1     -10.886  11.207  66.280  1.00  0.00    -0.153 SA 
HETATM    3  C   UNL     1     -11.139  10.347  67.853  1.00  0.00    -0.299 C  
HETATM    4  C   UNL     1     -11.575  11.150  69.056  1.00  0.00    -0.392 C  
HETATM    5  O   UNL     1     -10.703  15.464  68.668  1.00  0.00    -0.232 OA 
HETATM    6  CA  UNL     1     -11.579  12.503  69.134  1.00  0.00    -0.320 C  
HETATM    7  CA  UNL     1     -10.024  14.132  66.573  1.00  0.00    -0.283 C  
HETATM    8  N   UNL     1     -11.105  13.254  68.107  1.00  0.00    -0.247 N  
HETATM    9  C   UNL     1     -12.039  13.167  70.403  1.00  0.00    -0.317 C  
HETATM   10  OXT UNL     1     -12.888  12.666  71.128  1.00  0.00    -0.324 OA 
HETATM   11  C   UNL     1     -10.716  14.535  67.916  1.00  0.00    -0.245 C  
HETATM   12  O   UNL     1     -11.497  14.350  70.729  1.00  0.00    -0.221 OA 
ENDROOT
BRANCH   4  13
HETATM   13  C   UNL     1     -11.850  10.229  70.254  1.00  0.00    -0.288 C  
BRANCH  13  14
HETATM   14  S   UNL     1     -10.948   8.673  70.007  1.00  0.00    -0.155 SA 
BRANCH  14  15
HETATM   15  C   UNL     1     -10.067   8.558  71.481  1.00  0.00    -0.245 A  
HETATM   16  N   UNL     1      -8.850   8.989  71.718  1.00  0.00    -0.356 NA 
HETATM   17  C   UNL     1     -11.785   7.255  72.805  1.00  0.00    -0.101 C  
HETATM   18  N   UNL     1      -8.533   8.528  72.978  1.00  0.00    -0.395 NA 
HETATM   19  N   UNL     1     -10.511   7.875  72.573  1.00  0.00    -0.273 NA 
HETATM   20  N   UNL     1      -9.540   7.841  73.506  1.00  0.00    -0.290 NA 
ENDBRANCH  14  15
ENDBRANCH  13  14
ENDBRANCH   4  13
BRANCH   7  21
HETATM   21  N   UNL     1      -8.502  14.272  66.711  1.00  0.00    -0.423 N  
HETATM   22  H   UNL     1      -8.150  15.110  66.249  1.00  0.00     0.000 HD 
HETATM   23  O   UNL     1      -6.326  13.982  67.256  1.00  0.00    -0.295 OA 
HETATM   24  C   UNL     1      -7.469  13.528  67.320  1.00  0.00    -0.039 C  
BRANCH  24  25
HETATM   25  C   UNL     1      -7.644  12.112  67.867  1.00  0.00    -0.123 C  
BRANCH  25  26
HETATM   26  C   UNL     1      -7.655  10.924  66.980  1.00  0.00    -0.122 A  
HETATM   27  H2  UNL     1      -6.973   6.818  66.071  1.00  0.00     0.000 HD 
HETATM   28  H1  UNL     1      -7.552   7.058  67.718  1.00  0.00     0.000 HD 
HETATM   29  C   UNL     1      -7.291  10.969  65.637  1.00  0.00     0.144 A  
HETATM   30  N   UNL     1      -7.804   9.626  67.458  1.00  0.00    -0.095 NA 
HETATM   31  N   UNL     1      -7.309   7.442  66.805  1.00  0.00    -0.090 NA 
HETATM   32  S   UNL     1      -7.016   9.397  65.024  1.00  0.00    -0.101 SA 
HETATM   33  C   UNL     1      -7.424   8.753  66.554  1.00  0.00    -0.085 A  
ENDBRANCH  25  26
BRANCH  25  34
HETATM   34  N   UNL     1      -8.012  11.790  69.078  1.00  0.00    -0.347 NA 
HETATM   35  H   UNL     1      -9.014  11.785  69.274  1.00  0.00     0.000 HD 
BRANCH  34  36
HETATM   36  O   UNL     1      -7.153  11.451  70.132  1.00  0.00     0.043 OA 
HETATM   37  C   UNL     1      -5.777  11.704  70.018  1.00  0.00    -0.128 C  
ENDBRANCH  34  36
ENDBRANCH  25  34
ENDBRANCH  24  25
ENDBRANCH   7  21
TORSDOF 8
ENDMDL
MODEL      155
REMARK 921   NORMALIZED FREE ENERGY PREDICTED BY IDOCK:   -5.24 KCAL/MOL
REMARK 922        TOTAL FREE ENERGY PREDICTED BY IDOCK:   -8.85 KCAL/MOL
REMARK 923 INTER-LIGAND FREE ENERGY PREDICTED BY IDOCK:   -7.86 KCAL/MOL
REMARK 924 INTRA-LIGAND FREE ENERGY PREDICTED BY IDOCK:   -0.99 KCAL/MOL
REMARK 927      BINDING AFFINITY PREDICTED BY RF-SCORE:    0.00 PKD
ROOT
HETATM    1  C   UNL     1      -9.194   8.570  66.690  1.00  0.00    -0.177 C  
HETATM    2  S   UNL     1     -10.323   9.499  67.691  1.00  0.00    -0.259 SA 
HETATM    3  C   UNL     1     -10.824  10.857  66.604  1.00  0.00    -0.197 C  
HETATM    4  C   UNL     1     -10.373  10.835  65.162  1.00  0.00    -0.341 C  
HETATM    5  O   UNL     1      -6.855   8.249  64.488  1.00  0.00    -0.067 OA 
HETATM    6  CA  UNL     1      -9.430  10.006  64.650  1.00  0.00    -0.305 C  
HETATM    7  CA  UNL     1      -7.652   8.205  66.935  1.00  0.00    -0.095 C  
HETATM    8  N   UNL     1      -8.755   9.148  65.456  1.00  0.00    -0.169 N  
HETATM    9  C   UNL     1      -9.080  10.101  63.190  1.00  0.00    -0.277 C  
HETATM   10  OXT UNL     1      -9.899  10.438  62.345  1.00  0.00    -0.161 OA 
HETATM   11  C   UNL     1      -7.632   8.399  65.383  1.00  0.00    -0.092 C  
HETATM   12  O   UNL     1      -7.828   9.794  62.820  1.00  0.00    -0.120 OA 
ENDROOT
BRANCH   4  13
HETATM   13  C   UNL     1     -10.995  12.001  64.379  1.00  0.00    -0.333 C  
BRANCH  13  14
HETATM   14  S   UNL     1     -12.107  12.913  65.486  1.00  0.00    -0.469 SA 
BRANCH  14  15
HETATM   15  C   UNL     1     -11.839  14.534  64.970  1.00  0.00    -0.399 A  
HETATM   16  N   UNL     1     -12.565  15.232  64.129  1.00  0.00    -0.629 NA 
HETATM   17  C   UNL     1      -9.675  14.936  66.218  1.00  0.00    -0.296 C  
HETATM   18  N   UNL     1     -11.865  16.402  63.920  1.00  0.00    -0.948 NA 
HETATM   19  N   UNL     1     -10.736  15.259  65.306  1.00  0.00    -0.385 NA 
HETATM   20  N   UNL     1     -10.744  16.424  64.632  1.00  0.00    -0.644 NA 
ENDBRANCH  14  15
ENDBRANCH  13  14
ENDBRANCH   4  13
BRANCH   7  21
HETATM   21  N   UNL     1      -6.459   8.937  67.564  1.00  0.00    -0.060 N  
HETATM   22  H   UNL     1      -5.599   8.797  67.033  1.00  0.00     0.000 HD 
HETATM   23  O   UNL     1      -5.127  10.213  68.874  1.00  0.00    -0.036 OA 
HETATM   24  C   UNL     1      -6.258   9.755  68.696  1.00  0.00    -0.042 C  
BRANCH  24  25
HETATM   25  C   UNL     1      -7.285   9.940  69.811  1.00  0.00    -0.118 C  
BRANCH  25  26
HETATM   26  C   UNL     1      -7.559   8.878  70.809  1.00  0.00    -0.103 A  
HETATM   27  H2  UNL     1      -8.604   7.439  74.681  1.00  0.00     0.000 HD 
HETATM   28  H1  UNL     1      -9.499   8.890  74.235  1.00  0.00     0.000 HD 
HETATM   29  C   UNL     1      -6.808   7.711  70.909  1.00  0.00    -0.042 A  
HETATM   30  N   UNL     1      -8.436   9.052  71.875  1.00  0.00    -0.346 NA 
HETATM   31  N   UNL     1      -8.828   8.161  73.995  1.00  0.00    -0.169 NA 
HETATM   32  S   UNL     1      -7.111   6.912  72.391  1.00  0.00    -0.070 SA 
HETATM   33  C   UNL     1      -8.236   8.134  72.793  1.00  0.00    -0.173 A  
ENDBRANCH  25  26
BRANCH  25  34
HETATM   34  N   UNL     1      -8.168  10.898  69.900  1.00  0.00    -0.169 NA 
HETATM   35  H   UNL     1      -8.681  10.979  70.778  1.00  0.00     0.000 HD 
BRANCH  34  36
HETATM   36  O   UNL     1      -8.473  11.825  68.894  1.00  0.00    -0.049 OA 
HETATM   37  C   UNL     1      -7.521  12.787  68.520  1.00  0.00    -0.120 C  
ENDBRANCH  34  36
ENDBRANCH  25  34
ENDBRANCH  24  25
ENDBRANCH   7  21
TORSDOF 8
ENDMDL
MODEL      156
REMARK 921   NORMALIZED FREE ENERGY PREDICTED BY IDOCK:   -5.24 KCAL/MOL
REMARK 922        TOTAL FREE ENERGY PREDICTED BY IDOCK:   -8.85 KCAL/MOL
REMARK 923 INTER-LIGAND FREE ENERGY PREDICTED BY IDOCK:   -7.48 KCAL/MOL
REMARK 924 INTRA-LIGAND FREE ENERGY PREDICTED BY IDOCK:   -1.37 KCAL/MOL
REMARK 927      BINDING AFFINITY PREDICTED BY RF-SCORE:    0.00 PKD
ROOT
HETATM    1  C   UNL     1      -9.201  10.193  67.231  1.00  0.00    -0.138 C  
HETATM    2  S   UNL     1     -10.912  10.549  67.521  1.00  0.00    -0.279 SA 
HETATM    3  C   UNL     1     -10.886  12.252  68.136  1.00  0.00    -0.227 C  
HETATM    4  C   UNL     1      -9.579  13.010  68.115  1.00  0.00    -0.227 C  
HETATM    5  O   UNL     1      -6.047  10.365  67.899  1.00  0.00    -0.048 OA 
HETATM    6  CA  UNL     1      -8.360  12.462  67.888  1.00  0.00    -0.165 C  
HETATM    7  CA  UNL     1      -8.260   9.053  67.852  1.00  0.00    -0.110 C  
HETATM    8  N   UNL     1      -8.227  11.121  67.723  1.00  0.00    -0.116 N  
HETATM    9  C   UNL     1      -7.142  13.344  67.900  1.00  0.00    -0.137 C  
HETATM   10  OXT UNL     1      -7.184  14.517  67.556  1.00  0.00    -0.176 OA 
HETATM   11  C   UNL     1      -7.222  10.217  67.741  1.00  0.00    -0.087 C  
HETATM   12  O   UNL     1      -5.977  12.806  68.294  1.00  0.00    -0.063 OA 
ENDROOT
BRANCH   4  13
HETATM   13  C   UNL     1      -9.786  14.465  68.561  1.00  0.00    -0.225 C  
BRANCH  13  14
HETATM   14  S   UNL     1     -11.458  14.985  68.082  1.00  0.00    -0.345 SA 
BRANCH  14  15
HETATM   15  C   UNL     1     -11.145  15.794  66.595  1.00  0.00    -0.099 A  
HETATM   16  N   UNL     1     -10.531  16.942  66.427  1.00  0.00    -0.287 NA 
HETATM   17  C   UNL     1     -12.323  14.161  65.063  1.00  0.00    -0.440 C  
HETATM   18  N   UNL     1     -10.667  17.241  65.087  1.00  0.00    -0.651 NA 
HETATM   19  N   UNL     1     -11.621  15.370  65.392  1.00  0.00    -0.110 NA 
HETATM   20  N   UNL     1     -11.336  16.288  64.449  1.00  0.00    -0.748 NA 
ENDBRANCH  14  15
ENDBRANCH  13  14
ENDBRANCH   4  13
BRANCH   7  21
HETATM   21  N   UNL     1      -8.144   8.385  69.229  1.00  0.00    -0.113 N  
HETATM   22  H   UNL     1      -7.241   8.563  69.667  1.00  0.00     0.000 HD 
HETATM   23  O   UNL     1      -8.549   7.247  71.142  1.00  0.00    -0.128 OA 
HETATM   24  C   UNL     1      -8.979   7.584  70.038  1.00  0.00    -0.144 C  
BRANCH  24  25
HETATM   25  C   UNL     1     -10.280   6.945  69.554  1.00  0.00    -0.186 C  
BRANCH  25  26
HETATM   26  C   UNL     1     -10.290   5.822  68.586  1.00  0.00    -0.221 A  
HETATM   27  H2  UNL     1      -8.742   2.256  66.844  1.00  0.00     0.000 HD 
HETATM   28  H1  UNL     1      -8.540   2.295  68.594  1.00  0.00     0.000 HD 
HETATM   29  C   UNL     1     -10.625   5.972  67.244  1.00  0.00    -0.294 A  
HETATM   30  N   UNL     1      -9.746   4.573  68.873  1.00  0.00    -0.167 NA 
HETATM   31  N   UNL     1      -8.893   2.723  67.738  1.00  0.00    -0.120 NA 
HETATM   32  S   UNL     1     -10.144   4.607  66.335  1.00  0.00    -0.252 SA 
HETATM   33  C   UNL     1      -9.553   3.888  67.769  1.00  0.00    -0.145 A  
ENDBRANCH  25  26
BRANCH  25  34
HETATM   34  N   UNL     1     -11.486   7.413  69.734  1.00  0.00    -0.484 NA 
HETATM   35  H   UNL     1     -12.229   7.020  69.155  1.00  0.00     0.000 HD 
BRANCH  34  36
HETATM   36  O   UNL     1     -11.849   8.408  70.651  1.00  0.00    -0.224 OA 
HETATM   37  C   UNL     1     -12.579   8.064  71.800  1.00  0.00    -0.325 C  
ENDBRANCH  34  36
ENDBRANCH  25  34
ENDBRANCH  24  25
ENDBRANCH   7  21
TORSDOF 8
ENDMDL
MODEL      157
REMARK 921   NORMALIZED FREE ENERGY PREDICTED BY IDOCK:   -5.23 KCAL/MOL
REMARK 922        TOTAL FREE ENERGY PREDICTED BY IDOCK:   -8.84 KCAL/MOL
REMARK 923 INTER-LIGAND FREE ENERGY PREDICTED BY IDOCK:   -7.48 KCAL/MOL
REMARK 924 INTRA-LIGAND FREE ENERGY PREDICTED BY IDOCK:   -1.35 KCAL/MOL
REMARK 927      BINDING AFFINITY PREDICTED BY RF-SCORE:    0.00 PKD
ROOT
HETATM    1  C   UNL     1     -10.609  12.276  65.574  1.00  0.00    -0.269 C  
HETATM    2  S   UNL     1     -12.155  13.039  65.983  1.00  0.00    -0.398 SA 
HETATM    3  C   UNL     1     -11.705  14.232  67.269  1.00  0.00    -0.395 C  
HETATM    4  C   UNL     1     -10.242  14.445  67.579  1.00  0.00    -0.240 C  
HETATM    5  O   UNL     1      -7.686  11.090  66.262  1.00  0.00    -0.158 OA 
HETATM    6  CA  UNL     1      -9.227  13.659  67.143  1.00  0.00    -0.244 C  
HETATM    7  CA  UNL     1     -10.161  10.739  65.650  1.00  0.00    -0.267 C  
HETATM    8  N   UNL     1      -9.484  12.539  66.420  1.00  0.00    -0.240 N  
HETATM    9  C   UNL     1      -7.814  13.994  67.536  1.00  0.00    -0.184 C  
HETATM   10  OXT UNL     1      -7.448  15.145  67.729  1.00  0.00    -0.131 OA 
HETATM   11  C   UNL     1      -8.814  11.424  66.052  1.00  0.00    -0.174 C  
HETATM   12  O   UNL     1      -6.939  12.985  67.666  1.00  0.00    -0.125 OA 
ENDROOT
BRANCH   4  13
HETATM   13  C   UNL     1     -10.061  15.573  68.605  1.00  0.00    -0.210 C  
BRANCH  13  14
HETATM   14  S   UNL     1     -10.771  17.097  67.921  1.00  0.00    -0.306 SA 
BRANCH  14  15
HETATM   15  C   UNL     1      -9.444  17.706  67.009  1.00  0.00    -0.266 A  
HETATM   16  N   UNL     1      -8.992  17.257  65.862  1.00  0.00    -0.531 NA 
HETATM   17  C   UNL     1      -8.710  19.502  68.633  1.00  0.00    -0.335 C  
HETATM   18  N   UNL     1      -7.834  17.964  65.618  1.00  0.00    -0.486 NA 
HETATM   19  N   UNL     1      -8.613  18.689  67.453  1.00  0.00    -0.267 NA 
HETATM   20  N   UNL     1      -7.592  18.838  66.588  1.00  0.00    -0.235 NA 
ENDBRANCH  14  15
ENDBRANCH  13  14
ENDBRANCH   4  13
BRANCH   7  21
HETATM   21  N   UNL     1     -10.457   9.576  66.607  1.00  0.00    -0.208 N  
HETATM   22  H   UNL     1     -11.112   9.842  67.342  1.00  0.00     0.000 HD 
HETATM   23  O   UNL     1     -10.539   7.561  67.631  1.00  0.00    -0.239 OA 
HETATM   24  C   UNL     1     -10.047   8.231  66.722  1.00  0.00    -0.303 C  
BRANCH  24  25
HETATM   25  C   UNL     1      -8.894   7.619  65.929  1.00  0.00    -0.130 C  
BRANCH  25  26
HETATM   26  C   UNL     1      -8.436   6.227  66.159  1.00  0.00    -0.138 A  
HETATM   27  H2  UNL     1      -8.913   1.993  66.182  1.00  0.00     0.000 HD 
HETATM   28  H1  UNL     1      -9.707   2.755  64.805  1.00  0.00     0.000 HD 
HETATM   29  C   UNL     1      -7.676   5.844  67.261  1.00  0.00    -0.101 A  
HETATM   30  N   UNL     1      -8.912   5.144  65.426  1.00  0.00    -0.159 NA 
HETATM   31  N   UNL     1      -9.128   2.832  65.641  1.00  0.00    -0.145 NA 
HETATM   32  S   UNL     1      -7.672   4.144  67.442  1.00  0.00    -0.084 SA 
HETATM   33  C   UNL     1      -8.643   4.015  66.040  1.00  0.00    -0.110 A  
ENDBRANCH  25  26
BRANCH  25  34
HETATM   34  N   UNL     1      -8.059   8.260  65.156  1.00  0.00    -0.134 NA 
HETATM   35  H   UNL     1      -7.364   8.852  65.611  1.00  0.00     0.000 HD 
BRANCH  34  36
HETATM   36  O   UNL     1      -8.033   8.205  63.756  1.00  0.00    -0.142 OA 
HETATM   37  C   UNL     1      -7.793   9.374  63.017  1.00  0.00    -0.131 C  
ENDBRANCH  34  36
ENDBRANCH  25  34
ENDBRANCH  24  25
ENDBRANCH   7  21
TORSDOF 8
ENDMDL
MODEL      158
REMARK 921   NORMALIZED FREE ENERGY PREDICTED BY IDOCK:   -5.22 KCAL/MOL
REMARK 922        TOTAL FREE ENERGY PREDICTED BY IDOCK:   -8.83 KCAL/MOL
REMARK 923 INTER-LIGAND FREE ENERGY PREDICTED BY IDOCK:   -8.61 KCAL/MOL
REMARK 924 INTRA-LIGAND FREE ENERGY PREDICTED BY IDOCK:   -0.22 KCAL/MOL
REMARK 927      BINDING AFFINITY PREDICTED BY RF-SCORE:    0.00 PKD
ROOT
HETATM    1  C   UNL     1      -8.299  15.811  69.147  1.00  0.00    -0.249 C  
HETATM    2  S   UNL     1      -6.569  16.181  69.256  1.00  0.00    -0.198 SA 
HETATM    3  C   UNL     1      -6.255  17.152  67.761  1.00  0.00    -0.141 C  
HETATM    4  C   UNL     1      -7.429  17.562  66.903  1.00  0.00    -0.235 C  
HETATM    5  O   UNL     1     -11.014  15.066  67.568  1.00  0.00    -0.289 OA 
HETATM    6  CA  UNL     1      -8.691  17.079  67.021  1.00  0.00    -0.221 C  
HETATM    7  CA  UNL     1      -9.055  14.398  69.097  1.00  0.00     0.093 C  
HETATM    8  N   UNL     1      -8.973  16.100  67.918  1.00  0.00    -0.183 N  
HETATM    9  C   UNL     1      -9.761  17.581  66.091  1.00  0.00    -0.209 C  
HETATM   10  OXT UNL     1      -9.749  18.717  65.637  1.00  0.00    -0.368 OA 
HETATM   11  C   UNL     1      -9.977  15.223  68.141  1.00  0.00    -0.221 C  
HETATM   12  O   UNL     1     -10.759  16.744  65.768  1.00  0.00    -0.291 OA 
ENDROOT
BRANCH   4  13
HETATM   13  C   UNL     1      -6.973  18.474  65.755  1.00  0.00    -0.252 C  
BRANCH  13  14
HETATM   14  S   UNL     1      -7.476  20.177  66.134  1.00  0.00    -0.246 SA 
BRANCH  14  15
HETATM   15  C   UNL     1      -6.799  20.386  67.703  1.00  0.00    -0.292 A  
HETATM   16  N   UNL     1      -5.554  20.675  68.001  1.00  0.00    -0.237 NA 
HETATM   17  C   UNL     1      -8.873  19.840  69.045  1.00  0.00    -0.037 C  
HETATM   18  N   UNL     1      -5.472  20.581  69.375  1.00  0.00    -0.298 NA 
HETATM   19  N   UNL     1      -7.484  20.152  68.857  1.00  0.00    -0.093 NA 
HETATM   20  N   UNL     1      -6.646  20.257  69.905  1.00  0.00    -0.249 NA 
ENDBRANCH  14  15
ENDBRANCH  13  14
ENDBRANCH   4  13
BRANCH   7  21
HETATM   21  N   UNL     1      -8.745  13.033  68.468  1.00  0.00    -0.345 N  
HETATM   22  H   UNL     1      -7.810  13.001  68.062  1.00  0.00     0.000 HD 
HETATM   23  O   UNL     1      -8.836  10.885  67.766  1.00  0.00    -0.132 OA 
HETATM   24  C   UNL     1      -9.435  11.812  68.313  1.00  0.00    -0.193 C  
BRANCH  24  25
HETATM   25  C   UNL     1     -10.926  11.631  68.591  1.00  0.00    -0.220 C  
BRANCH  25  26
HETATM   26  C   UNL     1     -11.419  10.928  69.800  1.00  0.00    -0.313 A  
HETATM   27  H2  UNL     1     -12.662   7.492  71.992  1.00  0.00     0.000 HD 
HETATM   28  H1  UNL     1     -11.324   7.148  70.898  1.00  0.00     0.000 HD 
HETATM   29  C   UNL     1     -12.404  11.444  70.636  1.00  0.00    -0.373 A  
HETATM   30  N   UNL     1     -11.113   9.599  70.078  1.00  0.00    -0.249 NA 
HETATM   31  N   UNL     1     -11.973   7.816  71.312  1.00  0.00    -0.298 NA 
HETATM   32  S   UNL     1     -13.026  10.234  71.672  1.00  0.00    -0.483 SA 
HETATM   33  C   UNL     1     -11.937   9.113  70.978  1.00  0.00    -0.282 A  
ENDBRANCH  25  26
BRANCH  25  34
HETATM   34  N   UNL     1     -11.902  11.849  67.751  1.00  0.00    -0.573 NA 
HETATM   35  H   UNL     1     -12.787  12.176  68.141  1.00  0.00     0.000 HD 
BRANCH  34  36
HETATM   36  O   UNL     1     -11.842  11.675  66.362  1.00  0.00    -0.470 OA 
HETATM   37  C   UNL     1     -12.189  12.735  65.510  1.00  0.00    -0.463 C  
ENDBRANCH  34  36
ENDBRANCH  25  34
ENDBRANCH  24  25
ENDBRANCH   7  21
TORSDOF 8
ENDMDL
MODEL      159
REMARK 921   NORMALIZED FREE ENERGY PREDICTED BY IDOCK:   -5.22 KCAL/MOL
REMARK 922        TOTAL FREE ENERGY PREDICTED BY IDOCK:   -8.82 KCAL/MOL
REMARK 923 INTER-LIGAND FREE ENERGY PREDICTED BY IDOCK:   -7.41 KCAL/MOL
REMARK 924 INTRA-LIGAND FREE ENERGY PREDICTED BY IDOCK:   -1.41 KCAL/MOL
REMARK 927      BINDING AFFINITY PREDICTED BY RF-SCORE:    0.00 PKD
ROOT
HETATM    1  C   UNL     1     -10.796  11.994  66.191  1.00  0.00    -0.286 C  
HETATM    2  S   UNL     1     -12.279  12.962  66.127  1.00  0.00    -0.201 SA 
HETATM    3  C   UNL     1     -11.774  14.547  66.843  1.00  0.00    -0.382 C  
HETATM    4  C   UNL     1     -10.312  14.769  67.153  1.00  0.00    -0.255 C  
HETATM    5  O   UNL     1      -8.032  11.003  67.534  1.00  0.00    -0.112 OA 
HETATM    6  CA  UNL     1      -9.359  13.805  67.159  1.00  0.00    -0.240 C  
HETATM    7  CA  UNL     1     -10.500  10.600  66.925  1.00  0.00    -0.249 C  
HETATM    8  N   UNL     1      -9.689  12.507  66.940  1.00  0.00    -0.226 N  
HETATM    9  C   UNL     1      -7.939  14.176  67.491  1.00  0.00    -0.188 C  
HETATM   10  OXT UNL     1      -7.474  15.275  67.224  1.00  0.00    -0.191 OA 
HETATM   11  C   UNL     1      -9.113  11.296  67.117  1.00  0.00    -0.157 C  
HETATM   12  O   UNL     1      -7.170  13.254  68.092  1.00  0.00    -0.087 OA 
ENDROOT
BRANCH   4  13
HETATM   13  C   UNL     1     -10.070  16.206  67.637  1.00  0.00    -0.248 C  
BRANCH  13  14
HETATM   14  S   UNL     1     -10.268  17.333  66.228  1.00  0.00    -0.314 SA 
BRANCH  14  15
HETATM   15  C   UNL     1      -9.014  18.473  66.531  1.00  0.00    -0.293 A  
HETATM   16  N   UNL     1      -7.810  18.491  66.007  1.00  0.00    -0.471 NA 
HETATM   17  C   UNL     1     -10.218  19.847  68.281  1.00  0.00    -0.434 C  
HETATM   18  N   UNL     1      -7.133  19.491  66.673  1.00  0.00    -0.210 NA 
HETATM   19  N   UNL     1      -9.098  19.454  67.471  1.00  0.00    -0.296 NA 
HETATM   20  N   UNL     1      -7.912  20.081  67.573  1.00  0.00    -0.298 NA 
ENDBRANCH  14  15
ENDBRANCH  13  14
ENDBRANCH   4  13
BRANCH   7  21
HETATM   21  N   UNL     1     -10.947   9.964  68.248  1.00  0.00    -0.415 N  
HETATM   22  H   UNL     1     -11.650  10.527  68.727  1.00  0.00     0.000 HD 
HETATM   23  O   UNL     1     -11.235   8.582  70.016  1.00  0.00    -0.205 OA 
HETATM   24  C   UNL     1     -10.626   8.792  68.966  1.00  0.00    -0.171 C  
BRANCH  24  25
HETATM   25  C   UNL     1      -9.442   7.884  68.635  1.00  0.00    -0.149 C  
BRANCH  25  26
HETATM   26  C   UNL     1      -9.621   6.578  67.956  1.00  0.00    -0.119 A  
HETATM   27  H2  UNL     1      -8.231   2.957  66.194  1.00  0.00     0.000 HD 
HETATM   28  H1  UNL     1      -7.288   3.426  67.608  1.00  0.00     0.000 HD 
HETATM   29  C   UNL     1     -10.542   6.367  66.935  1.00  0.00    -0.309 A  
HETATM   30  N   UNL     1      -8.735   5.517  68.115  1.00  0.00    -0.103 NA 
HETATM   31  N   UNL     1      -8.073   3.592  66.978  1.00  0.00    -0.087 NA 
HETATM   32  S   UNL     1     -10.214   4.909  66.104  1.00  0.00    -0.278 SA 
HETATM   33  C   UNL     1      -8.899   4.630  67.161  1.00  0.00    -0.108 A  
ENDBRANCH  25  26
BRANCH  25  34
HETATM   34  N   UNL     1      -8.220   8.014  69.077  1.00  0.00    -0.126 NA 
HETATM   35  H   UNL     1      -7.507   8.284  68.399  1.00  0.00     0.000 HD 
BRANCH  34  36
HETATM   36  O   UNL     1      -7.802   7.813  70.399  1.00  0.00    -0.087 OA 
HETATM   37  C   UNL     1      -7.692   8.910  71.270  1.00  0.00    -0.111 C  
ENDBRANCH  34  36
ENDBRANCH  25  34
ENDBRANCH  24  25
ENDBRANCH   7  21
TORSDOF 8
ENDMDL
MODEL      160
REMARK 921   NORMALIZED FREE ENERGY PREDICTED BY IDOCK:   -5.21 KCAL/MOL
REMARK 922        TOTAL FREE ENERGY PREDICTED BY IDOCK:   -8.80 KCAL/MOL
REMARK 923 INTER-LIGAND FREE ENERGY PREDICTED BY IDOCK:   -6.41 KCAL/MOL
REMARK 924 INTRA-LIGAND FREE ENERGY PREDICTED BY IDOCK:   -2.38 KCAL/MOL
REMARK 927      BINDING AFFINITY PREDICTED BY RF-SCORE:    0.00 PKD
ROOT
HETATM    1  C   UNL     1      -9.788   4.613  72.504  1.00  0.00    -0.159 C  
HETATM    2  S   UNL     1      -9.435   3.716  71.018  1.00  0.00    -0.173 SA 
HETATM    3  C   UNL     1      -8.283   4.802  70.139  1.00  0.00    -0.068 C  
HETATM    4  C   UNL     1      -7.768   6.035  70.844  1.00  0.00    -0.098 C  
HETATM    5  O   UNL     1     -10.328   7.297  74.217  1.00  0.00    -0.171 OA 
HETATM    6  CA  UNL     1      -8.262   6.538  72.002  1.00  0.00    -0.107 C  
HETATM    7  CA  UNL     1     -11.183   5.150  73.084  1.00  0.00    -0.330 C  
HETATM    8  N   UNL     1      -9.346   5.973  72.592  1.00  0.00    -0.147 N  
HETATM    9  C   UNL     1      -7.647   7.779  72.588  1.00  0.00    -0.103 C  
HETATM   10  OXT UNL     1      -6.463   8.050  72.443  1.00  0.00    -0.058 OA 
HETATM   11  C   UNL     1     -10.245   6.313  73.543  1.00  0.00    -0.239 C  
HETATM   12  O   UNL     1      -8.437   8.600  73.298  1.00  0.00    -0.395 OA 
ENDROOT
BRANCH   4  13
HETATM   13  C   UNL     1      -6.718   6.755  69.985  1.00  0.00    -0.049 C  
BRANCH  13  14
HETATM   14  S   UNL     1      -6.960   6.273  68.252  1.00  0.00    -0.083 SA 
BRANCH  14  15
HETATM   15  C   UNL     1      -6.661   7.763  67.444  1.00  0.00    -0.068 A  
HETATM   16  N   UNL     1      -6.629   8.964  67.973  1.00  0.00    -0.060 NA 
HETATM   17  C   UNL     1      -6.477   6.846  65.093  1.00  0.00    -0.043 C  
HETATM   18  N   UNL     1      -6.513   9.834  66.908  1.00  0.00    -0.066 NA 
HETATM   19  N   UNL     1      -6.535   7.876  66.092  1.00  0.00    -0.046 NA 
HETATM   20  N   UNL     1      -6.460   9.177  65.755  1.00  0.00    -0.063 NA 
ENDBRANCH  14  15
ENDBRANCH  13  14
ENDBRANCH   4  13
BRANCH   7  21
HETATM   21  N   UNL     1     -12.458   5.730  72.457  1.00  0.00    -0.387 N  
HETATM   22  H   UNL     1     -13.276   5.150  72.645  1.00  0.00     0.000 HD 
HETATM   23  O   UNL     1     -13.960   7.033  71.378  1.00  0.00    -0.319 OA 
HETATM   24  C   UNL     1     -12.778   6.867  71.684  1.00  0.00    -0.352 C  
BRANCH  24  25
HETATM   25  C   UNL     1     -11.739   7.780  71.037  1.00  0.00    -0.281 C  
BRANCH  25  26
HETATM   26  C   UNL     1     -11.128   7.465  69.722  1.00  0.00    -0.152 A  
HETATM   27  H2  UNL     1     -10.000   8.360  65.712  1.00  0.00     0.000 HD 
HETATM   28  H1  UNL     1      -9.819   9.743  66.789  1.00  0.00     0.000 HD 
HETATM   29  C   UNL     1     -11.271   6.235  69.087  1.00  0.00    -0.371 A  
HETATM   30  N   UNL     1     -10.557   8.435  68.903  1.00  0.00    -0.185 NA 
HETATM   31  N   UNL     1     -10.051   8.760  66.650  1.00  0.00    -0.281 NA 
HETATM   32  S   UNL     1     -10.811   6.336  67.444  1.00  0.00    -0.368 SA 
HETATM   33  C   UNL     1     -10.422   7.984  67.677  1.00  0.00    -0.232 A  
ENDBRANCH  25  26
BRANCH  25  34
HETATM   34  N   UNL     1     -11.116   8.774  71.611  1.00  0.00    -0.301 NA 
HETATM   35  H   UNL     1     -10.211   8.572  72.037  1.00  0.00     0.000 HD 
BRANCH  34  36
HETATM   36  O   UNL     1     -11.582  10.093  71.694  1.00  0.00    -0.267 OA 
HETATM   37  C   UNL     1     -12.780  10.451  71.056  1.00  0.00    -0.394 C  
ENDBRANCH  34  36
ENDBRANCH  25  34
ENDBRANCH  24  25
ENDBRANCH   7  21
TORSDOF 8
ENDMDL
MODEL      161
REMARK 921   NORMALIZED FREE ENERGY PREDICTED BY IDOCK:   -5.20 KCAL/MOL
REMARK 922        TOTAL FREE ENERGY PREDICTED BY IDOCK:   -8.79 KCAL/MOL
REMARK 923 INTER-LIGAND FREE ENERGY PREDICTED BY IDOCK:   -7.49 KCAL/MOL
REMARK 924 INTRA-LIGAND FREE ENERGY PREDICTED BY IDOCK:   -1.30 KCAL/MOL
REMARK 927      BINDING AFFINITY PREDICTED BY RF-SCORE:    0.00 PKD
ROOT
HETATM    1  C   UNL     1      -8.317   8.373  68.213  1.00  0.00    -0.131 C  
HETATM    2  S   UNL     1      -7.271   9.408  69.199  1.00  0.00    -0.068 SA 
HETATM    3  C   UNL     1      -7.389   8.670  70.848  1.00  0.00    -0.077 C  
HETATM    4  C   UNL     1      -8.128   7.362  71.006  1.00  0.00    -0.101 C  
HETATM    5  O   UNL     1     -10.925   6.543  67.685  1.00  0.00    -0.304 OA 
HETATM    6  CA  UNL     1      -8.916   6.790  70.063  1.00  0.00    -0.141 C  
HETATM    7  CA  UNL     1      -9.620   8.737  67.353  1.00  0.00    -0.161 C  
HETATM    8  N   UNL     1      -9.152   7.423  68.886  1.00  0.00    -0.137 N  
HETATM    9  C   UNL     1      -9.593   5.481  70.363  1.00  0.00    -0.172 C  
HETATM   10  OXT UNL     1      -9.097   4.647  71.109  1.00  0.00    -0.125 OA 
HETATM   11  C   UNL     1     -10.033   7.318  67.865  1.00  0.00    -0.158 C  
HETATM   12  O   UNL     1     -10.775   5.234  69.779  1.00  0.00    -0.286 OA 
ENDROOT
BRANCH   4  13
HETATM   13  C   UNL     1      -8.014   6.843  72.447  1.00  0.00    -0.096 C  
BRANCH  13  14
HETATM   14  S   UNL     1      -9.097   7.841  73.508  1.00  0.00    -0.288 SA 
BRANCH  14  15
HETATM   15  C   UNL     1     -10.652   7.295  73.010  1.00  0.00    -0.326 A  
HETATM   16  N   UNL     1     -11.218   6.143  73.285  1.00  0.00    -0.129 NA 
HETATM   17  C   UNL     1     -11.278   9.295  71.592  1.00  0.00    -0.379 C  
HETATM   18  N   UNL     1     -12.378   6.114  72.540  1.00  0.00    -0.050 NA 
HETATM   19  N   UNL     1     -11.451   7.981  72.146  1.00  0.00    -0.310 NA 
HETATM   20  N   UNL     1     -12.525   7.232  71.837  1.00  0.00    -0.316 NA 
ENDBRANCH  14  15
ENDBRANCH  13  14
ENDBRANCH   4  13
BRANCH   7  21
HETATM   21  N   UNL     1     -10.791   9.713  67.532  1.00  0.00    -0.391 N  
HETATM   22  H   UNL     1     -11.531   9.322  68.114  1.00  0.00     0.000 HD 
HETATM   23  O   UNL     1     -12.153  11.519  67.476  1.00  0.00    -0.614 OA 
HETATM   24  C   UNL     1     -11.095  11.019  67.089  1.00  0.00    -0.267 C  
BRANCH  24  25
HETATM   25  C   UNL     1     -10.307  11.761  66.012  1.00  0.00    -0.239 C  
BRANCH  25  26
HETATM   26  C   UNL     1      -9.641  11.048  64.895  1.00  0.00    -0.245 A  
HETATM   27  H2  UNL     1      -6.279   9.938  62.525  1.00  0.00     0.000 HD 
HETATM   28  H1  UNL     1      -5.885  10.065  64.238  1.00  0.00     0.000 HD 
HETATM   29  C   UNL     1     -10.194  10.931  63.624  1.00  0.00    -0.332 A  
HETATM   30  N   UNL     1      -8.313  10.634  64.949  1.00  0.00    -0.131 NA 
HETATM   31  N   UNL     1      -6.575  10.103  63.488  1.00  0.00    -0.137 NA 
HETATM   32  S   UNL     1      -9.019  10.429  62.487  1.00  0.00    -0.305 SA 
HETATM   33  C   UNL     1      -7.863  10.365  63.745  1.00  0.00    -0.065 A  
ENDBRANCH  25  26
BRANCH  25  34
HETATM   34  N   UNL     1      -9.942  13.014  66.045  1.00  0.00    -0.277 NA 
HETATM   35  H   UNL     1      -9.242  13.277  66.740  1.00  0.00     0.000 HD 
BRANCH  34  36
HETATM   36  O   UNL     1     -10.426  14.031  65.211  1.00  0.00    -0.336 OA 
HETATM   37  C   UNL     1     -11.788  14.062  64.868  1.00  0.00    -0.393 C  
ENDBRANCH  34  36
ENDBRANCH  25  34
ENDBRANCH  24  25
ENDBRANCH   7  21
TORSDOF 8
ENDMDL
MODEL      162
REMARK 921   NORMALIZED FREE ENERGY PREDICTED BY IDOCK:   -5.19 KCAL/MOL
REMARK 922        TOTAL FREE ENERGY PREDICTED BY IDOCK:   -8.77 KCAL/MOL
REMARK 923 INTER-LIGAND FREE ENERGY PREDICTED BY IDOCK:   -7.47 KCAL/MOL
REMARK 924 INTRA-LIGAND FREE ENERGY PREDICTED BY IDOCK:   -1.30 KCAL/MOL
REMARK 927      BINDING AFFINITY PREDICTED BY RF-SCORE:    0.00 PKD
ROOT
HETATM    1  C   UNL     1     -10.232  10.032  70.100  1.00  0.00    -0.242 C  
HETATM    2  S   UNL     1     -11.598   9.146  70.800  1.00  0.00    -0.257 SA 
HETATM    3  C   UNL     1     -11.262   7.428  70.336  1.00  0.00    -0.262 C  
HETATM    4  C   UNL     1      -9.944   7.100  69.674  1.00  0.00    -0.176 C  
HETATM    5  O   UNL     1      -8.008  10.621  67.835  1.00  0.00    -0.104 OA 
HETATM    6  CA  UNL     1      -9.068   8.011  69.182  1.00  0.00    -0.145 C  
HETATM    7  CA  UNL     1     -10.210  11.220  69.024  1.00  0.00    -0.150 C  
HETATM    8  N   UNL     1      -9.368   9.334  69.195  1.00  0.00    -0.154 N  
HETATM    9  C   UNL     1      -7.791   7.535  68.545  1.00  0.00    -0.122 C  
HETATM   10  OXT UNL     1      -7.229   6.508  68.902  1.00  0.00    -0.079 OA 
HETATM   11  C   UNL     1      -8.912  10.459  68.599  1.00  0.00    -0.146 C  
HETATM   12  O   UNL     1      -7.261   8.278  67.561  1.00  0.00    -0.085 OA 
ENDROOT
BRANCH   4  13
HETATM   13  C   UNL     1      -9.799   5.585  69.469  1.00  0.00    -0.189 C  
BRANCH  13  14
HETATM   14  S   UNL     1     -10.444   5.160  67.826  1.00  0.00     0.032 SA 
BRANCH  14  15
HETATM   15  C   UNL     1      -9.377   3.890  67.364  1.00  0.00    -0.191 A  
HETATM   16  N   UNL     1      -9.305   2.684  67.877  1.00  0.00    -0.206 NA 
HETATM   17  C   UNL     1      -8.066   5.166  65.616  1.00  0.00    -0.115 C  
HETATM   18  N   UNL     1      -8.204   2.098  67.288  1.00  0.00    -0.071 NA 
HETATM   19  N   UNL     1      -8.373   4.043  66.457  1.00  0.00    -0.104 NA 
HETATM   20  N   UNL     1      -7.626   2.923  66.423  1.00  0.00    -0.075 NA 
ENDBRANCH  14  15
ENDBRANCH  13  14
ENDBRANCH   4  13
BRANCH   7  21
HETATM   21  N   UNL     1     -11.041  11.561  67.780  1.00  0.00    -0.240 N  
HETATM   22  H   UNL     1     -11.016  10.815  67.085  1.00  0.00     0.000 HD 
HETATM   23  O   UNL     1     -12.401  12.558  66.272  1.00  0.00    -0.570 OA 
HETATM   24  C   UNL     1     -11.832  12.653  67.360  1.00  0.00    -0.328 C  
BRANCH  24  25
HETATM   25  C   UNL     1     -11.860  14.008  68.064  1.00  0.00    -0.368 C  
BRANCH  25  26
HETATM   26  C   UNL     1     -10.983  15.128  67.644  1.00  0.00    -0.308 A  
HETATM   27  H2  UNL     1     -10.118  19.225  66.855  1.00  0.00     0.000 HD 
HETATM   28  H1  UNL     1     -11.160  19.013  68.261  1.00  0.00     0.000 HD 
HETATM   29  C   UNL     1     -10.102  15.049  66.570  1.00  0.00    -0.276 A  
HETATM   30  N   UNL     1     -11.126  16.423  68.133  1.00  0.00    -0.346 NA 
HETATM   31  N   UNL     1     -10.602  18.608  67.509  1.00  0.00    -0.423 NA 
HETATM   32  S   UNL     1      -9.562  16.602  66.103  1.00  0.00    -0.276 SA 
HETATM   33  C   UNL     1     -10.496  17.281  67.364  1.00  0.00    -0.338 A  
ENDBRANCH  25  26
BRANCH  25  34
HETATM   34  N   UNL     1     -12.449  14.281  69.197  1.00  0.00    -0.528 NA 
HETATM   35  H   UNL     1     -13.345  14.768  69.150  1.00  0.00     0.000 HD 
BRANCH  34  36
HETATM   36  O   UNL     1     -11.960  13.963  70.471  1.00  0.00    -0.323 OA 
HETATM   37  C   UNL     1     -12.711  13.133  71.319  1.00  0.00    -0.306 C  
ENDBRANCH  34  36
ENDBRANCH  25  34
ENDBRANCH  24  25
ENDBRANCH   7  21
TORSDOF 8
ENDMDL
MODEL      163
REMARK 921   NORMALIZED FREE ENERGY PREDICTED BY IDOCK:   -5.17 KCAL/MOL
REMARK 922        TOTAL FREE ENERGY PREDICTED BY IDOCK:   -8.75 KCAL/MOL
REMARK 923 INTER-LIGAND FREE ENERGY PREDICTED BY IDOCK:   -7.76 KCAL/MOL
REMARK 924 INTRA-LIGAND FREE ENERGY PREDICTED BY IDOCK:   -0.99 KCAL/MOL
REMARK 927      BINDING AFFINITY PREDICTED BY RF-SCORE:    0.00 PKD
ROOT
HETATM    1  C   UNL     1     -10.241   8.617  67.572  1.00  0.00    -0.245 C  
HETATM    2  S   UNL     1     -10.574  10.030  68.590  1.00  0.00    -0.222 SA 
HETATM    3  C   UNL     1     -10.217  11.426  67.494  1.00  0.00    -0.185 C  
HETATM    4  C   UNL     1      -9.914  11.148  66.040  1.00  0.00    -0.280 C  
HETATM    5  O   UNL     1      -8.613   6.989  65.309  1.00  0.00    -0.099 OA 
HETATM    6  CA  UNL     1      -9.657   9.925  65.515  1.00  0.00    -0.277 C  
HETATM    7  CA  UNL     1      -9.201   7.415  67.778  1.00  0.00    -0.131 C  
HETATM    8  N   UNL     1      -9.588   8.831  66.316  1.00  0.00    -0.243 N  
HETATM    9  C   UNL     1      -9.367   9.801  64.044  1.00  0.00    -0.155 C  
HETATM   10  OXT UNL     1      -9.860  10.557  63.218  1.00  0.00    -0.318 OA 
HETATM   11  C   UNL     1      -9.123   7.565  66.224  1.00  0.00    -0.157 C  
HETATM   12  O   UNL     1      -8.547   8.817  63.643  1.00  0.00    -0.152 OA 
ENDROOT
BRANCH   4  13
HETATM   13  C   UNL     1      -9.758  12.459  65.256  1.00  0.00    -0.086 C  
BRANCH  13  14
HETATM   14  S   UNL     1     -10.062  13.848  66.385  1.00  0.00    -0.302 SA 
BRANCH  14  15
HETATM   15  C   UNL     1     -10.894  14.945  65.351  1.00  0.00    -0.369 A  
HETATM   16  N   UNL     1     -11.695  14.649  64.354  1.00  0.00    -0.377 NA 
HETATM   17  C   UNL     1      -9.960  17.092  66.310  1.00  0.00    -0.304 C  
HETATM   18  N   UNL     1     -11.984  15.851  63.743  1.00  0.00    -0.679 NA 
HETATM   19  N   UNL     1     -10.715  16.295  65.384  1.00  0.00    -0.444 NA 
HETATM   20  N   UNL     1     -11.384  16.861  64.363  1.00  0.00    -1.090 NA 
ENDBRANCH  14  15
ENDBRANCH  13  14
ENDBRANCH   4  13
BRANCH   7  21
HETATM   21  N   UNL     1      -7.785   7.303  68.360  1.00  0.00    -0.118 N  
HETATM   22  H   UNL     1      -7.109   7.855  67.832  1.00  0.00     0.000 HD 
HETATM   23  O   UNL     1      -5.984   6.806  69.636  1.00  0.00    -0.018 OA 
HETATM   24  C   UNL     1      -7.188   6.625  69.444  1.00  0.00    -0.090 C  
BRANCH  24  25
HETATM   25  C   UNL     1      -7.883   5.535  70.257  1.00  0.00    -0.093 C  
BRANCH  25  26
HETATM   26  C   UNL     1      -8.754   5.855  71.413  1.00  0.00    -0.133 A  
HETATM   27  H2  UNL     1     -12.368   5.637  73.660  1.00  0.00     0.000 HD 
HETATM   28  H1  UNL     1     -11.962   4.108  72.884  1.00  0.00     0.000 HD 
HETATM   29  C   UNL     1      -8.829   7.120  71.988  1.00  0.00    -0.126 A  
HETATM   30  N   UNL     1      -9.741   4.990  71.878  1.00  0.00    -0.155 NA 
HETATM   31  N   UNL     1     -11.728   5.077  73.096  1.00  0.00    -0.250 NA 
HETATM   32  S   UNL     1     -10.200   7.254  73.002  1.00  0.00    -0.303 SA 
HETATM   33  C   UNL     1     -10.592   5.628  72.647  1.00  0.00    -0.225 A  
ENDBRANCH  25  26
BRANCH  25  34
HETATM   34  N   UNL     1      -7.642   4.253  70.199  1.00  0.00    -0.046 NA 
HETATM   35  H   UNL     1      -7.567   3.752  71.085  1.00  0.00     0.000 HD 
BRANCH  34  36
HETATM   36  O   UNL     1      -7.478   3.504  69.026  1.00  0.00    -0.052 OA 
HETATM   37  C   UNL     1      -7.084   2.159  69.107  1.00  0.00    -0.040 C  
ENDBRANCH  34  36
ENDBRANCH  25  34
ENDBRANCH  24  25
ENDBRANCH   7  21
TORSDOF 8
ENDMDL
MODEL      164
REMARK 921   NORMALIZED FREE ENERGY PREDICTED BY IDOCK:   -5.16 KCAL/MOL
REMARK 922        TOTAL FREE ENERGY PREDICTED BY IDOCK:   -8.73 KCAL/MOL
REMARK 923 INTER-LIGAND FREE ENERGY PREDICTED BY IDOCK:   -6.49 KCAL/MOL
REMARK 924 INTRA-LIGAND FREE ENERGY PREDICTED BY IDOCK:   -2.23 KCAL/MOL
REMARK 927      BINDING AFFINITY PREDICTED BY RF-SCORE:    0.00 PKD
ROOT
HETATM    1  C   UNL     1     -10.433   5.497  72.982  1.00  0.00    -0.212 C  
HETATM    2  S   UNL     1     -10.412   7.081  73.777  1.00  0.00    -0.264 SA 
HETATM    3  C   UNL     1     -10.424   8.244  72.389  1.00  0.00    -0.334 C  
HETATM    4  C   UNL     1     -10.609   7.702  70.991  1.00  0.00    -0.226 C  
HETATM    5  O   UNL     1      -9.633   3.406  70.655  1.00  0.00    -0.170 OA 
HETATM    6  CA  UNL     1     -10.541   6.394  70.644  1.00  0.00    -0.237 C  
HETATM    7  CA  UNL     1      -9.387   4.284  73.062  1.00  0.00    -0.110 C  
HETATM    8  N   UNL     1     -10.221   5.451  71.566  1.00  0.00    -0.212 N  
HETATM    9  C   UNL     1     -10.744   6.002  69.206  1.00  0.00    -0.332 C  
HETATM   10  OXT UNL     1     -11.474   6.635  68.455  1.00  0.00    -0.132 OA 
HETATM   11  C   UNL     1      -9.816   4.161  71.564  1.00  0.00    -0.184 C  
HETATM   12  O   UNL     1     -10.102   4.914  68.751  1.00  0.00    -0.161 OA 
ENDROOT
BRANCH   4  13
HETATM   13  C   UNL     1     -10.710   8.847  69.973  1.00  0.00    -0.228 C  
BRANCH  13  14
HETATM   14  S   UNL     1     -11.697  10.185  70.702  1.00  0.00    -0.361 SA 
BRANCH  14  15
HETATM   15  C   UNL     1     -11.886  11.237  69.353  1.00  0.00    -0.355 A  
HETATM   16  N   UNL     1     -11.871  10.913  68.082  1.00  0.00    -0.569 NA 
HETATM   17  C   UNL     1     -12.044  13.412  70.636  1.00  0.00    -0.295 C  
HETATM   18  N   UNL     1     -11.904  12.109  67.395  1.00  0.00    -0.565 NA 
HETATM   19  N   UNL     1     -11.962  12.593  69.460  1.00  0.00    -0.297 NA 
HETATM   20  N   UNL     1     -11.954  13.140  68.230  1.00  0.00    -0.335 NA 
ENDBRANCH  14  15
ENDBRANCH  13  14
ENDBRANCH   4  13
BRANCH   7  21
HETATM   21  N   UNL     1      -7.860   4.185  73.174  1.00  0.00    -0.084 N  
HETATM   22  H   UNL     1      -7.567   3.387  73.737  1.00  0.00     0.000 HD 
HETATM   23  O   UNL     1      -5.632   4.513  72.961  1.00  0.00    -0.007 OA 
HETATM   24  C   UNL     1      -6.761   4.925  72.689  1.00  0.00    -0.061 C  
BRANCH  24  25
HETATM   25  C   UNL     1      -6.878   6.300  72.033  1.00  0.00    -0.072 C  
BRANCH  25  26
HETATM   26  C   UNL     1      -6.761   6.482  70.566  1.00  0.00    -0.057 A  
HETATM   27  H2  UNL     1      -8.000   8.008  66.786  1.00  0.00     0.000 HD 
HETATM   28  H1  UNL     1      -8.251   9.161  68.096  1.00  0.00     0.000 HD 
HETATM   29  C   UNL     1      -6.401   5.458  69.695  1.00  0.00    -0.030 A  
HETATM   30  N   UNL     1      -7.221   7.618  69.907  1.00  0.00    -0.070 NA 
HETATM   31  N   UNL     1      -7.907   8.257  67.772  1.00  0.00    -0.112 NA 
HETATM   32  S   UNL     1      -6.758   5.876  68.076  1.00  0.00    -0.063 SA 
HETATM   33  C   UNL     1      -7.335   7.392  68.619  1.00  0.00    -0.096 A  
ENDBRANCH  25  26
BRANCH  25  34
HETATM   34  N   UNL     1      -6.869   7.453  72.645  1.00  0.00    -0.066 NA 
HETATM   35  H   UNL     1      -7.338   8.231  72.181  1.00  0.00     0.000 HD 
BRANCH  34  36
HETATM   36  O   UNL     1      -6.269   7.717  73.884  1.00  0.00    -0.074 OA 
HETATM   37  C   UNL     1      -5.653   8.958  74.111  1.00  0.00    -0.121 C  
ENDBRANCH  34  36
ENDBRANCH  25  34
ENDBRANCH  24  25
ENDBRANCH   7  21
TORSDOF 8
ENDMDL
MODEL      165
REMARK 921   NORMALIZED FREE ENERGY PREDICTED BY IDOCK:   -5.14 KCAL/MOL
REMARK 922        TOTAL FREE ENERGY PREDICTED BY IDOCK:   -8.70 KCAL/MOL
REMARK 923 INTER-LIGAND FREE ENERGY PREDICTED BY IDOCK:   -7.67 KCAL/MOL
REMARK 924 INTRA-LIGAND FREE ENERGY PREDICTED BY IDOCK:   -1.02 KCAL/MOL
REMARK 927      BINDING AFFINITY PREDICTED BY RF-SCORE:    0.00 PKD
ROOT
HETATM    1  C   UNL     1     -11.228   9.706  68.096  1.00  0.00     0.065 C  
HETATM    2  S   UNL     1     -10.169   8.907  66.921  1.00  0.00    -0.268 SA 
HETATM    3  C   UNL     1      -9.306   7.665  67.917  1.00  0.00    -0.139 C  
HETATM    4  C   UNL     1      -9.738   7.456  69.349  1.00  0.00    -0.159 C  
HETATM    5  O   UNL     1     -11.958  10.898  71.006  1.00  0.00    -0.326 OA 
HETATM    6  CA  UNL     1     -10.568   8.273  70.043  1.00  0.00    -0.235 C  
HETATM    7  CA  UNL     1     -11.306  11.245  68.541  1.00  0.00    -0.276 C  
HETATM    8  N   UNL     1     -11.031   9.420  69.485  1.00  0.00    -0.212 N  
HETATM    9  C   UNL     1     -10.908   7.939  71.470  1.00  0.00    -0.229 C  
HETATM   10  OXT UNL     1     -10.964   6.784  71.872  1.00  0.00    -0.229 OA 
HETATM   11  C   UNL     1     -11.622  10.559  69.911  1.00  0.00    -0.307 C  
HETATM   12  O   UNL     1     -11.164   8.952  72.311  1.00  0.00    -0.340 OA 
ENDROOT
BRANCH   4  13
HETATM   13  C   UNL     1      -8.972   6.286  69.984  1.00  0.00    -0.149 C  
BRANCH  13  14
HETATM   14  S   UNL     1      -9.790   4.736  69.513  1.00  0.00    -0.216 SA 
BRANCH  14  15
HETATM   15  C   UNL     1      -8.637   4.063  68.426  1.00  0.00    -0.095 A  
HETATM   16  N   UNL     1      -8.701   4.030  67.116  1.00  0.00    -0.108 NA 
HETATM   17  C   UNL     1      -7.032   3.148  70.155  1.00  0.00    -0.034 C  
HETATM   18  N   UNL     1      -7.632   3.258  66.712  1.00  0.00    -0.075 NA 
HETATM   19  N   UNL     1      -7.541   3.362  68.829  1.00  0.00    -0.052 NA 
HETATM   20  N   UNL     1      -6.921   2.841  67.754  1.00  0.00    -0.048 NA 
ENDBRANCH  14  15
ENDBRANCH  13  14
ENDBRANCH   4  13
BRANCH   7  21
HETATM   21  N   UNL     1     -10.271  12.360  68.747  1.00  0.00    -0.393 N  
HETATM   22  H   UNL     1      -9.751  12.245  69.616  1.00  0.00     0.000 HD 
HETATM   23  O   UNL     1      -8.941  14.173  68.501  1.00  0.00    -0.189 OA 
HETATM   24  C   UNL     1      -9.862  13.504  68.029  1.00  0.00    -0.238 C  
BRANCH  24  25
HETATM   25  C   UNL     1     -10.615  14.075  66.829  1.00  0.00    -0.277 C  
BRANCH  25  26
HETATM   26  C   UNL     1     -11.030  13.225  65.687  1.00  0.00    -0.277 A  
HETATM   27  H2  UNL     1     -10.332  10.974  62.138  1.00  0.00     0.000 HD 
HETATM   28  H1  UNL     1      -9.025  10.810  63.309  1.00  0.00     0.000 HD 
HETATM   29  C   UNL     1     -12.199  13.435  64.962  1.00  0.00    -0.424 A  
HETATM   30  N   UNL     1     -10.184  12.292  65.094  1.00  0.00    -0.276 NA 
HETATM   31  N   UNL     1      -9.941  11.182  63.057  1.00  0.00    -0.327 NA 
HETATM   32  S   UNL     1     -12.173  12.565  63.490  1.00  0.00    -0.524 SA 
HETATM   33  C   UNL     1     -10.638  11.940  63.913  1.00  0.00    -0.394 A  
ENDBRANCH  25  26
BRANCH  25  34
HETATM   34  N   UNL     1     -10.785  15.339  66.551  1.00  0.00    -0.308 NA 
HETATM   35  H   UNL     1     -10.738  15.611  65.569  1.00  0.00     0.000 HD 
BRANCH  34  36
HETATM   36  O   UNL     1     -11.026  16.357  67.484  1.00  0.00    -0.285 OA 
HETATM   37  C   UNL     1     -10.108  17.411  67.620  1.00  0.00    -0.327 C  
ENDBRANCH  34  36
ENDBRANCH  25  34
ENDBRANCH  24  25
ENDBRANCH   7  21
TORSDOF 8
ENDMDL
MODEL      166
REMARK 921   NORMALIZED FREE ENERGY PREDICTED BY IDOCK:   -5.13 KCAL/MOL
REMARK 922        TOTAL FREE ENERGY PREDICTED BY IDOCK:   -8.69 KCAL/MOL
REMARK 923 INTER-LIGAND FREE ENERGY PREDICTED BY IDOCK:   -7.82 KCAL/MOL
REMARK 924 INTRA-LIGAND FREE ENERGY PREDICTED BY IDOCK:   -0.87 KCAL/MOL
REMARK 927      BINDING AFFINITY PREDICTED BY RF-SCORE:    0.00 PKD
ROOT
HETATM    1  C   UNL     1      -9.544   8.210  70.591  1.00  0.00    -0.166 C  
HETATM    2  S   UNL     1      -9.069   9.589  69.586  1.00  0.00    -0.212 SA 
HETATM    3  C   UNL     1     -10.567  10.605  69.536  1.00  0.00    -0.230 C  
HETATM    4  C   UNL     1     -11.737  10.213  70.408  1.00  0.00    -0.390 C  
HETATM    5  O   UNL     1     -11.616   5.980  71.669  1.00  0.00    -0.277 OA 
HETATM    6  CA  UNL     1     -11.864   9.033  71.064  1.00  0.00    -0.285 C  
HETATM    7  CA  UNL     1      -9.571   6.642  70.253  1.00  0.00    -0.161 C  
HETATM    8  N   UNL     1     -10.930   8.059  70.917  1.00  0.00    -0.239 N  
HETATM    9  C   UNL     1     -13.091   8.781  71.897  1.00  0.00    -0.378 C  
HETATM   10  OXT UNL     1     -13.689   9.685  72.465  1.00  0.00    -0.392 OA 
HETATM   11  C   UNL     1     -10.835   6.734  71.170  1.00  0.00    -0.238 C  
HETATM   12  O   UNL     1     -13.524   7.516  72.016  1.00  0.00    -0.249 OA 
ENDROOT
BRANCH   4  13
HETATM   13  C   UNL     1     -12.859  11.258  70.317  1.00  0.00     0.010 C  
BRANCH  13  14
HETATM   14  S   UNL     1     -12.116  12.873  69.948  1.00  0.00    -0.206 SA 
BRANCH  14  15
HETATM   15  C   UNL     1     -12.766  13.839  71.215  1.00  0.00    -0.371 A  
HETATM   16  N   UNL     1     -13.681  13.494  72.091  1.00  0.00    -0.528 NA 
HETATM   17  C   UNL     1     -11.515  15.976  70.692  1.00  0.00    -0.402 C  
HETATM   18  N   UNL     1     -13.977  14.647  72.790  1.00  0.00    -0.508 NA 
HETATM   19  N   UNL     1     -12.474  15.159  71.383  1.00  0.00    -0.315 NA 
HETATM   20  N   UNL     1     -13.247  15.669  72.359  1.00  0.00    -0.443 NA 
ENDBRANCH  14  15
ENDBRANCH  13  14
ENDBRANCH   4  13
BRANCH   7  21
HETATM   21  N   UNL     1      -9.898   5.816  69.002  1.00  0.00    -0.148 N  
HETATM   22  H   UNL     1     -10.442   4.983  69.224  1.00  0.00     0.000 HD 
HETATM   23  O   UNL     1     -10.102   5.060  66.879  1.00  0.00    -0.188 OA 
HETATM   24  C   UNL     1      -9.632   5.925  67.620  1.00  0.00    -0.111 C  
BRANCH  24  25
HETATM   25  C   UNL     1      -8.640   6.918  67.017  1.00  0.00    -0.121 C  
BRANCH  25  26
HETATM   26  C   UNL     1      -9.051   7.916  66.000  1.00  0.00    -0.132 A  
HETATM   27  H2  UNL     1      -8.381  10.482  62.665  1.00  0.00     0.000 HD 
HETATM   28  H1  UNL     1      -7.515   8.953  62.526  1.00  0.00     0.000 HD 
HETATM   29  C   UNL     1      -9.878   8.999  66.282  1.00  0.00    -0.291 A  
HETATM   30  N   UNL     1      -8.467   7.994  64.739  1.00  0.00    -0.080 NA 
HETATM   31  N   UNL     1      -8.163   9.555  63.033  1.00  0.00    -0.149 NA 
HETATM   32  S   UNL     1      -9.818  10.160  65.027  1.00  0.00    -0.289 SA 
HETATM   33  C   UNL     1      -8.732   9.151  64.176  1.00  0.00    -0.141 A  
ENDBRANCH  25  26
BRANCH  25  34
HETATM   34  N   UNL     1      -7.340   6.880  67.130  1.00  0.00    -0.088 NA 
HETATM   35  H   UNL     1      -6.832   7.748  66.959  1.00  0.00     0.000 HD 
BRANCH  34  36
HETATM   36  O   UNL     1      -6.581   5.751  67.467  1.00  0.00    -0.052 OA 
HETATM   37  C   UNL     1      -6.617   5.252  68.779  1.00  0.00    -0.048 C  
ENDBRANCH  34  36
ENDBRANCH  25  34
ENDBRANCH  24  25
ENDBRANCH   7  21
TORSDOF 8
ENDMDL
MODEL      167
REMARK 921   NORMALIZED FREE ENERGY PREDICTED BY IDOCK:   -5.13 KCAL/MOL
REMARK 922        TOTAL FREE ENERGY PREDICTED BY IDOCK:   -8.69 KCAL/MOL
REMARK 923 INTER-LIGAND FREE ENERGY PREDICTED BY IDOCK:   -7.27 KCAL/MOL
REMARK 924 INTRA-LIGAND FREE ENERGY PREDICTED BY IDOCK:   -1.42 KCAL/MOL
REMARK 927      BINDING AFFINITY PREDICTED BY RF-SCORE:    0.00 PKD
ROOT
HETATM    1  C   UNL     1     -10.806  10.915  67.418  1.00  0.00    -0.279 C  
HETATM    2  S   UNL     1      -9.254  10.767  66.575  1.00  0.00    -0.172 SA 
HETATM    3  C   UNL     1      -8.400   9.467  67.502  1.00  0.00    -0.122 C  
HETATM    4  C   UNL     1      -9.159   8.723  68.576  1.00  0.00    -0.138 C  
HETATM    5  O   UNL     1     -12.700  10.927  70.032  1.00  0.00    -0.263 OA 
HETATM    6  CA  UNL     1     -10.364   9.089  69.077  1.00  0.00    -0.219 C  
HETATM    7  CA  UNL     1     -11.472  12.178  68.148  1.00  0.00    -0.317 C  
HETATM    8  N   UNL     1     -10.960  10.239  68.671  1.00  0.00    -0.238 N  
HETATM    9  C   UNL     1     -11.001   8.250  70.151  1.00  0.00    -0.222 C  
HETATM   10  OXT UNL     1     -10.826   7.040  70.221  1.00  0.00    -0.236 OA 
HETATM   11  C   UNL     1     -11.965  11.037  69.097  1.00  0.00    -0.324 C  
HETATM   12  O   UNL     1     -11.790   8.862  71.046  1.00  0.00    -0.283 OA 
ENDROOT
BRANCH   4  13
HETATM   13  C   UNL     1      -8.306   7.588  69.159  1.00  0.00    -0.135 C  
BRANCH  13  14
HETATM   14  S   UNL     1      -7.384   6.803  67.806  1.00  0.00    -0.099 SA 
BRANCH  14  15
HETATM   15  C   UNL     1      -8.548   5.681  67.213  1.00  0.00    -0.109 A  
HETATM   16  N   UNL     1      -9.595   5.940  66.465  1.00  0.00    -0.154 NA 
HETATM   17  C   UNL     1      -7.632   3.610  68.342  1.00  0.00    -0.057 C  
HETATM   18  N   UNL     1     -10.296   4.755  66.388  1.00  0.00    -0.281 NA 
HETATM   19  N   UNL     1      -8.576   4.366  67.566  1.00  0.00    -0.103 NA 
HETATM   20  N   UNL     1      -9.683   3.789  67.063  1.00  0.00    -0.179 NA 
ENDBRANCH  14  15
ENDBRANCH  13  14
ENDBRANCH   4  13
BRANCH   7  21
HETATM   21  N   UNL     1     -10.932  13.348  68.981  1.00  0.00    -0.347 N  
HETATM   22  H   UNL     1     -11.444  13.465  69.855  1.00  0.00     0.000 HD 
HETATM   23  O   UNL     1      -9.729  15.098  69.761  1.00  0.00    -0.187 OA 
HETATM   24  C   UNL     1      -9.901  14.301  68.837  1.00  0.00    -0.137 C  
BRANCH  24  25
HETATM   25  C   UNL     1      -9.132  14.538  67.539  1.00  0.00    -0.193 C  
BRANCH  25  26
HETATM   26  C   UNL     1      -9.784  15.102  66.332  1.00  0.00    -0.278 A  
HETATM   27  H2  UNL     1     -11.848  18.128  64.155  1.00  0.00     0.000 HD 
HETATM   28  H1  UNL     1     -10.640  18.791  65.254  1.00  0.00     0.000 HD 
HETATM   29  C   UNL     1     -10.608  14.359  65.490  1.00  0.00    -0.347 A  
HETATM   30  N   UNL     1      -9.822  16.466  66.061  1.00  0.00    -0.335 NA 
HETATM   31  N   UNL     1     -11.100  17.983  64.835  1.00  0.00    -0.484 NA 
HETATM   32  S   UNL     1     -11.512  15.381  64.459  1.00  0.00    -0.221 SA 
HETATM   33  C   UNL     1     -10.740  16.735  65.162  1.00  0.00    -0.143 A  
ENDBRANCH  25  26
BRANCH  25  34
HETATM   34  N   UNL     1      -7.936  14.097  67.255  1.00  0.00    -0.290 NA 
HETATM   35  H   UNL     1      -7.832  13.092  67.114  1.00  0.00     0.000 HD 
BRANCH  34  36
HETATM   36  O   UNL     1      -6.782  14.882  67.130  1.00  0.00    -0.265 OA 
HETATM   37  C   UNL     1      -6.306  15.604  68.235  1.00  0.00    -0.114 C  
ENDBRANCH  34  36
ENDBRANCH  25  34
ENDBRANCH  24  25
ENDBRANCH   7  21
TORSDOF 8
ENDMDL
MODEL      168
REMARK 921   NORMALIZED FREE ENERGY PREDICTED BY IDOCK:   -5.12 KCAL/MOL
REMARK 922        TOTAL FREE ENERGY PREDICTED BY IDOCK:   -8.67 KCAL/MOL
REMARK 923 INTER-LIGAND FREE ENERGY PREDICTED BY IDOCK:   -7.88 KCAL/MOL
REMARK 924 INTRA-LIGAND FREE ENERGY PREDICTED BY IDOCK:   -0.79 KCAL/MOL
REMARK 927      BINDING AFFINITY PREDICTED BY RF-SCORE:    0.00 PKD
ROOT
HETATM    1  C   UNL     1      -8.690  11.535  68.419  1.00  0.00    -0.160 C  
HETATM    2  S   UNL     1      -7.216  12.505  68.254  1.00  0.00    -0.121 SA 
HETATM    3  C   UNL     1      -7.777  13.966  67.344  1.00  0.00    -0.148 C  
HETATM    4  C   UNL     1      -9.257  14.137  67.090  1.00  0.00    -0.237 C  
HETATM    5  O   UNL     1     -11.516  10.353  67.398  1.00  0.00    -0.354 OA 
HETATM    6  CA  UNL     1     -10.199  13.181  67.280  1.00  0.00    -0.243 C  
HETATM    7  CA  UNL     1      -9.013  10.048  67.915  1.00  0.00    -0.131 C  
HETATM    8  N   UNL     1      -9.844  11.930  67.668  1.00  0.00    -0.184 N  
HETATM    9  C   UNL     1     -11.639  13.496  66.981  1.00  0.00    -0.359 C  
HETATM   10  OXT UNL     1     -12.100  14.623  67.111  1.00  0.00    -0.362 OA 
HETATM   11  C   UNL     1     -10.416  10.706  67.704  1.00  0.00    -0.227 C  
HETATM   12  O   UNL     1     -12.431  12.495  66.567  1.00  0.00    -0.396 OA 
ENDROOT
BRANCH   4  13
HETATM   13  C   UNL     1      -9.541  15.487  66.415  1.00  0.00    -0.291 C  
BRANCH  13  14
HETATM   14  S   UNL     1      -8.311  16.692  66.992  1.00  0.00    -0.205 SA 
BRANCH  14  15
HETATM   15  C   UNL     1      -9.196  18.163  66.862  1.00  0.00    -0.278 A  
HETATM   16  N   UNL     1     -10.142  18.450  65.998  1.00  0.00    -0.553 NA 
HETATM   17  C   UNL     1      -7.993  19.447  68.681  1.00  0.00    -0.368 C  
HETATM   18  N   UNL     1     -10.426  19.786  66.192  1.00  0.00    -0.504 NA 
HETATM   19  N   UNL     1      -8.920  19.276  67.596  1.00  0.00    -0.293 NA 
HETATM   20  N   UNL     1      -9.679  20.300  67.163  1.00  0.00    -0.427 NA 
ENDBRANCH  14  15
ENDBRANCH  13  14
ENDBRANCH   4  13
BRANCH   7  21
HETATM   21  N   UNL     1      -8.636   9.225  66.676  1.00  0.00    -0.126 N  
HETATM   22  H   UNL     1      -8.330   9.814  65.902  1.00  0.00     0.000 HD 
HETATM   23  O   UNL     1      -8.198   7.548  65.222  1.00  0.00    -0.129 OA 
HETATM   24  C   UNL     1      -8.608   7.853  66.343  1.00  0.00    -0.147 C  
BRANCH  24  25
HETATM   25  C   UNL     1      -9.238   6.754  67.195  1.00  0.00    -0.134 C  
BRANCH  25  26
HETATM   26  C   UNL     1      -9.077   5.317  66.867  1.00  0.00    -0.113 A  
HETATM   27  H2  UNL     1      -6.808   1.770  66.213  1.00  0.00     0.000 HD 
HETATM   28  H1  UNL     1      -6.161   2.754  67.524  1.00  0.00     0.000 HD 
HETATM   29  C   UNL     1      -9.802   4.674  65.868  1.00  0.00    -0.220 A  
HETATM   30  N   UNL     1      -8.032   4.541  67.362  1.00  0.00    -0.100 NA 
HETATM   31  N   UNL     1      -6.875   2.591  66.815  1.00  0.00    -0.043 NA 
HETATM   32  S   UNL     1      -9.098   3.168  65.470  1.00  0.00    -0.147 SA 
HETATM   33  C   UNL     1      -7.901   3.439  66.660  1.00  0.00    -0.081 A  
ENDBRANCH  25  26
BRANCH  25  34
HETATM   34  N   UNL     1     -10.133   6.917  68.132  1.00  0.00    -0.159 NA 
HETATM   35  H   UNL     1     -10.517   7.855  68.251  1.00  0.00     0.000 HD 
BRANCH  34  36
HETATM   36  O   UNL     1     -10.613   5.917  68.989  1.00  0.00    -0.233 OA 
HETATM   37  C   UNL     1     -11.372   6.270  70.116  1.00  0.00    -0.406 C  
ENDBRANCH  34  36
ENDBRANCH  25  34
ENDBRANCH  24  25
ENDBRANCH   7  21
TORSDOF 8
ENDMDL
MODEL      169
REMARK 921   NORMALIZED FREE ENERGY PREDICTED BY IDOCK:   -5.11 KCAL/MOL
REMARK 922        TOTAL FREE ENERGY PREDICTED BY IDOCK:   -8.66 KCAL/MOL
REMARK 923 INTER-LIGAND FREE ENERGY PREDICTED BY IDOCK:   -7.66 KCAL/MOL
REMARK 924 INTRA-LIGAND FREE ENERGY PREDICTED BY IDOCK:   -1.00 KCAL/MOL
REMARK 927      BINDING AFFINITY PREDICTED BY RF-SCORE:    0.00 PKD
ROOT
HETATM    1  C   UNL     1      -9.596  13.223  68.266  1.00  0.00    -0.221 C  
HETATM    2  S   UNL     1      -8.341  14.108  69.150  1.00  0.00     0.292 SA 
HETATM    3  C   UNL     1      -7.933  15.476  68.037  1.00  0.00    -0.133 C  
HETATM    4  C   UNL     1      -8.771  15.676  66.796  1.00  0.00    -0.306 C  
HETATM    5  O   UNL     1     -10.986  12.044  65.601  1.00  0.00    -0.279 OA 
HETATM    6  CA  UNL     1      -9.670  14.786  66.308  1.00  0.00    -0.303 C  
HETATM    7  CA  UNL     1      -9.631  11.702  67.762  1.00  0.00    -0.178 C  
HETATM    8  N   UNL     1      -9.831  13.575  66.898  1.00  0.00    -0.250 N  
HETATM    9  C   UNL     1     -10.433  15.122  65.056  1.00  0.00    -0.389 C  
HETATM   10  OXT UNL     1     -10.724  16.273  64.759  1.00  0.00    -0.680 OA 
HETATM   11  C   UNL     1     -10.393  12.386  66.580  1.00  0.00    -0.226 C  
HETATM   12  O   UNL     1     -10.806  14.112  64.254  1.00  0.00    -0.276 OA 
ENDROOT
BRANCH   4  13
HETATM   13  C   UNL     1      -8.346  16.949  66.050  1.00  0.00    -0.145 C  
BRANCH  13  14
HETATM   14  S   UNL     1      -9.253  18.358  66.748  1.00  0.00    -0.300 SA 
BRANCH  14  15
HETATM   15  C   UNL     1      -8.049  19.068  67.753  1.00  0.00    -0.268 A  
HETATM   16  N   UNL     1      -7.881  18.889  69.043  1.00  0.00    -0.260 NA 
HETATM   17  C   UNL     1      -6.956  20.527  65.999  1.00  0.00    -0.189 C  
HETATM   18  N   UNL     1      -6.899  19.783  69.415  1.00  0.00    -0.346 NA 
HETATM   19  N   UNL     1      -7.175  20.021  67.325  1.00  0.00    -0.239 NA 
HETATM   20  N   UNL     1      -6.466  20.482  68.372  1.00  0.00    -0.303 NA 
ENDBRANCH  14  15
ENDBRANCH  13  14
ENDBRANCH   4  13
BRANCH   7  21
HETATM   21  N   UNL     1      -8.583  10.727  67.207  1.00  0.00    -0.130 N  
HETATM   22  H   UNL     1      -7.780  11.213  66.809  1.00  0.00     0.000 HD 
HETATM   23  O   UNL     1      -7.420   8.878  66.618  1.00  0.00    -0.084 OA 
HETATM   24  C   UNL     1      -8.457   9.325  67.112  1.00  0.00    -0.124 C  
BRANCH  24  25
HETATM   25  C   UNL     1      -9.594   8.344  67.389  1.00  0.00    -0.157 C  
BRANCH  25  26
HETATM   26  C   UNL     1     -10.108   8.105  68.759  1.00  0.00    -0.199 A  
HETATM   27  H2  UNL     1      -9.843   8.162  73.011  1.00  0.00     0.000 HD 
HETATM   28  H1  UNL     1      -9.092   9.573  72.269  1.00  0.00     0.000 HD 
HETATM   29  C   UNL     1     -10.821   6.966  69.121  1.00  0.00    -0.228 A  
HETATM   30  N   UNL     1      -9.729   8.877  69.853  1.00  0.00    -0.172 NA 
HETATM   31  N   UNL     1      -9.618   8.705  72.176  1.00  0.00    -0.309 NA 
HETATM   32  S   UNL     1     -10.900   6.806  70.822  1.00  0.00    -0.263 SA 
HETATM   33  C   UNL     1     -10.019   8.263  70.977  1.00  0.00    -0.187 A  
ENDBRANCH  25  26
BRANCH  25  34
HETATM   34  N   UNL     1     -10.085   7.470  66.551  1.00  0.00    -0.460 NA 
HETATM   35  H   UNL     1     -11.058   7.589  66.270  1.00  0.00     0.000 HD 
BRANCH  34  36
HETATM   36  O   UNL     1      -9.391   6.382  66.005  1.00  0.00    -0.125 OA 
HETATM   37  C   UNL     1      -9.939   5.092  66.090  1.00  0.00    -0.218 C  
ENDBRANCH  34  36
ENDBRANCH  25  34
ENDBRANCH  24  25
ENDBRANCH   7  21
TORSDOF 8
ENDMDL
MODEL      170
REMARK 921   NORMALIZED FREE ENERGY PREDICTED BY IDOCK:   -5.07 KCAL/MOL
REMARK 922        TOTAL FREE ENERGY PREDICTED BY IDOCK:   -8.60 KCAL/MOL
REMARK 923 INTER-LIGAND FREE ENERGY PREDICTED BY IDOCK:   -7.03 KCAL/MOL
REMARK 924 INTRA-LIGAND FREE ENERGY PREDICTED BY IDOCK:   -1.57 KCAL/MOL
REMARK 927      BINDING AFFINITY PREDICTED BY RF-SCORE:    0.00 PKD
ROOT
HETATM    1  C   UNL     1      -8.014  13.734  69.363  1.00  0.00     0.511 C  
HETATM    2  S   UNL     1      -6.322  14.252  69.280  1.00  0.00    -0.117 SA 
HETATM    3  C   UNL     1      -6.446  16.029  68.954  1.00  0.00    -0.126 C  
HETATM    4  C   UNL     1      -7.809  16.679  68.991  1.00  0.00    -0.215 C  
HETATM    5  O   UNL     1     -11.116  13.796  68.470  1.00  0.00    -0.245 OA 
HETATM    6  CA  UNL     1      -8.991  16.017  69.021  1.00  0.00    -0.244 C  
HETATM    7  CA  UNL     1      -8.811  12.654  68.485  1.00  0.00    -0.044 C  
HETATM    8  N   UNL     1      -9.024  14.661  68.951  1.00  0.00    -0.167 N  
HETATM    9  C   UNL     1     -10.275  16.800  69.053  1.00  0.00    -0.310 C  
HETATM   10  OXT UNL     1     -10.354  17.898  69.588  1.00  0.00    -0.020 OA 
HETATM   11  C   UNL     1      -9.947  13.706  68.699  1.00  0.00    -0.161 C  
HETATM   12  O   UNL     1     -11.360  16.258  68.479  1.00  0.00    -0.367 OA 
ENDROOT
BRANCH   4  13
HETATM   13  C   UNL     1      -7.692  18.200  68.810  1.00  0.00    -0.264 C  
BRANCH  13  14
HETATM   14  S   UNL     1      -7.404  18.553  67.053  1.00  0.00    -0.215 SA 
BRANCH  14  15
HETATM   15  C   UNL     1      -9.009  18.498  66.432  1.00  0.00    -0.266 A  
HETATM   16  N   UNL     1      -9.565  17.527  65.744  1.00  0.00    -0.520 NA 
HETATM   17  C   UNL     1      -9.736  20.810  67.158  1.00  0.00    -0.317 C  
HETATM   18  N   UNL     1     -10.792  18.013  65.345  1.00  0.00    -0.502 NA 
HETATM   19  N   UNL     1      -9.876  19.547  66.490  1.00  0.00    -0.371 NA 
HETATM   20  N   UNL     1     -10.988  19.249  65.792  1.00  0.00    -0.247 NA 
ENDBRANCH  14  15
ENDBRANCH  13  14
ENDBRANCH   4  13
BRANCH   7  21
HETATM   21  N   UNL     1      -8.773  12.224  67.012  1.00  0.00    -0.194 N  
HETATM   22  H   UNL     1      -8.338  12.930  66.418  1.00  0.00     0.000 HD 
HETATM   23  O   UNL     1      -8.956  11.081  65.068  1.00  0.00    -0.189 OA 
HETATM   24  C   UNL     1      -9.191  11.094  66.278  1.00  0.00    -0.195 C  
BRANCH  24  25
HETATM   25  C   UNL     1     -10.089   9.993  66.840  1.00  0.00    -0.229 C  
BRANCH  25  26
HETATM   26  C   UNL     1      -9.696   8.564  66.800  1.00  0.00    -0.236 A  
HETATM   27  H2  UNL     1     -10.261   4.414  67.582  1.00  0.00     0.000 HD 
HETATM   28  H1  UNL     1     -11.763   5.231  67.151  1.00  0.00     0.000 HD 
HETATM   29  C   UNL     1      -8.397   8.121  67.032  1.00  0.00    -0.116 A  
HETATM   30  N   UNL     1     -10.623   7.527  66.757  1.00  0.00    -0.288 NA 
HETATM   31  N   UNL     1     -10.752   5.259  67.288  1.00  0.00    -0.124 NA 
HETATM   32  S   UNL     1      -8.366   6.436  67.320  1.00  0.00    -0.112 SA 
HETATM   33  C   UNL     1     -10.059   6.388  67.089  1.00  0.00    -0.168 A  
ENDBRANCH  25  26
BRANCH  25  34
HETATM   34  N   UNL     1     -11.338  10.121  67.200  1.00  0.00    -0.264 NA 
HETATM   35  H   UNL     1     -12.046   9.771  66.554  1.00  0.00     0.000 HD 
BRANCH  34  36
HETATM   36  O   UNL     1     -11.790  10.696  68.395  1.00  0.00    -0.439 OA 
HETATM   37  C   UNL     1     -11.279  10.246  69.623  1.00  0.00    -0.269 C  
ENDBRANCH  34  36
ENDBRANCH  25  34
ENDBRANCH  24  25
ENDBRANCH   7  21
TORSDOF 8
ENDMDL
MODEL      171
REMARK 921   NORMALIZED FREE ENERGY PREDICTED BY IDOCK:   -5.05 KCAL/MOL
REMARK 922        TOTAL FREE ENERGY PREDICTED BY IDOCK:   -8.57 KCAL/MOL
REMARK 923 INTER-LIGAND FREE ENERGY PREDICTED BY IDOCK:   -7.78 KCAL/MOL
REMARK 924 INTRA-LIGAND FREE ENERGY PREDICTED BY IDOCK:   -0.79 KCAL/MOL
REMARK 927      BINDING AFFINITY PREDICTED BY RF-SCORE:    0.00 PKD
ROOT
HETATM    1  C   UNL     1      -7.421  11.233  66.937  1.00  0.00    -0.145 C  
HETATM    2  S   UNL     1      -9.064  10.588  66.787  1.00  0.00    -0.152 SA 
HETATM    3  C   UNL     1     -10.104  12.066  66.900  1.00  0.00    -0.205 C  
HETATM    4  C   UNL     1      -9.437  13.422  66.918  1.00  0.00    -0.253 C  
HETATM    5  O   UNL     1      -5.188  13.244  68.117  1.00  0.00    -0.086 OA 
HETATM    6  CA  UNL     1      -8.109  13.638  67.087  1.00  0.00    -0.077 C  
HETATM    7  CA  UNL     1      -6.278  10.915  68.016  1.00  0.00    -0.053 C  
HETATM    8  N   UNL     1      -7.267  12.601  67.328  1.00  0.00    -0.137 N  
HETATM    9  C   UNL     1      -7.587  15.048  67.085  1.00  0.00    -0.139 C  
HETATM   10  OXT UNL     1      -8.113  15.937  66.428  1.00  0.00    -0.265 OA 
HETATM   11  C   UNL     1      -6.005  12.438  67.787  1.00  0.00    -0.111 C  
HETATM   12  O   UNL     1      -6.502  15.321  67.826  1.00  0.00    -0.134 OA 
ENDROOT
BRANCH   4  13
HETATM   13  C   UNL     1     -10.485  14.544  66.896  1.00  0.00    -0.269 C  
BRANCH  13  14
HETATM   14  S   UNL     1     -12.136  13.796  66.976  1.00  0.00    -0.354 SA 
BRANCH  14  15
HETATM   15  C   UNL     1     -12.458  13.513  65.308  1.00  0.00    -0.482 A  
HETATM   16  N   UNL     1     -12.857  12.393  64.752  1.00  0.00    -0.761 NA 
HETATM   17  C   UNL     1     -11.795  15.795  64.441  1.00  0.00    -0.148 C  
HETATM   18  N   UNL     1     -12.821  12.622  63.393  1.00  0.00    -0.659 NA 
HETATM   19  N   UNL     1     -12.212  14.426  64.328  1.00  0.00    -0.593 NA 
HETATM   20  N   UNL     1     -12.423  13.860  63.125  1.00  0.00    -0.640 NA 
ENDBRANCH  14  15
ENDBRANCH  13  14
ENDBRANCH   4  13
BRANCH   7  21
HETATM   21  N   UNL     1      -6.273  10.609  69.520  1.00  0.00    -0.051 N  
HETATM   22  H   UNL     1      -5.523  11.098  70.009  1.00  0.00     0.000 HD 
HETATM   23  O   UNL     1      -6.764   9.845  71.592  1.00  0.00    -0.241 OA 
HETATM   24  C   UNL     1      -7.049   9.818  70.394  1.00  0.00    -0.141 C  
BRANCH  24  25
HETATM   25  C   UNL     1      -8.075   8.786  69.929  1.00  0.00    -0.109 C  
BRANCH  25  26
HETATM   26  C   UNL     1      -9.482   8.814  70.394  1.00  0.00    -0.179 A  
HETATM   27  H2  UNL     1     -13.385   7.177  70.890  1.00  0.00     0.000 HD 
HETATM   28  H1  UNL     1     -12.117   5.964  71.056  1.00  0.00     0.000 HD 
HETATM   29  C   UNL     1     -10.295   9.940  70.305  1.00  0.00    -0.281 A  
HETATM   30  N   UNL     1     -10.185   7.665  70.745  1.00  0.00    -0.200 NA 
HETATM   31  N   UNL     1     -12.393   6.935  70.917  1.00  0.00    -0.368 NA 
HETATM   32  S   UNL     1     -11.939   9.530  70.535  1.00  0.00    -0.065 SA 
HETATM   33  C   UNL     1     -11.476   7.901  70.769  1.00  0.00    -0.263 A  
ENDBRANCH  25  26
BRANCH  25  34
HETATM   34  N   UNL     1      -7.822   7.679  69.284  1.00  0.00    -0.118 NA 
HETATM   35  H   UNL     1      -8.453   7.429  68.522  1.00  0.00     0.000 HD 
BRANCH  34  36
HETATM   36  O   UNL     1      -6.760   6.803  69.547  1.00  0.00    -0.047 OA 
HETATM   37  C   UNL     1      -6.704   6.123  70.774  1.00  0.00    -0.061 C  
ENDBRANCH  34  36
ENDBRANCH  25  34
ENDBRANCH  24  25
ENDBRANCH   7  21
TORSDOF 8
ENDMDL
MODEL      172
REMARK 921   NORMALIZED FREE ENERGY PREDICTED BY IDOCK:   -5.05 KCAL/MOL
REMARK 922        TOTAL FREE ENERGY PREDICTED BY IDOCK:   -8.56 KCAL/MOL
REMARK 923 INTER-LIGAND FREE ENERGY PREDICTED BY IDOCK:   -7.20 KCAL/MOL
REMARK 924 INTRA-LIGAND FREE ENERGY PREDICTED BY IDOCK:   -1.37 KCAL/MOL
REMARK 927      BINDING AFFINITY PREDICTED BY RF-SCORE:    0.00 PKD
ROOT
HETATM    1  C   UNL     1      -8.615  10.697  67.723  1.00  0.00    -0.123 C  
HETATM    2  S   UNL     1      -9.739  10.698  69.094  1.00  0.00    -0.153 SA 
HETATM    3  C   UNL     1     -10.549   9.083  68.969  1.00  0.00    -0.190 C  
HETATM    4  C   UNL     1     -10.040   8.094  67.947  1.00  0.00    -0.246 C  
HETATM    5  O   UNL     1      -7.725   9.995  64.700  1.00  0.00    -0.138 OA 
HETATM    6  CA  UNL     1      -9.171   8.380  66.946  1.00  0.00    -0.157 C  
HETATM    7  CA  UNL     1      -8.510  11.691  66.469  1.00  0.00    -0.141 C  
HETATM    8  N   UNL     1      -8.737   9.651  66.753  1.00  0.00    -0.134 N  
HETATM    9  C   UNL     1      -8.754   7.289  65.999  1.00  0.00    -0.151 C  
HETATM   10  OXT UNL     1      -8.679   6.118  66.347  1.00  0.00    -0.128 OA 
HETATM   11  C   UNL     1      -8.121  10.347  65.771  1.00  0.00    -0.155 C  
HETATM   12  O   UNL     1      -8.450   7.631  64.737  1.00  0.00    -0.080 OA 
ENDROOT
BRANCH   4  13
HETATM   13  C   UNL     1     -10.772   6.750  68.078  1.00  0.00    -0.241 C  
BRANCH  13  14
HETATM   14  S   UNL     1     -11.409   6.601  69.772  1.00  0.00    -0.330 SA 
BRANCH  14  15
HETATM   15  C   UNL     1     -10.222   5.580  70.488  1.00  0.00    -0.242 A  
HETATM   16  N   UNL     1      -9.121   5.129  69.936  1.00  0.00    -0.119 NA 
HETATM   17  C   UNL     1     -11.377   5.223  72.711  1.00  0.00    -0.276 C  
HETATM   18  N   UNL     1      -8.591   4.236  70.844  1.00  0.00    -0.082 NA 
HETATM   19  N   UNL     1     -10.360   5.013  71.719  1.00  0.00    -0.209 NA 
HETATM   20  N   UNL     1      -9.345   4.156  71.934  1.00  0.00    -0.126 NA 
ENDBRANCH  14  15
ENDBRANCH  13  14
ENDBRANCH   4  13
BRANCH   7  21
HETATM   21  N   UNL     1      -9.530  12.447  65.606  1.00  0.00    -0.435 N  
HETATM   22  H   UNL     1      -9.690  11.987  64.710  1.00  0.00     0.000 HD 
HETATM   23  O   UNL     1     -11.067  13.913  64.827  1.00  0.00    -0.348 OA 
HETATM   24  C   UNL     1     -10.300  13.621  65.747  1.00  0.00    -0.298 C  
BRANCH  24  25
HETATM   25  C   UNL     1     -10.096  14.650  66.857  1.00  0.00    -0.255 C  
BRANCH  25  26
HETATM   26  C   UNL     1     -11.022  14.751  68.011  1.00  0.00    -0.271 A  
HETATM   27  H2  UNL     1     -12.083  15.881  71.980  1.00  0.00     0.000 HD 
HETATM   28  H1  UNL     1     -11.057  17.077  71.189  1.00  0.00     0.000 HD 
HETATM   29  C   UNL     1     -11.877  13.724  68.399  1.00  0.00    -0.376 A  
HETATM   30  N   UNL     1     -10.955  15.782  68.944  1.00  0.00    -0.263 NA 
HETATM   31  N   UNL     1     -11.579  16.201  71.152  1.00  0.00    -0.431 NA 
HETATM   32  S   UNL     1     -12.488  13.995  69.973  1.00  0.00    -0.204 SA 
HETATM   33  C   UNL     1     -11.614  15.463  70.034  1.00  0.00    -0.321 A  
ENDBRANCH  25  26
BRANCH  25  34
HETATM   34  N   UNL     1      -9.272  15.662  66.833  1.00  0.00    -0.223 NA 
HETATM   35  H   UNL     1      -9.681  16.594  66.755  1.00  0.00     0.000 HD 
BRANCH  34  36
HETATM   36  O   UNL     1      -7.875  15.582  66.905  1.00  0.00    -0.218 OA 
HETATM   37  C   UNL     1      -7.267  14.971  68.013  1.00  0.00    -0.131 C  
ENDBRANCH  34  36
ENDBRANCH  25  34
ENDBRANCH  24  25
ENDBRANCH   7  21
TORSDOF 8
ENDMDL
MODEL      173
REMARK 921   NORMALIZED FREE ENERGY PREDICTED BY IDOCK:   -5.04 KCAL/MOL
REMARK 922        TOTAL FREE ENERGY PREDICTED BY IDOCK:   -8.56 KCAL/MOL
REMARK 923 INTER-LIGAND FREE ENERGY PREDICTED BY IDOCK:   -7.70 KCAL/MOL
REMARK 924 INTRA-LIGAND FREE ENERGY PREDICTED BY IDOCK:   -0.86 KCAL/MOL
REMARK 927      BINDING AFFINITY PREDICTED BY RF-SCORE:    0.00 PKD
ROOT
HETATM    1  C   UNL     1     -11.573  10.853  67.731  1.00  0.00    -0.146 C  
HETATM    2  S   UNL     1     -11.842  11.508  69.355  1.00  0.00    -0.354 SA 
HETATM    3  C   UNL     1     -11.681  13.295  69.116  1.00  0.00    -0.329 C  
HETATM    4  C   UNL     1     -11.544  13.828  67.709  1.00  0.00    -0.381 C  
HETATM    5  O   UNL     1     -10.161  10.777  64.828  1.00  0.00    -0.285 OA 
HETATM    6  CA  UNL     1     -11.299  13.077  66.608  1.00  0.00    -0.325 C  
HETATM    7  CA  UNL     1     -10.464   9.823  67.199  1.00  0.00    -0.250 C  
HETATM    8  N   UNL     1     -11.086  11.741  66.718  1.00  0.00    -0.292 N  
HETATM    9  C   UNL     1     -11.184  13.749  65.267  1.00  0.00    -0.307 C  
HETATM   10  OXT UNL     1     -11.805  14.768  64.995  1.00  0.00    -0.369 OA 
HETATM   11  C   UNL     1     -10.581  10.752  65.947  1.00  0.00    -0.147 C  
HETATM   12  O   UNL     1     -10.376  13.195  64.350  1.00  0.00    -0.402 OA 
ENDROOT
BRANCH   4  13
HETATM   13  C   UNL     1     -11.541  15.364  67.707  1.00  0.00    -0.228 C  
BRANCH  13  14
HETATM   14  S   UNL     1      -9.824  15.940  67.827  1.00  0.00    -0.223 SA 
BRANCH  14  15
HETATM   15  C   UNL     1     -10.045  17.645  67.901  1.00  0.00    -0.345 A  
HETATM   16  N   UNL     1      -9.922  18.420  68.954  1.00  0.00    -0.376 NA 
HETATM   17  C   UNL     1     -10.758  18.002  65.500  1.00  0.00     0.042 C  
HETATM   18  N   UNL     1     -10.350  19.667  68.548  1.00  0.00    -0.411 NA 
HETATM   19  N   UNL     1     -10.504  18.392  66.858  1.00  0.00    -0.392 NA 
HETATM   20  N   UNL     1     -10.712  19.657  67.270  1.00  0.00    -0.478 NA 
ENDBRANCH  14  15
ENDBRANCH  13  14
ENDBRANCH   4  13
BRANCH   7  21
HETATM   21  N   UNL     1      -8.985   9.573  67.522  1.00  0.00    -0.125 N  
HETATM   22  H   UNL     1      -8.366   9.965  66.813  1.00  0.00     0.000 HD 
HETATM   23  O   UNL     1      -7.040   8.961  68.502  1.00  0.00    -0.070 OA 
HETATM   24  C   UNL     1      -8.270   8.934  68.558  1.00  0.00    -0.116 C  
BRANCH  24  25
HETATM   25  C   UNL     1      -8.916   8.046  69.620  1.00  0.00    -0.145 C  
BRANCH  25  26
HETATM   26  C   UNL     1      -8.359   6.718  69.977  1.00  0.00    -0.135 A  
HETATM   27  H2  UNL     1      -8.649   2.583  70.961  1.00  0.00     0.000 HD 
HETATM   28  H1  UNL     1      -9.831   3.073  69.748  1.00  0.00     0.000 HD 
HETATM   29  C   UNL     1      -7.304   6.545  70.867  1.00  0.00    -0.083 A  
HETATM   30  N   UNL     1      -8.983   5.522  69.637  1.00  0.00    -0.116 NA 
HETATM   31  N   UNL     1      -9.041   3.302  70.351  1.00  0.00    -0.106 NA 
HETATM   32  S   UNL     1      -7.184   4.915  71.368  1.00  0.00    -0.063 SA 
HETATM   33  C   UNL     1      -8.508   4.531  70.356  1.00  0.00    -0.078 A  
ENDBRANCH  25  26
BRANCH  25  34
HETATM   34  N   UNL     1     -10.092   8.215  70.161  1.00  0.00    -0.192 NA 
HETATM   35  H   UNL     1     -10.905   8.096  69.554  1.00  0.00     0.000 HD 
BRANCH  34  36
HETATM   36  O   UNL     1     -10.338   8.545  71.500  1.00  0.00    -0.211 OA 
HETATM   37  C   UNL     1     -10.682   7.538  72.416  1.00  0.00    -0.263 C  
ENDBRANCH  34  36
ENDBRANCH  25  34
ENDBRANCH  24  25
ENDBRANCH   7  21
TORSDOF 8
ENDMDL
MODEL      174
REMARK 921   NORMALIZED FREE ENERGY PREDICTED BY IDOCK:   -5.04 KCAL/MOL
REMARK 922        TOTAL FREE ENERGY PREDICTED BY IDOCK:   -8.56 KCAL/MOL
REMARK 923 INTER-LIGAND FREE ENERGY PREDICTED BY IDOCK:   -5.97 KCAL/MOL
REMARK 924 INTRA-LIGAND FREE ENERGY PREDICTED BY IDOCK:   -2.59 KCAL/MOL
REMARK 927      BINDING AFFINITY PREDICTED BY RF-SCORE:    0.00 PKD
ROOT
HETATM    1  C   UNL     1     -10.256  11.859  68.452  1.00  0.00    -0.204 C  
HETATM    2  S   UNL     1     -11.516  10.834  69.161  1.00  0.00    -0.306 SA 
HETATM    3  C   UNL     1     -10.575   9.611  70.108  1.00  0.00    -0.272 C  
HETATM    4  C   UNL     1      -9.081   9.790  70.240  1.00  0.00    -0.208 C  
HETATM    5  O   UNL     1      -7.368  12.403  67.116  1.00  0.00    -0.139 OA 
HETATM    6  CA  UNL     1      -8.331  10.663  69.523  1.00  0.00     0.003 C  
HETATM    7  CA  UNL     1      -9.924  12.179  66.917  1.00  0.00    -0.204 C  
HETATM    8  N   UNL     1      -8.897  11.419  68.548  1.00  0.00    -0.160 N  
HETATM    9  C   UNL     1      -6.848  10.729  69.762  1.00  0.00    -0.151 C  
HETATM   10  OXT UNL     1      -6.354  10.497  70.857  1.00  0.00    -0.331 OA 
HETATM   11  C   UNL     1      -8.473  12.160  67.500  1.00  0.00    -0.169 C  
HETATM   12  O   UNL     1      -6.057  11.064  68.731  1.00  0.00    -0.043 OA 
ENDROOT
BRANCH   4  13
HETATM   13  C   UNL     1      -8.485   8.726  71.174  1.00  0.00    -0.187 C  
BRANCH  13  14
HETATM   14  S   UNL     1      -9.670   8.400  72.510  1.00  0.00    -0.261 SA 
BRANCH  14  15
HETATM   15  C   UNL     1      -9.845   6.692  72.394  1.00  0.00    -0.158 A  
HETATM   16  N   UNL     1      -8.962   5.776  72.717  1.00  0.00    -0.128 NA 
HETATM   17  C   UNL     1     -12.148   6.655  71.346  1.00  0.00    -0.347 C  
HETATM   18  N   UNL     1      -9.502   4.578  72.301  1.00  0.00    -0.131 NA 
HETATM   19  N   UNL     1     -10.921   6.081  71.824  1.00  0.00    -0.260 NA 
HETATM   20  N   UNL     1     -10.697   4.756  71.749  1.00  0.00    -0.051 NA 
ENDBRANCH  14  15
ENDBRANCH  13  14
ENDBRANCH   4  13
BRANCH   7  21
HETATM   21  N   UNL     1      -9.969  11.370  65.613  1.00  0.00    -0.229 N  
HETATM   22  H   UNL     1     -10.618  11.769  64.936  1.00  0.00     0.000 HD 
HETATM   23  O   UNL     1      -9.599   9.859  63.970  1.00  0.00    -0.253 OA 
HETATM   24  C   UNL     1      -9.333  10.210  65.121  1.00  0.00    -0.235 C  
BRANCH  24  25
HETATM   25  C   UNL     1      -8.506   9.258  65.983  1.00  0.00    -0.136 C  
BRANCH  25  26
HETATM   26  C   UNL     1      -9.139   8.285  66.906  1.00  0.00    -0.150 A  
HETATM   27  H2  UNL     1      -9.277   4.663  69.145  1.00  0.00     0.000 HD 
HETATM   28  H1  UNL     1      -7.667   5.380  69.119  1.00  0.00     0.000 HD 
HETATM   29  C   UNL     1     -10.489   7.953  66.859  1.00  0.00    -0.318 A  
HETATM   30  N   UNL     1      -8.404   7.451  67.744  1.00  0.00    -0.118 NA 
HETATM   31  N   UNL     1      -8.655   5.423  68.868  1.00  0.00    -0.099 NA 
HETATM   32  S   UNL     1     -10.803   6.532  67.756  1.00  0.00    -0.316 SA 
HETATM   33  C   UNL     1      -9.148   6.460  68.178  1.00  0.00    -0.113 A  
ENDBRANCH  25  26
BRANCH  25  34
HETATM   34  N   UNL     1      -7.217   9.318  66.185  1.00  0.00    -0.090 NA 
HETATM   35  H   UNL     1      -6.902   9.418  67.151  1.00  0.00     0.000 HD 
BRANCH  34  36
HETATM   36  O   UNL     1      -6.229   9.258  65.193  1.00  0.00    -0.066 OA 
HETATM   37  C   UNL     1      -5.658  10.444  64.706  1.00  0.00    -0.137 C  
ENDBRANCH  34  36
ENDBRANCH  25  34
ENDBRANCH  24  25
ENDBRANCH   7  21
TORSDOF 8
ENDMDL
MODEL      175
REMARK 921   NORMALIZED FREE ENERGY PREDICTED BY IDOCK:   -5.03 KCAL/MOL
REMARK 922        TOTAL FREE ENERGY PREDICTED BY IDOCK:   -8.54 KCAL/MOL
REMARK 923 INTER-LIGAND FREE ENERGY PREDICTED BY IDOCK:   -7.30 KCAL/MOL
REMARK 924 INTRA-LIGAND FREE ENERGY PREDICTED BY IDOCK:   -1.24 KCAL/MOL
REMARK 927      BINDING AFFINITY PREDICTED BY RF-SCORE:    0.00 PKD
ROOT
HETATM    1  C   UNL     1     -12.111  13.872  68.791  1.00  0.00    -0.309 C  
HETATM    2  S   UNL     1     -11.318  14.843  70.044  1.00  0.00    -0.273 SA 
HETATM    3  C   UNL     1     -10.140  15.850  69.107  1.00  0.00    -0.240 C  
HETATM    4  C   UNL     1     -10.185  15.802  67.598  1.00  0.00    -0.266 C  
HETATM    5  O   UNL     1     -12.186  12.185  66.040  1.00  0.00    -0.609 OA 
HETATM    6  CA  UNL     1     -10.878  14.897  66.864  1.00  0.00    -0.319 C  
HETATM    7  CA  UNL     1     -12.195  12.281  68.611  1.00  0.00     0.104 C  
HETATM    8  N   UNL     1     -11.554  13.889  67.472  1.00  0.00    -0.339 N  
HETATM    9  C   UNL     1     -10.826  14.971  65.363  1.00  0.00    -0.364 C  
HETATM   10  OXT UNL     1     -10.690  16.032  64.768  1.00  0.00    -0.611 OA 
HETATM   11  C   UNL     1     -12.107  12.710  67.110  1.00  0.00    -0.122 C  
HETATM   12  O   UNL     1     -10.944  13.828  64.670  1.00  0.00    -0.367 OA 
ENDROOT
BRANCH   4  13
HETATM   13  C   UNL     1      -9.197  16.809  66.991  1.00  0.00    -0.225 C  
BRANCH  13  14
HETATM   14  S   UNL     1      -8.911  18.137  68.196  1.00  0.00    -0.296 SA 
BRANCH  14  15
HETATM   15  C   UNL     1      -7.326  17.755  68.747  1.00  0.00    -0.271 A  
HETATM   16  N   UNL     1      -6.998  17.067  69.816  1.00  0.00     0.095 NA 
HETATM   17  C   UNL     1      -6.035  19.017  66.974  1.00  0.00    -0.169 C  
HETATM   18  N   UNL     1      -5.625  17.168  69.913  1.00  0.00    -0.213 NA 
HETATM   19  N   UNL     1      -6.190  18.243  68.174  1.00  0.00    -0.181 NA 
HETATM   20  N   UNL     1      -5.125  17.889  68.917  1.00  0.00    -0.163 NA 
ENDBRANCH  14  15
ENDBRANCH  13  14
ENDBRANCH   4  13
BRANCH   7  21
HETATM   21  N   UNL     1     -11.232  11.115  68.875  1.00  0.00    -0.231 N  
HETATM   22  H   UNL     1     -11.621  10.437  69.529  1.00  0.00     0.000 HD 
HETATM   23  O   UNL     1      -9.479   9.686  68.846  1.00  0.00    -0.150 OA 
HETATM   24  C   UNL     1      -9.941  10.751  68.435  1.00  0.00    -0.164 C  
BRANCH  24  25
HETATM   25  C   UNL     1      -9.010  11.679  67.657  1.00  0.00    -0.166 C  
BRANCH  25  26
HETATM   26  C   UNL     1      -8.377  11.265  66.381  1.00  0.00    -0.159 A  
HETATM   27  H2  UNL     1      -8.214   9.106  62.712  1.00  0.00     0.000 HD 
HETATM   28  H1  UNL     1      -9.837   9.683  63.084  1.00  0.00     0.000 HD 
HETATM   29  C   UNL     1      -7.020  10.987  66.255  1.00  0.00    -0.095 A  
HETATM   30  N   UNL     1      -9.113  10.897  65.259  1.00  0.00    -0.196 NA 
HETATM   31  N   UNL     1      -8.846   9.631  63.318  1.00  0.00    -0.234 NA 
HETATM   32  S   UNL     1      -6.697  10.155  64.797  1.00  0.00    -0.097 SA 
HETATM   33  C   UNL     1      -8.359  10.242  64.406  1.00  0.00    -0.166 A  
ENDBRANCH  25  26
BRANCH  25  34
HETATM   34  N   UNL     1      -8.494  12.798  68.089  1.00  0.00    -0.172 NA 
HETATM   35  H   UNL     1      -8.712  13.072  69.047  1.00  0.00     0.000 HD 
BRANCH  34  36
HETATM   36  O   UNL     1      -7.667  13.656  67.351  1.00  0.00    -0.170 OA 
HETATM   37  C   UNL     1      -6.487  14.154  67.928  1.00  0.00    -0.165 C  
ENDBRANCH  34  36
ENDBRANCH  25  34
ENDBRANCH  24  25
ENDBRANCH   7  21
TORSDOF 8
ENDMDL
MODEL      176
REMARK 921   NORMALIZED FREE ENERGY PREDICTED BY IDOCK:   -5.03 KCAL/MOL
REMARK 922        TOTAL FREE ENERGY PREDICTED BY IDOCK:   -8.54 KCAL/MOL
REMARK 923 INTER-LIGAND FREE ENERGY PREDICTED BY IDOCK:   -7.49 KCAL/MOL
REMARK 924 INTRA-LIGAND FREE ENERGY PREDICTED BY IDOCK:   -1.06 KCAL/MOL
REMARK 927      BINDING AFFINITY PREDICTED BY RF-SCORE:    0.00 PKD
ROOT
HETATM    1  C   UNL     1      -7.820   8.973  68.793  1.00  0.00    -0.096 C  
HETATM    2  S   UNL     1      -7.448   8.722  70.508  1.00  0.00    -0.087 SA 
HETATM    3  C   UNL     1      -7.648   6.935  70.720  1.00  0.00    -0.091 C  
HETATM    4  C   UNL     1      -7.889   6.082  69.497  1.00  0.00    -0.099 C  
HETATM    5  O   UNL     1      -9.429   8.387  66.056  1.00  0.00    -0.209 OA 
HETATM    6  CA  UNL     1      -8.200   6.552  68.264  1.00  0.00    -0.114 C  
HETATM    7  CA  UNL     1      -8.950   9.875  68.100  1.00  0.00    -0.118 C  
HETATM    8  N   UNL     1      -8.387   7.881  68.060  1.00  0.00    -0.123 N  
HETATM    9  C   UNL     1      -8.416   5.580  67.137  1.00  0.00    -0.110 C  
HETATM   10  OXT UNL     1      -7.828   4.508  67.081  1.00  0.00    -0.096 OA 
HETATM   11  C   UNL     1      -8.932   8.669  67.106  1.00  0.00    -0.132 C  
HETATM   12  O   UNL     1      -9.277   5.920  66.166  1.00  0.00    -0.159 OA 
ENDROOT
BRANCH   4  13
HETATM   13  C   UNL     1      -7.911   4.592  69.868  1.00  0.00    -0.060 C  
BRANCH  13  14
HETATM   14  S   UNL     1      -9.640   4.058  70.015  1.00  0.00    -0.194 SA 
BRANCH  14  15
HETATM   15  C   UNL     1     -10.173   5.008  71.348  1.00  0.00    -0.200 A  
HETATM   16  N   UNL     1      -9.922   4.808  72.620  1.00  0.00    -0.158 NA 
HETATM   17  C   UNL     1     -11.581   6.661  70.048  1.00  0.00    -0.362 C  
HETATM   18  N   UNL     1     -10.689   5.732  73.298  1.00  0.00    -0.252 NA 
HETATM   19  N   UNL     1     -11.044   6.049  71.231  1.00  0.00    -0.283 NA 
HETATM   20  N   UNL     1     -11.381   6.491  72.457  1.00  0.00    -0.270 NA 
ENDBRANCH  14  15
ENDBRANCH  13  14
ENDBRANCH   4  13
BRANCH   7  21
HETATM   21  N   UNL     1     -10.400  10.239  68.447  1.00  0.00    -0.168 N  
HETATM   22  H   UNL     1     -10.819   9.572  69.093  1.00  0.00     0.000 HD 
HETATM   23  O   UNL     1     -12.412  11.260  68.613  1.00  0.00    -0.442 OA 
HETATM   24  C   UNL     1     -11.296  11.270  68.091  1.00  0.00    -0.303 C  
BRANCH  24  25
HETATM   25  C   UNL     1     -11.047  12.267  66.961  1.00  0.00    -0.287 C  
BRANCH  25  26
HETATM   26  C   UNL     1     -10.693  13.682  67.227  1.00  0.00    -0.279 A  
HETATM   27  H2  UNL     1      -8.717  17.360  66.376  1.00  0.00     0.000 HD 
HETATM   28  H1  UNL     1      -9.287  16.547  64.920  1.00  0.00     0.000 HD 
HETATM   29  C   UNL     1     -10.411  14.174  68.498  1.00  0.00    -0.252 A  
HETATM   30  N   UNL     1     -10.386  14.587  66.215  1.00  0.00    -0.285 NA 
HETATM   31  N   UNL     1      -9.217  16.586  65.937  1.00  0.00    -0.496 NA 
HETATM   32  S   UNL     1      -9.651  15.703  68.410  1.00  0.00    -0.203 SA 
HETATM   33  C   UNL     1      -9.769  15.638  66.705  1.00  0.00    -0.241 A  
ENDBRANCH  25  26
BRANCH  25  34
HETATM   34  N   UNL     1     -11.316  12.087  65.696  1.00  0.00    -0.340 NA 
HETATM   35  H   UNL     1     -10.550  11.779  65.096  1.00  0.00     0.000 HD 
BRANCH  34  36
HETATM   36  O   UNL     1     -12.565  12.280  65.090  1.00  0.00    -0.585 OA 
HETATM   37  C   UNL     1     -12.640  12.516  63.708  1.00  0.00    -0.390 C  
ENDBRANCH  34  36
ENDBRANCH  25  34
ENDBRANCH  24  25
ENDBRANCH   7  21
TORSDOF 8
ENDMDL
MODEL      177
REMARK 921   NORMALIZED FREE ENERGY PREDICTED BY IDOCK:   -5.01 KCAL/MOL
REMARK 922        TOTAL FREE ENERGY PREDICTED BY IDOCK:   -8.52 KCAL/MOL
REMARK 923 INTER-LIGAND FREE ENERGY PREDICTED BY IDOCK:   -7.17 KCAL/MOL
REMARK 924 INTRA-LIGAND FREE ENERGY PREDICTED BY IDOCK:   -1.34 KCAL/MOL
REMARK 927      BINDING AFFINITY PREDICTED BY RF-SCORE:    0.00 PKD
ROOT
HETATM    1  C   UNL     1      -8.764   9.744  67.818  1.00  0.00    -0.129 C  
HETATM    2  S   UNL     1      -7.794  10.559  69.057  1.00  0.00    -0.139 SA 
HETATM    3  C   UNL     1      -7.078   9.186  69.996  1.00  0.00    -0.060 C  
HETATM    4  C   UNL     1      -7.280   7.778  69.488  1.00  0.00    -0.079 C  
HETATM    5  O   UNL     1     -10.706   7.409  66.723  1.00  0.00    -0.319 OA 
HETATM    6  CA  UNL     1      -8.145   7.415  68.509  1.00  0.00    -0.125 C  
HETATM    7  CA  UNL     1     -10.335   9.831  67.509  1.00  0.00    -0.237 C  
HETATM    8  N   UNL     1      -8.971   8.333  67.945  1.00  0.00    -0.134 N  
HETATM    9  C   UNL     1      -8.241   5.969  68.109  1.00  0.00    -0.113 C  
HETATM   10  OXT UNL     1      -7.282   5.211  68.172  1.00  0.00    -0.065 OA 
HETATM   11  C   UNL     1     -10.087   8.323  67.182  1.00  0.00    -0.264 C  
HETATM   12  O   UNL     1      -9.422   5.514  67.661  1.00  0.00    -0.114 OA 
ENDROOT
BRANCH   4  13
HETATM   13  C   UNL     1      -6.501   6.772  70.348  1.00  0.00    -0.043 C  
BRANCH  13  14
HETATM   14  S   UNL     1      -7.171   6.813  72.035  1.00  0.00    -0.081 SA 
BRANCH  14  15
HETATM   15  C   UNL     1      -8.760   6.200  71.780  1.00  0.00    -0.137 A  
HETATM   16  N   UNL     1      -9.096   4.989  71.404  1.00  0.00    -0.141 NA 
HETATM   17  C   UNL     1     -10.028   8.344  72.226  1.00  0.00    -0.313 C  
HETATM   18  N   UNL     1     -10.458   5.033  71.190  1.00  0.00    -0.178 NA 
HETATM   19  N   UNL     1      -9.882   6.971  71.833  1.00  0.00    -0.164 NA 
HETATM   20  N   UNL     1     -10.945   6.242  71.444  1.00  0.00    -0.264 NA 
ENDBRANCH  14  15
ENDBRANCH  13  14
ENDBRANCH   4  13
BRANCH   7  21
HETATM   21  N   UNL     1     -11.596   9.974  68.373  1.00  0.00    -0.499 N  
HETATM   22  H   UNL     1     -12.090   9.088  68.479  1.00  0.00     0.000 HD 
HETATM   23  O   UNL     1     -13.253  10.753  69.700  1.00  0.00     0.038 OA 
HETATM   24  C   UNL     1     -12.239  11.028  69.055  1.00  0.00    -0.097 C  
BRANCH  24  25
HETATM   25  C   UNL     1     -11.884  12.503  68.881  1.00  0.00    -0.301 C  
BRANCH  25  26
HETATM   26  C   UNL     1     -11.954  13.465  70.007  1.00  0.00    -0.337 A  
HETATM   27  H2  UNL     1     -13.876  15.384  73.290  1.00  0.00     0.000 HD 
HETATM   28  H1  UNL     1     -14.270  13.669  73.185  1.00  0.00     0.000 HD 
HETATM   29  C   UNL     1     -11.444  14.758  69.941  1.00  0.00    -0.281 A  
HETATM   30  N   UNL     1     -12.732  13.246  71.140  1.00  0.00    -0.352 NA 
HETATM   31  N   UNL     1     -13.751  14.476  72.839  1.00  0.00    -0.572 NA 
HETATM   32  S   UNL     1     -12.043  15.720  71.222  1.00  0.00    -0.458 SA 
HETATM   33  C   UNL     1     -12.911  14.366  71.802  1.00  0.00    -0.347 A  
ENDBRANCH  25  26
BRANCH  25  34
HETATM   34  N   UNL     1     -11.703  13.127  67.748  1.00  0.00    -0.343 NA 
HETATM   35  H   UNL     1     -12.509  13.609  67.348  1.00  0.00     0.000 HD 
BRANCH  34  36
HETATM   36  O   UNL     1     -10.500  13.194  67.033  1.00  0.00    -0.246 OA 
HETATM   37  C   UNL     1     -10.520  13.176  65.630  1.00  0.00    -0.282 C  
ENDBRANCH  34  36
ENDBRANCH  25  34
ENDBRANCH  24  25
ENDBRANCH   7  21
TORSDOF 8
ENDMDL
MODEL      178
REMARK 921   NORMALIZED FREE ENERGY PREDICTED BY IDOCK:   -5.01 KCAL/MOL
REMARK 922        TOTAL FREE ENERGY PREDICTED BY IDOCK:   -8.51 KCAL/MOL
REMARK 923 INTER-LIGAND FREE ENERGY PREDICTED BY IDOCK:   -7.43 KCAL/MOL
REMARK 924 INTRA-LIGAND FREE ENERGY PREDICTED BY IDOCK:   -1.08 KCAL/MOL
REMARK 927      BINDING AFFINITY PREDICTED BY RF-SCORE:    0.00 PKD
ROOT
HETATM    1  C   UNL     1      -9.601  12.862  67.776  1.00  0.00    -0.212 C  
HETATM    2  S   UNL     1      -8.263  11.769  68.172  1.00  0.00    -0.159 SA 
HETATM    3  C   UNL     1      -8.264  10.594  66.795  1.00  0.00    -0.130 C  
HETATM    4  C   UNL     1      -9.182  10.851  65.623  1.00  0.00    -0.227 C  
HETATM    5  O   UNL     1     -12.528  13.562  66.608  1.00  0.00    -0.335 OA 
HETATM    6  CA  UNL     1     -10.183  11.764  65.599  1.00  0.00    -0.246 C  
HETATM    7  CA  UNL     1     -10.935  13.206  68.597  1.00  0.00    -0.265 C  
HETATM    8  N   UNL     1     -10.478  12.493  66.705  1.00  0.00    -0.225 N  
HETATM    9  C   UNL     1     -11.021  11.907  64.358  1.00  0.00    -0.337 C  
HETATM   10  OXT UNL     1     -10.569  11.697  63.240  1.00  0.00    -0.380 OA 
HETATM   11  C   UNL     1     -11.502  13.261  67.141  1.00  0.00    -0.341 C  
HETATM   12  O   UNL     1     -12.300  12.287  64.500  1.00  0.00    -0.420 OA 
ENDROOT
BRANCH   4  13
HETATM   13  C   UNL     1      -8.950   9.816  64.512  1.00  0.00    -0.238 C  
BRANCH  13  14
HETATM   14  S   UNL     1      -7.245   9.207  64.635  1.00  0.00    -0.100 SA 
BRANCH  14  15
HETATM   15  C   UNL     1      -7.504   7.519  64.851  1.00  0.00    -0.089 A  
HETATM   16  N   UNL     1      -8.092   6.691  64.020  1.00  0.00    -0.071 NA 
HETATM   17  C   UNL     1      -6.547   7.323  67.185  1.00  0.00    -0.063 C  
HETATM   18  N   UNL     1      -8.197   5.496  64.702  1.00  0.00    -0.127 NA 
HETATM   19  N   UNL     1      -7.218   6.854  66.005  1.00  0.00    -0.072 NA 
HETATM   20  N   UNL     1      -7.670   5.589  65.917  1.00  0.00    -0.090 NA 
ENDBRANCH  14  15
ENDBRANCH  13  14
ENDBRANCH   4  13
BRANCH   7  21
HETATM   21  N   UNL     1     -11.886  12.400  69.493  1.00  0.00    -0.310 N  
HETATM   22  H   UNL     1     -12.569  12.996  69.960  1.00  0.00     0.000 HD 
HETATM   23  O   UNL     1     -12.977  10.746  70.583  1.00  0.00    -0.323 OA 
HETATM   24  C   UNL     1     -12.047  11.040  69.831  1.00  0.00    -0.361 C  
BRANCH  24  25
HETATM   25  C   UNL     1     -11.032   9.949  69.493  1.00  0.00    -0.242 C  
BRANCH  25  26
HETATM   26  C   UNL     1      -9.970   9.544  70.445  1.00  0.00    -0.267 A  
HETATM   27  H2  UNL     1      -6.114   8.049  71.471  1.00  0.00     0.000 HD 
HETATM   28  H1  UNL     1      -6.080   9.085  70.045  1.00  0.00     0.000 HD 
HETATM   29  C   UNL     1     -10.222   8.838  71.618  1.00  0.00    -0.324 A  
HETATM   30  N   UNL     1      -8.614   9.627  70.143  1.00  0.00    -0.208 NA 
HETATM   31  N   UNL     1      -6.600   8.661  70.813  1.00  0.00    -0.041 NA 
HETATM   32  S   UNL     1      -8.781   8.180  72.260  1.00  0.00    -0.200 SA 
HETATM   33  C   UNL     1      -7.909   8.892  70.973  1.00  0.00    -0.137 A  
ENDBRANCH  25  26
BRANCH  25  34
HETATM   34  N   UNL     1     -10.827   9.419  68.317  1.00  0.00    -0.435 NA 
HETATM   35  H   UNL     1     -11.073   9.983  67.503  1.00  0.00     0.000 HD 
BRANCH  34  36
HETATM   36  O   UNL     1     -10.301   8.143  68.075  1.00  0.00    -0.208 OA 
HETATM   37  C   UNL     1     -10.705   7.425  66.938  1.00  0.00    -0.254 C  
ENDBRANCH  34  36
ENDBRANCH  25  34
ENDBRANCH  24  25
ENDBRANCH   7  21
TORSDOF 8
ENDMDL
MODEL      179
REMARK 921   NORMALIZED FREE ENERGY PREDICTED BY IDOCK:   -4.99 KCAL/MOL
REMARK 922        TOTAL FREE ENERGY PREDICTED BY IDOCK:   -8.48 KCAL/MOL
REMARK 923 INTER-LIGAND FREE ENERGY PREDICTED BY IDOCK:   -7.47 KCAL/MOL
REMARK 924 INTRA-LIGAND FREE ENERGY PREDICTED BY IDOCK:   -1.01 KCAL/MOL
REMARK 927      BINDING AFFINITY PREDICTED BY RF-SCORE:    0.00 PKD
ROOT
HETATM    1  C   UNL     1      -8.256  10.769  69.132  1.00  0.00    -0.120 C  
HETATM    2  S   UNL     1      -6.750  11.640  68.796  1.00  0.00    -0.084 SA 
HETATM    3  C   UNL     1      -7.260  12.915  67.615  1.00  0.00    -0.147 C  
HETATM    4  C   UNL     1      -8.733  13.081  67.319  1.00  0.00    -0.209 C  
HETATM    5  O   UNL     1     -11.117   9.502  68.335  1.00  0.00    -0.121 OA 
HETATM    6  CA  UNL     1      -9.707  12.211  67.683  1.00  0.00    -0.188 C  
HETATM    7  CA  UNL     1      -8.627   9.224  68.924  1.00  0.00    -0.130 C  
HETATM    8  N   UNL     1      -9.394  11.048  68.308  1.00  0.00    -0.166 N  
HETATM    9  C   UNL     1     -11.135  12.508  67.315  1.00  0.00    -0.274 C  
HETATM   10  OXT UNL     1     -11.558  13.652  67.220  1.00  0.00    -0.318 OA 
HETATM   11  C   UNL     1     -10.006   9.873  68.577  1.00  0.00    -0.159 C  
HETATM   12  O   UNL     1     -11.959  11.471  67.096  1.00  0.00    -0.581 OA 
ENDROOT
BRANCH   4  13
HETATM   13  C   UNL     1      -8.970  14.282  66.393  1.00  0.00    -0.061 C  
BRANCH  13  14
HETATM   14  S   UNL     1      -8.877  15.802  67.381  1.00  0.00    -0.192 SA 
BRANCH  14  15
HETATM   15  C   UNL     1      -9.808  16.885  66.420  1.00  0.00    -0.305 A  
HETATM   16  N   UNL     1     -10.538  16.592  65.369  1.00  0.00    -0.580 NA 
HETATM   17  C   UNL     1      -9.173  19.027  67.608  1.00  0.00    -0.294 C  
HETATM   18  N   UNL     1     -10.956  17.804  64.860  1.00  0.00    -0.691 NA 
HETATM   19  N   UNL     1      -9.798  18.238  66.584  1.00  0.00    -0.333 NA 
HETATM   20  N   UNL     1     -10.503  18.815  65.593  1.00  0.00    -0.585 NA 
ENDBRANCH  14  15
ENDBRANCH  13  14
ENDBRANCH   4  13
BRANCH   7  21
HETATM   21  N   UNL     1      -8.274   8.164  67.871  1.00  0.00    -0.127 N  
HETATM   22  H   UNL     1      -7.936   8.581  67.004  1.00  0.00     0.000 HD 
HETATM   23  O   UNL     1      -7.894   6.223  66.772  1.00  0.00    -0.101 OA 
HETATM   24  C   UNL     1      -8.301   6.754  67.807  1.00  0.00    -0.119 C  
BRANCH  24  25
HETATM   25  C   UNL     1      -8.985   5.864  68.843  1.00  0.00    -0.118 C  
BRANCH  25  26
HETATM   26  C   UNL     1      -9.077   6.253  70.271  1.00  0.00    -0.154 A  
HETATM   27  H2  UNL     1     -10.604   8.539  73.526  1.00  0.00     0.000 HD 
HETATM   28  H1  UNL     1     -11.842   8.155  72.331  1.00  0.00     0.000 HD 
HETATM   29  C   UNL     1      -7.971   6.364  71.107  1.00  0.00    -0.116 A  
HETATM   30  N   UNL     1     -10.241   6.762  70.841  1.00  0.00    -0.195 NA 
HETATM   31  N   UNL     1     -10.881   8.070  72.662  1.00  0.00    -0.346 NA 
HETATM   32  S   UNL     1      -8.365   7.214  72.538  1.00  0.00    -0.108 SA 
HETATM   33  C   UNL     1      -9.976   7.354  71.983  1.00  0.00    -0.166 A  
ENDBRANCH  25  26
BRANCH  25  34
HETATM   34  N   UNL     1      -9.354   4.623  68.675  1.00  0.00    -0.129 NA 
HETATM   35  H   UNL     1      -9.561   4.323  67.722  1.00  0.00     0.000 HD 
BRANCH  34  36
HETATM   36  O   UNL     1      -9.490   3.666  69.690  1.00  0.00    -0.162 OA 
HETATM   37  C   UNL     1      -8.860   2.418  69.561  1.00  0.00    -0.091 C  
ENDBRANCH  34  36
ENDBRANCH  25  34
ENDBRANCH  24  25
ENDBRANCH   7  21
TORSDOF 8
ENDMDL
MODEL      180
REMARK 921   NORMALIZED FREE ENERGY PREDICTED BY IDOCK:   -4.97 KCAL/MOL
REMARK 922        TOTAL FREE ENERGY PREDICTED BY IDOCK:   -8.46 KCAL/MOL
REMARK 923 INTER-LIGAND FREE ENERGY PREDICTED BY IDOCK:   -7.15 KCAL/MOL
REMARK 924 INTRA-LIGAND FREE ENERGY PREDICTED BY IDOCK:   -1.31 KCAL/MOL
REMARK 927      BINDING AFFINITY PREDICTED BY RF-SCORE:    0.00 PKD
ROOT
HETATM    1  C   UNL     1     -10.405  13.132  65.973  1.00  0.00    -0.287 C  
HETATM    2  S   UNL     1     -12.045  13.735  66.271  1.00  0.00    -0.449 SA 
HETATM    3  C   UNL     1     -11.912  14.515  67.900  1.00  0.00    -0.287 C  
HETATM    4  C   UNL     1     -10.547  14.642  68.534  1.00  0.00    -0.245 C  
HETATM    5  O   UNL     1      -7.588  11.823  66.854  1.00  0.00    -0.152 OA 
HETATM    6  CA  UNL     1      -9.422  14.022  68.101  1.00  0.00    -0.215 C  
HETATM    7  CA  UNL     1      -9.883  11.641  65.703  1.00  0.00    -0.240 C  
HETATM    8  N   UNL     1      -9.472  13.153  67.059  1.00  0.00    -0.234 N  
HETATM    9  C   UNL     1      -8.129  14.242  68.836  1.00  0.00    -0.063 C  
HETATM   10  OXT UNL     1      -7.877  15.294  69.409  1.00  0.00    -0.204 OA 
HETATM   11  C   UNL     1      -8.678  12.194  66.532  1.00  0.00    -0.114 C  
HETATM   12  O   UNL     1      -7.231  13.245  68.847  1.00  0.00    -0.102 OA 
ENDROOT
BRANCH   4  13
HETATM   13  C   UNL     1     -10.628  15.433  69.848  1.00  0.00    -0.303 C  
BRANCH  13  14
HETATM   14  S   UNL     1     -12.354  15.927  70.120  1.00  0.00     0.022 SA 
BRANCH  14  15
HETATM   15  C   UNL     1     -12.480  15.777  71.830  1.00  0.00    -0.458 A  
HETATM   16  N   UNL     1     -12.005  16.596  72.739  1.00  0.00    -0.425 NA 
HETATM   17  C   UNL     1     -13.676  13.548  71.891  1.00  0.00    -0.392 C  
HETATM   18  N   UNL     1     -12.222  15.971  73.950  1.00  0.00    -0.518 NA 
HETATM   19  N   UNL     1     -13.010  14.689  72.455  1.00  0.00    -0.344 NA 
HETATM   20  N   UNL     1     -12.831  14.803  73.784  1.00  0.00    -0.474 NA 
ENDBRANCH  14  15
ENDBRANCH  13  14
ENDBRANCH   4  13
BRANCH   7  21
HETATM   21  N   UNL     1     -10.276  10.251  66.223  1.00  0.00    -0.233 N  
HETATM   22  H   UNL     1     -11.190  10.255  66.675  1.00  0.00     0.000 HD 
HETATM   23  O   UNL     1     -10.332   8.046  66.725  1.00  0.00    -0.311 OA 
HETATM   24  C   UNL     1      -9.684   8.970  66.231  1.00  0.00    -0.275 C  
BRANCH  24  25
HETATM   25  C   UNL     1      -8.227   8.699  65.859  1.00  0.00    -0.123 C  
BRANCH  25  26
HETATM   26  C   UNL     1      -7.843   8.179  64.525  1.00  0.00    -0.138 A  
HETATM   27  H2  UNL     1      -6.317   5.223  61.862  1.00  0.00     0.000 HD 
HETATM   28  H1  UNL     1      -7.289   4.528  63.157  1.00  0.00     0.000 HD 
HETATM   29  C   UNL     1      -7.194   8.946  63.562  1.00  0.00    -0.093 A  
HETATM   30  N   UNL     1      -7.885   6.826  64.201  1.00  0.00    -0.112 NA 
HETATM   31  N   UNL     1      -6.909   5.348  62.684  1.00  0.00    -0.025 NA 
HETATM   32  S   UNL     1      -6.536   7.959  62.331  1.00  0.00    -0.086 SA 
HETATM   33  C   UNL     1      -7.173   6.585  63.124  1.00  0.00    -0.059 A  
ENDBRANCH  25  26
BRANCH  25  34
HETATM   34  N   UNL     1      -7.211   8.670  66.678  1.00  0.00    -0.080 NA 
HETATM   35  H   UNL     1      -6.281   8.773  66.271  1.00  0.00     0.000 HD 
BRANCH  34  36
HETATM   36  O   UNL     1      -7.285   8.509  68.069  1.00  0.00    -0.084 OA 
HETATM   37  C   UNL     1      -6.117   8.257  68.805  1.00  0.00    -0.044 C  
ENDBRANCH  34  36
ENDBRANCH  25  34
ENDBRANCH  24  25
ENDBRANCH   7  21
TORSDOF 8
ENDMDL
MODEL      181
REMARK 921   NORMALIZED FREE ENERGY PREDICTED BY IDOCK:   -4.97 KCAL/MOL
REMARK 922        TOTAL FREE ENERGY PREDICTED BY IDOCK:   -8.46 KCAL/MOL
REMARK 923 INTER-LIGAND FREE ENERGY PREDICTED BY IDOCK:   -7.10 KCAL/MOL
REMARK 924 INTRA-LIGAND FREE ENERGY PREDICTED BY IDOCK:   -1.36 KCAL/MOL
REMARK 927      BINDING AFFINITY PREDICTED BY RF-SCORE:    0.00 PKD
ROOT
HETATM    1  C   UNL     1      -9.469  10.981  64.622  1.00  0.00    -0.234 C  
HETATM    2  S   UNL     1     -11.152  11.498  64.826  1.00  0.00    -0.182 SA 
HETATM    3  C   UNL     1     -11.103  12.486  66.343  1.00  0.00    -0.290 C  
HETATM    4  C   UNL     1      -9.762  12.790  66.967  1.00  0.00    -0.224 C  
HETATM    5  O   UNL     1      -6.585   9.998  65.688  1.00  0.00    -0.090 OA 
HETATM    6  CA  UNL     1      -8.589  12.201  66.627  1.00  0.00    -0.122 C  
HETATM    7  CA  UNL     1      -8.840   9.508  64.549  1.00  0.00    -0.213 C  
HETATM    8  N   UNL     1      -8.560  11.206  65.704  1.00  0.00    -0.133 N  
HETATM    9  C   UNL     1      -7.328  12.604  67.340  1.00  0.00    -0.140 C  
HETATM   10  OXT UNL     1      -7.160  13.735  67.776  1.00  0.00    -0.134 OA 
HETATM   11  C   UNL     1      -7.692  10.246  65.311  1.00  0.00    -0.144 C  
HETATM   12  O   UNL     1      -6.363  11.683  67.486  1.00  0.00    -0.067 OA 
ENDROOT
BRANCH   4  13
HETATM   13  C   UNL     1      -9.921  13.733  68.169  1.00  0.00    -0.242 C  
BRANCH  13  14
HETATM   14  S   UNL     1     -11.414  14.736  67.923  1.00  0.00    -0.352 SA 
BRANCH  14  15
HETATM   15  C   UNL     1     -10.737  16.213  67.355  1.00  0.00    -0.291 A  
HETATM   16  N   UNL     1     -10.369  17.249  68.073  1.00  0.00    -0.335 NA 
HETATM   17  C   UNL     1     -10.852  15.712  64.878  1.00  0.00    -0.418 C  
HETATM   18  N   UNL     1     -10.040  18.231  67.162  1.00  0.00    -0.339 NA 
HETATM   19  N   UNL     1     -10.610  16.526  66.036  1.00  0.00    -0.292 NA 
HETATM   20  N   UNL     1     -10.190  17.799  65.915  1.00  0.00    -0.573 NA 
ENDBRANCH  14  15
ENDBRANCH  13  14
ENDBRANCH   4  13
BRANCH   7  21
HETATM   21  N   UNL     1      -9.145   8.172  65.239  1.00  0.00    -0.394 N  
HETATM   22  H   UNL     1      -9.493   7.472  64.584  1.00  0.00     0.000 HD 
HETATM   23  O   UNL     1      -9.370   6.493  66.739  1.00  0.00    -0.146 OA 
HETATM   24  C   UNL     1      -9.063   7.673  66.557  1.00  0.00    -0.167 C  
BRANCH  24  25
HETATM   25  C   UNL     1      -8.820   8.544  67.787  1.00  0.00    -0.137 C  
BRANCH  25  26
HETATM   26  C   UNL     1      -9.928   8.981  68.670  1.00  0.00    -0.172 A  
HETATM   27  H2  UNL     1     -13.001  11.655  69.920  1.00  0.00     0.000 HD 
HETATM   28  H1  UNL     1     -12.869  11.550  68.165  1.00  0.00     0.000 HD 
HETATM   29  C   UNL     1      -9.904   8.843  70.055  1.00  0.00    -0.174 A  
HETATM   30  N   UNL     1     -10.983   9.772  68.223  1.00  0.00    -0.205 NA 
HETATM   31  N   UNL     1     -12.570  11.245  69.091  1.00  0.00    -0.218 NA 
HETATM   32  S   UNL     1     -11.115   9.801  70.789  1.00  0.00    -0.365 SA 
HETATM   33  C   UNL     1     -11.618  10.313  69.237  1.00  0.00    -0.119 A  
ENDBRANCH  25  26
BRANCH  25  34
HETATM   34  N   UNL     1      -7.715   9.172  68.085  1.00  0.00    -0.091 NA 
HETATM   35  H   UNL     1      -7.706  10.185  67.959  1.00  0.00     0.000 HD 
BRANCH  34  36
HETATM   36  O   UNL     1      -6.539   8.578  68.563  1.00  0.00    -0.057 OA 
HETATM   37  C   UNL     1      -5.973   9.022  69.768  1.00  0.00    -0.035 C  
ENDBRANCH  34  36
ENDBRANCH  25  34
ENDBRANCH  24  25
ENDBRANCH   7  21
TORSDOF 8
ENDMDL
MODEL      182
REMARK 921   NORMALIZED FREE ENERGY PREDICTED BY IDOCK:   -4.96 KCAL/MOL
REMARK 922        TOTAL FREE ENERGY PREDICTED BY IDOCK:   -8.44 KCAL/MOL
REMARK 923 INTER-LIGAND FREE ENERGY PREDICTED BY IDOCK:   -7.33 KCAL/MOL
REMARK 924 INTRA-LIGAND FREE ENERGY PREDICTED BY IDOCK:   -1.12 KCAL/MOL
REMARK 927      BINDING AFFINITY PREDICTED BY RF-SCORE:    0.00 PKD
ROOT
HETATM    1  C   UNL     1      -9.267  10.048  69.478  1.00  0.00    -0.221 C  
HETATM    2  S   UNL     1      -8.303  10.853  68.229  1.00  0.00    -0.136 SA 
HETATM    3  C   UNL     1      -9.250  12.355  67.874  1.00  0.00    -0.192 C  
HETATM    4  C   UNL     1     -10.444  12.680  68.740  1.00  0.00    -0.167 C  
HETATM    5  O   UNL     1     -12.033   9.161  70.889  1.00  0.00    -0.285 OA 
HETATM    6  CA  UNL     1     -11.022  11.832  69.627  1.00  0.00     0.010 C  
HETATM    7  CA  UNL     1      -9.950   8.597  69.485  1.00  0.00    -0.196 C  
HETATM    8  N   UNL     1     -10.579  10.554  69.747  1.00  0.00    -0.247 N  
HETATM    9  C   UNL     1     -12.213  12.295  70.421  1.00  0.00    -0.288 C  
HETATM   10  OXT UNL     1     -12.364  13.465  70.745  1.00  0.00    -0.353 OA 
HETATM   11  C   UNL     1     -11.029   9.398  70.285  1.00  0.00    -0.262 C  
HETATM   12  O   UNL     1     -13.123  11.379  70.784  1.00  0.00    -0.126 OA 
ENDROOT
BRANCH   4  13
HETATM   13  C   UNL     1     -11.038  14.044  68.360  1.00  0.00    -0.253 C  
BRANCH  13  14
HETATM   14  S   UNL     1      -9.876  14.891  67.251  1.00  0.00    -0.231 SA 
BRANCH  14  15
HETATM   15  C   UNL     1     -10.876  15.189  65.882  1.00  0.00    -0.339 A  
HETATM   16  N   UNL     1     -11.569  14.311  65.195  1.00  0.00    -0.340 NA 
HETATM   17  C   UNL     1     -10.419  17.667  65.658  1.00  0.00    -0.144 C  
HETATM   18  N   UNL     1     -12.071  15.001  64.112  1.00  0.00    -0.535 NA 
HETATM   19  N   UNL     1     -10.970  16.400  65.266  1.00  0.00    -0.342 NA 
HETATM   20  N   UNL     1     -11.705  16.278  64.145  1.00  0.00    -0.904 NA 
ENDBRANCH  14  15
ENDBRANCH  13  14
ENDBRANCH   4  13
BRANCH   7  21
HETATM   21  N   UNL     1     -10.635   7.724  68.424  1.00  0.00    -0.355 N  
HETATM   22  H   UNL     1     -11.566   8.066  68.189  1.00  0.00     0.000 HD 
HETATM   23  O   UNL     1     -11.109   6.150  66.871  1.00  0.00    -0.334 OA 
HETATM   24  C   UNL     1     -10.293   6.565  67.695  1.00  0.00    -0.194 C  
BRANCH  24  25
HETATM   25  C   UNL     1      -9.082   5.687  68.004  1.00  0.00    -0.107 C  
BRANCH  25  26
HETATM   26  C   UNL     1      -8.949   4.958  69.288  1.00  0.00    -0.094 A  
HETATM   27  H2  UNL     1      -6.745   3.140  72.449  1.00  0.00     0.000 HD 
HETATM   28  H1  UNL     1      -5.977   4.608  71.848  1.00  0.00     0.000 HD 
HETATM   29  C   UNL     1      -9.765   3.891  69.650  1.00  0.00    -0.138 A  
HETATM   30  N   UNL     1      -7.860   5.121  70.140  1.00  0.00    -0.077 NA 
HETATM   31  N   UNL     1      -6.756   3.950  71.828  1.00  0.00    -0.022 NA 
HETATM   32  S   UNL     1      -9.099   3.027  70.967  1.00  0.00    -0.128 SA 
HETATM   33  C   UNL     1      -7.794   4.131  71.001  1.00  0.00    -0.063 A  
ENDBRANCH  25  26
BRANCH  25  34
HETATM   34  N   UNL     1      -7.966   5.640  67.327  1.00  0.00    -0.102 NA 
HETATM   35  H   UNL     1      -7.546   4.721  67.185  1.00  0.00     0.000 HD 
BRANCH  34  36
HETATM   36  O   UNL     1      -7.295   6.741  66.777  1.00  0.00    -0.078 OA 
HETATM   37  C   UNL     1      -7.502   7.082  65.431  1.00  0.00    -0.088 C  
ENDBRANCH  34  36
ENDBRANCH  25  34
ENDBRANCH  24  25
ENDBRANCH   7  21
TORSDOF 8
ENDMDL
MODEL      183
REMARK 921   NORMALIZED FREE ENERGY PREDICTED BY IDOCK:   -4.96 KCAL/MOL
REMARK 922        TOTAL FREE ENERGY PREDICTED BY IDOCK:   -8.44 KCAL/MOL
REMARK 923 INTER-LIGAND FREE ENERGY PREDICTED BY IDOCK:   -7.34 KCAL/MOL
REMARK 924 INTRA-LIGAND FREE ENERGY PREDICTED BY IDOCK:   -1.10 KCAL/MOL
REMARK 927      BINDING AFFINITY PREDICTED BY RF-SCORE:    0.00 PKD
ROOT
HETATM    1  C   UNL     1      -9.738  10.218  68.628  1.00  0.00    -0.167 C  
HETATM    2  S   UNL     1     -10.844   8.893  69.029  1.00  0.00     0.037 SA 
HETATM    3  C   UNL     1     -10.411   7.610  67.826  1.00  0.00    -0.216 C  
HETATM    4  C   UNL     1      -9.210   7.827  66.936  1.00  0.00    -0.187 C  
HETATM    5  O   UNL     1      -8.051  12.077  66.598  1.00  0.00    -0.130 OA 
HETATM    6  CA  UNL     1      -8.547   9.000  66.789  1.00  0.00    -0.123 C  
HETATM    7  CA  UNL     1     -10.048  11.727  68.183  1.00  0.00    -0.192 C  
HETATM    8  N   UNL     1      -8.985  10.123  67.414  1.00  0.00    -0.135 N  
HETATM    9  C   UNL     1      -7.365   9.067  65.862  1.00  0.00    -0.093 C  
HETATM   10  OXT UNL     1      -6.636   8.104  65.666  1.00  0.00    -0.048 OA 
HETATM   11  C   UNL     1      -8.775  11.455  67.317  1.00  0.00    -0.148 C  
HETATM   12  O   UNL     1      -7.112  10.232  65.244  1.00  0.00    -0.133 OA 
ENDROOT
BRANCH   4  13
HETATM   13  C   UNL     1      -8.938   6.584  66.076  1.00  0.00    -0.122 C  
BRANCH  13  14
HETATM   14  S   UNL     1      -9.928   5.206  66.721  1.00  0.00    -0.232 SA 
BRANCH  14  15
HETATM   15  C   UNL     1     -10.180   4.276  65.295  1.00  0.00    -0.217 A  
HETATM   16  N   UNL     1     -11.226   4.301  64.502  1.00  0.00    -0.175 NA 
HETATM   17  C   UNL     1      -8.056   2.905  65.401  1.00  0.00    -0.086 C  
HETATM   18  N   UNL     1     -11.029   3.278  63.599  1.00  0.00    -0.283 NA 
HETATM   19  N   UNL     1      -9.338   3.290  64.879  1.00  0.00    -0.146 NA 
HETATM   20  N   UNL     1      -9.880   2.652  63.826  1.00  0.00    -0.138 NA 
ENDBRANCH  14  15
ENDBRANCH  13  14
ENDBRANCH   4  13
BRANCH   7  21
HETATM   21  N   UNL     1     -11.128  12.395  67.321  1.00  0.00    -0.266 N  
HETATM   22  H   UNL     1     -11.248  11.925  66.424  1.00  0.00     0.000 HD 
HETATM   23  O   UNL     1     -12.783  13.727  66.544  1.00  0.00    -0.282 OA 
HETATM   24  C   UNL     1     -11.995  13.500  67.463  1.00  0.00    -0.346 C  
BRANCH  24  25
HETATM   25  C   UNL     1     -11.879  14.540  68.575  1.00  0.00    -0.320 C  
BRANCH  25  26
HETATM   26  C   UNL     1     -12.331  14.262  69.960  1.00  0.00    -0.346 A  
HETATM   27  H2  UNL     1     -14.008  11.819  73.021  1.00  0.00     0.000 HD 
HETATM   28  H1  UNL     1     -12.981  10.907  71.916  1.00  0.00     0.000 HD 
HETATM   29  C   UNL     1     -13.019  15.186  70.740  1.00  0.00    -0.414 A  
HETATM   30  N   UNL     1     -12.316  12.986  70.517  1.00  0.00    -0.324 NA 
HETATM   31  N   UNL     1     -13.377  11.797  72.220  1.00  0.00    -0.303 NA 
HETATM   32  S   UNL     1     -13.745  14.429  72.091  1.00  0.00    -0.511 SA 
HETATM   33  C   UNL     1     -13.081  12.938  71.583  1.00  0.00    -0.335 A  
ENDBRANCH  25  26
BRANCH  25  34
HETATM   34  N   UNL     1     -11.598  15.807  68.425  1.00  0.00    -0.368 NA 
HETATM   35  H   UNL     1     -12.034  16.460  69.077  1.00  0.00     0.000 HD 
BRANCH  34  36
HETATM   36  O   UNL     1     -10.752  16.347  67.448  1.00  0.00    -0.322 OA 
HETATM   37  C   UNL     1      -9.636  17.106  67.834  1.00  0.00    -0.266 C  
ENDBRANCH  34  36
ENDBRANCH  25  34
ENDBRANCH  24  25
ENDBRANCH   7  21
TORSDOF 8
ENDMDL
MODEL      184
REMARK 921   NORMALIZED FREE ENERGY PREDICTED BY IDOCK:   -4.95 KCAL/MOL
REMARK 922        TOTAL FREE ENERGY PREDICTED BY IDOCK:   -8.42 KCAL/MOL
REMARK 923 INTER-LIGAND FREE ENERGY PREDICTED BY IDOCK:   -7.49 KCAL/MOL
REMARK 924 INTRA-LIGAND FREE ENERGY PREDICTED BY IDOCK:   -0.93 KCAL/MOL
REMARK 927      BINDING AFFINITY PREDICTED BY RF-SCORE:    0.00 PKD
ROOT
HETATM    1  C   UNL     1      -8.573  11.678  68.335  1.00  0.00    -0.156 C  
HETATM    2  S   UNL     1     -10.203  11.008  68.146  1.00  0.00    -0.190 SA 
HETATM    3  C   UNL     1     -10.166   9.522  69.181  1.00  0.00    -0.201 C  
HETATM    4  C   UNL     1      -8.951   9.271  70.045  1.00  0.00    -0.216 C  
HETATM    5  O   UNL     1      -5.370  11.467  68.677  1.00  0.00    -0.043 OA 
HETATM    6  CA  UNL     1      -7.774   9.938  69.953  1.00  0.00    -0.171 C  
HETATM    7  CA  UNL     1      -7.442  11.975  67.238  1.00  0.00    -0.158 C  
HETATM    8  N   UNL     1      -7.585  10.872  68.987  1.00  0.00    -0.126 N  
HETATM    9  C   UNL     1      -6.648   9.575  70.881  1.00  0.00    -0.090 C  
HETATM   10  OXT UNL     1      -6.847   9.157  72.014  1.00  0.00    -0.301 OA 
HETATM   11  C   UNL     1      -6.538  11.522  68.430  1.00  0.00    -0.060 C  
HETATM   12  O   UNL     1      -5.391   9.731  70.439  1.00  0.00    -0.034 OA 
ENDROOT
BRANCH   4  13
HETATM   13  C   UNL     1      -9.160   8.035  70.932  1.00  0.00    -0.148 C  
BRANCH  13  14
HETATM   14  S   UNL     1     -10.041   8.544  72.435  1.00  0.00    -0.249 SA 
BRANCH  14  15
HETATM   15  C   UNL     1     -11.680   8.359  71.944  1.00  0.00    -0.334 A  
HETATM   16  N   UNL     1     -12.533   9.308  71.638  1.00  0.00    -0.345 NA 
HETATM   17  C   UNL     1     -11.819   5.841  72.159  1.00  0.00    -0.108 C  
HETATM   18  N   UNL     1     -13.745   8.675  71.464  1.00  0.00    -0.350 NA 
HETATM   19  N   UNL     1     -12.332   7.163  71.929  1.00  0.00    -0.323 NA 
HETATM   20  N   UNL     1     -13.632   7.364  71.646  1.00  0.00    -0.380 NA 
ENDBRANCH  14  15
ENDBRANCH  13  14
ENDBRANCH   4  13
BRANCH   7  21
HETATM   21  N   UNL     1      -6.985  11.281  65.948  1.00  0.00    -0.370 N  
HETATM   22  H   UNL     1      -5.994  11.432  65.761  1.00  0.00     0.000 HD 
HETATM   23  O   UNL     1      -6.883  10.058  64.047  1.00  0.00    -0.124 OA 
HETATM   24  C   UNL     1      -7.598  10.486  64.955  1.00  0.00    -0.026 C  
BRANCH  24  25
HETATM   25  C   UNL     1      -9.108  10.296  64.824  1.00  0.00    -0.219 C  
BRANCH  25  26
HETATM   26  C   UNL     1     -10.007  11.409  64.434  1.00  0.00    -0.274 A  
HETATM   27  H2  UNL     1     -12.410  14.841  65.208  1.00  0.00     0.000 HD 
HETATM   28  H1  UNL     1     -10.950  14.802  66.194  1.00  0.00     0.000 HD 
HETATM   29  C   UNL     1     -11.036  11.272  63.507  1.00  0.00    -0.245 A  
HETATM   30  N   UNL     1     -10.054  12.618  65.121  1.00  0.00    -0.267 NA 
HETATM   31  N   UNL     1     -11.528  14.393  65.460  1.00  0.00    -0.333 NA 
HETATM   32  S   UNL     1     -12.119  12.592  63.593  1.00  0.00    -0.577 SA 
HETATM   33  C   UNL     1     -11.149  13.278  64.822  1.00  0.00    -0.342 A  
ENDBRANCH  25  26
BRANCH  25  34
HETATM   34  N   UNL     1      -9.797   9.264  65.230  1.00  0.00    -0.424 NA 
HETATM   35  H   UNL     1     -10.742   9.161  64.860  1.00  0.00     0.000 HD 
BRANCH  34  36
HETATM   36  O   UNL     1      -9.352   8.285  66.129  1.00  0.00    -0.203 OA 
HETATM   37  C   UNL     1      -8.618   7.186  65.656  1.00  0.00    -0.107 C  
ENDBRANCH  34  36
ENDBRANCH  25  34
ENDBRANCH  24  25
ENDBRANCH   7  21
TORSDOF 8
ENDMDL
MODEL      185
REMARK 921   NORMALIZED FREE ENERGY PREDICTED BY IDOCK:   -4.91 KCAL/MOL
REMARK 922        TOTAL FREE ENERGY PREDICTED BY IDOCK:   -8.37 KCAL/MOL
REMARK 923 INTER-LIGAND FREE ENERGY PREDICTED BY IDOCK:   -7.41 KCAL/MOL
REMARK 924 INTRA-LIGAND FREE ENERGY PREDICTED BY IDOCK:   -0.96 KCAL/MOL
REMARK 927      BINDING AFFINITY PREDICTED BY RF-SCORE:    0.00 PKD
ROOT
HETATM    1  C   UNL     1      -9.221   7.358  68.273  1.00  0.00    -0.137 C  
HETATM    2  S   UNL     1     -10.037   7.528  66.709  1.00  0.00    -0.217 SA 
HETATM    3  C   UNL     1      -9.802   9.277  66.303  1.00  0.00    -0.291 C  
HETATM    4  C   UNL     1      -8.905  10.112  67.187  1.00  0.00    -0.138 C  
HETATM    5  O   UNL     1      -8.329   8.369  71.206  1.00  0.00    -0.117 OA 
HETATM    6  CA  UNL     1      -8.431   9.734  68.400  1.00  0.00    -0.114 C  
HETATM    7  CA  UNL     1      -9.793   6.888  69.695  1.00  0.00    -0.166 C  
HETATM    8  N   UNL     1      -8.806   8.551  68.949  1.00  0.00    -0.138 N  
HETATM    9  C   UNL     1      -7.547  10.675  69.171  1.00  0.00    -0.131 C  
HETATM   10  OXT UNL     1      -6.797  11.467  68.615  1.00  0.00    -0.067 OA 
HETATM   11  C   UNL     1      -8.770   7.971  70.170  1.00  0.00    -0.135 C  
HETATM   12  O   UNL     1      -7.588  10.625  70.511  1.00  0.00     0.122 OA 
ENDROOT
BRANCH   4  13
HETATM   13  C   UNL     1      -8.739  11.526  66.613  1.00  0.00    -0.182 C  
BRANCH  13  14
HETATM   14  S   UNL     1      -9.687  11.639  65.069  1.00  0.00    -0.172 SA 
BRANCH  14  15
HETATM   15  C   UNL     1     -10.938  12.732  65.521  1.00  0.00    -0.280 A  
HETATM   16  N   UNL     1     -11.033  13.416  66.637  1.00  0.00    -0.285 NA 
HETATM   17  C   UNL     1     -12.412  12.422  63.489  1.00  0.00    -0.500 C  
HETATM   18  N   UNL     1     -12.274  14.017  66.597  1.00  0.00    -0.448 NA 
HETATM   19  N   UNL     1     -12.070  12.926  64.789  1.00  0.00    -0.396 NA 
HETATM   20  N   UNL     1     -12.916  13.718  65.473  1.00  0.00    -0.672 NA 
ENDBRANCH  14  15
ENDBRANCH  13  14
ENDBRANCH   4  13
BRANCH   7  21
HETATM   21  N   UNL     1     -11.125   7.075  70.434  1.00  0.00    -0.274 N  
HETATM   22  H   UNL     1     -11.799   7.606  69.884  1.00  0.00     0.000 HD 
HETATM   23  O   UNL     1     -12.814   7.000  71.937  1.00  0.00    -0.324 OA 
HETATM   24  C   UNL     1     -11.647   6.692  71.689  1.00  0.00    -0.304 C  
BRANCH  24  25
HETATM   25  C   UNL     1     -10.806   6.111  72.823  1.00  0.00    -0.250 C  
BRANCH  25  26
HETATM   26  C   UNL     1     -10.391   4.688  72.842  1.00  0.00    -0.187 A  
HETATM   27  H2  UNL     1      -9.578   0.912  71.043  1.00  0.00     0.000 HD 
HETATM   28  H1  UNL     1      -9.085   2.265  70.026  1.00  0.00     0.000 HD 
HETATM   29  C   UNL     1     -10.777   3.791  73.834  1.00  0.00    -0.228 A  
HETATM   30  N   UNL     1      -9.776   4.066  71.760  1.00  0.00    -0.162 NA 
HETATM   31  N   UNL     1      -9.471   1.918  70.904  1.00  0.00    -0.125 NA 
HETATM   32  S   UNL     1     -10.486   2.178  73.351  1.00  0.00    -0.141 SA 
HETATM   33  C   UNL     1      -9.839   2.760  71.879  1.00  0.00    -0.159 A  
ENDBRANCH  25  26
BRANCH  25  34
HETATM   34  N   UNL     1     -10.547   6.685  73.967  1.00  0.00    -0.468 NA 
HETATM   35  H   UNL     1     -11.309   6.740  74.644  1.00  0.00     0.000 HD 
BRANCH  34  36
HETATM   36  O   UNL     1      -9.314   7.232  74.348  1.00  0.00    -0.210 OA 
HETATM   37  C   UNL     1      -8.121   6.594  73.969  1.00  0.00    -0.115 C  
ENDBRANCH  34  36
ENDBRANCH  25  34
ENDBRANCH  24  25
ENDBRANCH   7  21
TORSDOF 8
ENDMDL
MODEL      186
REMARK 921   NORMALIZED FREE ENERGY PREDICTED BY IDOCK:   -4.90 KCAL/MOL
REMARK 922        TOTAL FREE ENERGY PREDICTED BY IDOCK:   -8.35 KCAL/MOL
REMARK 923 INTER-LIGAND FREE ENERGY PREDICTED BY IDOCK:   -7.54 KCAL/MOL
REMARK 924 INTRA-LIGAND FREE ENERGY PREDICTED BY IDOCK:   -0.81 KCAL/MOL
REMARK 927      BINDING AFFINITY PREDICTED BY RF-SCORE:    0.00 PKD
ROOT
HETATM    1  C   UNL     1     -10.839   8.006  70.561  1.00  0.00    -0.241 C  
HETATM    2  S   UNL     1     -11.736   6.513  70.233  1.00  0.00    -0.258 SA 
HETATM    3  C   UNL     1     -10.444   5.244  70.226  1.00  0.00    -0.261 C  
HETATM    4  C   UNL     1      -9.042   5.635  70.632  1.00  0.00    -0.168 C  
HETATM    5  O   UNL     1      -8.295   9.978  70.314  1.00  0.00    -0.135 OA 
HETATM    6  CA  UNL     1      -8.598   6.906  70.787  1.00  0.00    -0.144 C  
HETATM    7  CA  UNL     1     -10.712   9.349  69.695  1.00  0.00    -0.235 C  
HETATM    8  N   UNL     1      -9.409   7.958  70.509  1.00  0.00    -0.162 N  
HETATM    9  C   UNL     1      -7.170   7.144  71.194  1.00  0.00    -0.074 C  
HETATM   10  OXT UNL     1      -6.556   6.357  71.903  1.00  0.00    -0.056 OA 
HETATM   11  C   UNL     1      -9.269   9.286  70.292  1.00  0.00    -0.237 C  
HETATM   12  O   UNL     1      -6.569   8.264  70.764  1.00  0.00    -0.036 OA 
ENDROOT
BRANCH   4  13
HETATM   13  C   UNL     1      -8.125   4.404  70.678  1.00  0.00    -0.067 C  
BRANCH  13  14
HETATM   14  S   UNL     1      -7.103   4.389  69.178  1.00  0.00    -0.052 SA 
BRANCH  14  15
HETATM   15  C   UNL     1      -8.307   4.452  67.949  1.00  0.00    -0.095 A  
HETATM   16  N   UNL     1      -9.088   3.477  67.548  1.00  0.00    -0.151 NA 
HETATM   17  C   UNL     1      -7.921   6.843  67.216  1.00  0.00    -0.114 C  
HETATM   18  N   UNL     1      -9.761   3.970  66.450  1.00  0.00    -0.204 NA 
HETATM   19  N   UNL     1      -8.510   5.535  67.148  1.00  0.00    -0.111 NA 
HETATM   20  N   UNL     1      -9.410   5.226  66.196  1.00  0.00    -0.153 NA 
ENDBRANCH  14  15
ENDBRANCH  13  14
ENDBRANCH   4  13
BRANCH   7  21
HETATM   21  N   UNL     1     -10.638   9.659  68.194  1.00  0.00    -0.223 N  
HETATM   22  H   UNL     1     -10.350   8.848  67.648  1.00  0.00     0.000 HD 
HETATM   23  O   UNL     1     -10.740  10.655  66.165  1.00  0.00    -0.180 OA 
HETATM   24  C   UNL     1     -10.870  10.791  67.382  1.00  0.00    -0.290 C  
BRANCH  24  25
HETATM   25  C   UNL     1     -11.067  12.205  67.924  1.00  0.00    -0.245 C  
BRANCH  25  26
HETATM   26  C   UNL     1     -11.172  13.381  67.027  1.00  0.00    -0.305 A  
HETATM   27  H2  UNL     1     -12.382  15.385  63.467  1.00  0.00     0.000 HD 
HETATM   28  H1  UNL     1     -13.587  14.230  64.035  1.00  0.00     0.000 HD 
HETATM   29  C   UNL     1     -10.129  14.279  66.817  1.00  0.00    -0.264 A  
HETATM   30  N   UNL     1     -12.231  13.564  66.143  1.00  0.00    -0.433 NA 
HETATM   31  N   UNL     1     -12.694  14.706  64.163  1.00  0.00    -0.718 NA 
HETATM   32  S   UNL     1     -10.426  15.253  65.444  1.00  0.00    -0.418 SA 
HETATM   33  C   UNL     1     -11.923  14.456  65.230  1.00  0.00    -0.382 A  
ENDBRANCH  25  26
BRANCH  25  34
HETATM   34  N   UNL     1     -10.948  12.581  69.169  1.00  0.00    -0.408 NA 
HETATM   35  H   UNL     1     -10.025  12.890  69.476  1.00  0.00     0.000 HD 
BRANCH  34  36
HETATM   36  O   UNL     1     -11.976  12.598  70.121  1.00  0.00    -0.346 OA 
HETATM   37  C   UNL     1     -12.330  13.805  70.745  1.00  0.00    -0.379 C  
ENDBRANCH  34  36
ENDBRANCH  25  34
ENDBRANCH  24  25
ENDBRANCH   7  21
TORSDOF 8
ENDMDL
MODEL      187
REMARK 921   NORMALIZED FREE ENERGY PREDICTED BY IDOCK:   -4.89 KCAL/MOL
REMARK 922        TOTAL FREE ENERGY PREDICTED BY IDOCK:   -8.34 KCAL/MOL
REMARK 923 INTER-LIGAND FREE ENERGY PREDICTED BY IDOCK:   -6.92 KCAL/MOL
REMARK 924 INTRA-LIGAND FREE ENERGY PREDICTED BY IDOCK:   -1.43 KCAL/MOL
REMARK 927      BINDING AFFINITY PREDICTED BY RF-SCORE:    0.00 PKD
ROOT
HETATM    1  C   UNL     1     -10.416   7.144  68.240  1.00  0.00    -0.198 C  
HETATM    2  S   UNL     1     -10.749   8.099  69.695  1.00  0.00    -0.150 SA 
HETATM    3  C   UNL     1     -10.441   9.800  69.155  1.00  0.00    -0.215 C  
HETATM    4  C   UNL     1     -10.166  10.058  67.692  1.00  0.00    -0.249 C  
HETATM    5  O   UNL     1      -8.813   6.454  65.524  1.00  0.00    -0.119 OA 
HETATM    6  CA  UNL     1      -9.901   9.104  66.766  1.00  0.00    -0.226 C  
HETATM    7  CA  UNL     1      -9.352   5.970  67.993  1.00  0.00    -0.114 C  
HETATM    8  N   UNL     1      -9.796   7.801  67.130  1.00  0.00    -0.185 N  
HETATM    9  C   UNL     1      -9.643   9.512  65.342  1.00  0.00    -0.272 C  
HETATM   10  OXT UNL     1     -10.166  10.499  64.842  1.00  0.00    -0.328 OA 
HETATM   11  C   UNL     1      -9.311   6.659  66.590  1.00  0.00    -0.163 C  
HETATM   12  O   UNL     1      -8.816   8.752  64.607  1.00  0.00    -0.136 OA 
ENDROOT
BRANCH   4  13
HETATM   13  C   UNL     1     -10.050  11.565  67.417  1.00  0.00    -0.191 C  
BRANCH  13  14
HETATM   14  S   UNL     1     -11.661  12.337  67.741  1.00  0.00    -0.346 SA 
BRANCH  14  15
HETATM   15  C   UNL     1     -11.966  13.120  66.239  1.00  0.00    -0.415 A  
HETATM   16  N   UNL     1     -12.640  12.648  65.217  1.00  0.00    -0.663 NA 
HETATM   17  C   UNL     1     -10.637  15.229  66.677  1.00  0.00    -0.304 C  
HETATM   18  N   UNL     1     -12.473  13.571  64.205  1.00  0.00    -0.646 NA 
HETATM   19  N   UNL     1     -11.421  14.319  65.889  1.00  0.00    -0.329 NA 
HETATM   20  N   UNL     1     -11.725  14.593  64.607  1.00  0.00    -0.422 NA 
ENDBRANCH  14  15
ENDBRANCH  13  14
ENDBRANCH   4  13
BRANCH   7  21
HETATM   21  N   UNL     1      -7.921   5.695  68.477  1.00  0.00    -0.099 N  
HETATM   22  H   UNL     1      -7.319   5.363  67.724  1.00  0.00     0.000 HD 
HETATM   23  O   UNL     1      -6.034   5.507  69.710  1.00  0.00    -0.016 OA 
HETATM   24  C   UNL     1      -7.234   5.788  69.706  1.00  0.00    -0.069 C  
BRANCH  24  25
HETATM   25  C   UNL     1      -7.918   6.012  71.053  1.00  0.00    -0.116 C  
BRANCH  25  26
HETATM   26  C   UNL     1      -7.478   7.074  71.989  1.00  0.00    -0.090 A  
HETATM   27  H2  UNL     1      -4.992  10.312  73.211  1.00  0.00     0.000 HD 
HETATM   28  H1  UNL     1      -5.334  10.338  71.482  1.00  0.00     0.000 HD 
HETATM   29  C   UNL     1      -7.411   6.900  73.368  1.00  0.00    -0.080 A  
HETATM   30  N   UNL     1      -6.876   8.255  71.563  1.00  0.00    -0.060 NA 
HETATM   31  N   UNL     1      -5.470   9.916  72.401  1.00  0.00    -0.284 NA 
HETATM   32  S   UNL     1      -6.491   8.141  74.100  1.00  0.00    -0.126 SA 
HETATM   33  C   UNL     1      -6.265   8.850  72.561  1.00  0.00    -0.004 A  
ENDBRANCH  25  26
BRANCH  25  34
HETATM   34  N   UNL     1      -8.773   5.211  71.630  1.00  0.00    -0.132 NA 
HETATM   35  H   UNL     1      -9.606   5.636  72.039  1.00  0.00     0.000 HD 
BRANCH  34  36
HETATM   36  O   UNL     1      -8.649   3.820  71.736  1.00  0.00    -0.090 OA 
HETATM   37  C   UNL     1      -8.375   3.237  72.984  1.00  0.00    -0.081 C  
ENDBRANCH  34  36
ENDBRANCH  25  34
ENDBRANCH  24  25
ENDBRANCH   7  21
TORSDOF 8
ENDMDL
MODEL      188
REMARK 921   NORMALIZED FREE ENERGY PREDICTED BY IDOCK:   -4.89 KCAL/MOL
REMARK 922        TOTAL FREE ENERGY PREDICTED BY IDOCK:   -8.34 KCAL/MOL
REMARK 923 INTER-LIGAND FREE ENERGY PREDICTED BY IDOCK:   -7.38 KCAL/MOL
REMARK 924 INTRA-LIGAND FREE ENERGY PREDICTED BY IDOCK:   -0.96 KCAL/MOL
REMARK 927      BINDING AFFINITY PREDICTED BY RF-SCORE:    0.00 PKD
ROOT
HETATM    1  C   UNL     1      -8.617  10.968  67.989  1.00  0.00    -0.134 C  
HETATM    2  S   UNL     1     -10.064  10.588  68.938  1.00  0.00    -0.212 SA 
HETATM    3  C   UNL     1     -10.097   8.777  68.940  1.00  0.00    -0.198 C  
HETATM    4  C   UNL     1      -8.922   8.030  68.352  1.00  0.00    -0.133 C  
HETATM    5  O   UNL     1      -6.513  10.494  65.586  1.00  0.00    -0.121 OA 
HETATM    6  CA  UNL     1      -7.933   8.587  67.610  1.00  0.00    -0.107 C  
HETATM    7  CA  UNL     1      -8.459  11.812  66.635  1.00  0.00    -0.153 C  
HETATM    8  N   UNL     1      -7.977   9.902  67.279  1.00  0.00    -0.109 N  
HETATM    9  C   UNL     1      -6.825   7.715  67.087  1.00  0.00    -0.068 C  
HETATM   10  OXT UNL     1      -6.439   6.722  67.689  1.00  0.00    -0.045 OA 
HETATM   11  C   UNL     1      -7.367  10.720  66.391  1.00  0.00    -0.142 C  
HETATM   12  O   UNL     1      -6.246   8.058  65.926  1.00  0.00    -0.041 OA 
ENDROOT
BRANCH   4  13
HETATM   13  C   UNL     1      -9.083   6.517  68.555  1.00  0.00    -0.127 C  
BRANCH  13  14
HETATM   14  S   UNL     1     -10.771   6.186  69.133  1.00  0.00    -0.350 SA 
BRANCH  14  15
HETATM   15  C   UNL     1     -10.474   5.610  70.728  1.00  0.00    -0.265 A  
HETATM   16  N   UNL     1     -10.689   6.244  71.857  1.00  0.00    -0.222 NA 
HETATM   17  C   UNL     1      -9.449   3.384  70.101  1.00  0.00    -0.173 C  
HETATM   18  N   UNL     1     -10.150   5.440  72.840  1.00  0.00    -0.172 NA 
HETATM   19  N   UNL     1      -9.851   4.430  70.999  1.00  0.00    -0.189 NA 
HETATM   20  N   UNL     1      -9.631   4.332  72.323  1.00  0.00    -0.135 NA 
ENDBRANCH  14  15
ENDBRANCH  13  14
ENDBRANCH   4  13
BRANCH   7  21
HETATM   21  N   UNL     1      -9.309  11.985  65.369  1.00  0.00    -0.431 N  
HETATM   22  H   UNL     1      -9.199  11.204  64.723  1.00  0.00     0.000 HD 
HETATM   23  O   UNL     1     -10.751  12.737  63.796  1.00  0.00    -0.413 OA 
HETATM   24  C   UNL     1     -10.205  12.959  64.878  1.00  0.00    -0.275 C  
BRANCH  24  25
HETATM   25  C   UNL     1     -10.381  14.346  65.494  1.00  0.00    -0.362 C  
BRANCH  25  26
HETATM   26  C   UNL     1     -11.007  14.539  66.824  1.00  0.00    -0.316 A  
HETATM   27  H2  UNL     1     -11.061  15.860  70.875  1.00  0.00     0.000 HD 
HETATM   28  H1  UNL     1     -10.191  16.967  69.815  1.00  0.00     0.000 HD 
HETATM   29  C   UNL     1     -11.798  13.577  67.445  1.00  0.00    -0.384 A  
HETATM   30  N   UNL     1     -10.676  15.595  67.668  1.00  0.00    -0.296 NA 
HETATM   31  N   UNL     1     -10.749  16.122  69.939  1.00  0.00    -0.324 NA 
HETATM   32  S   UNL     1     -12.012  13.934  69.103  1.00  0.00    -0.350 SA 
HETATM   33  C   UNL     1     -11.078  15.351  68.894  1.00  0.00    -0.275 A  
ENDBRANCH  25  26
BRANCH  25  34
HETATM   34  N   UNL     1     -10.229  15.490  64.883  1.00  0.00    -0.476 NA 
HETATM   35  H   UNL     1      -9.311  15.932  64.945  1.00  0.00     0.000 HD 
BRANCH  34  36
HETATM   36  O   UNL     1     -11.214  16.164  64.150  1.00  0.00    -0.661 OA 
HETATM   37  C   UNL     1     -12.535  15.689  64.156  1.00  0.00     0.279 C  
ENDBRANCH  34  36
ENDBRANCH  25  34
ENDBRANCH  24  25
ENDBRANCH   7  21
TORSDOF 8
ENDMDL
MODEL      189
REMARK 921   NORMALIZED FREE ENERGY PREDICTED BY IDOCK:   -4.89 KCAL/MOL
REMARK 922        TOTAL FREE ENERGY PREDICTED BY IDOCK:   -8.33 KCAL/MOL
REMARK 923 INTER-LIGAND FREE ENERGY PREDICTED BY IDOCK:   -6.85 KCAL/MOL
REMARK 924 INTRA-LIGAND FREE ENERGY PREDICTED BY IDOCK:   -1.48 KCAL/MOL
REMARK 927      BINDING AFFINITY PREDICTED BY RF-SCORE:    0.00 PKD
ROOT
HETATM    1  C   UNL     1      -8.466  13.247  68.977  1.00  0.00     0.409 C  
HETATM    2  S   UNL     1      -6.746  13.511  68.641  1.00  0.00    -0.102 SA 
HETATM    3  C   UNL     1      -6.645  15.298  68.365  1.00  0.00    -0.110 C  
HETATM    4  C   UNL     1      -7.872  16.142  68.622  1.00  0.00    -0.188 C  
HETATM    5  O   UNL     1     -11.621  13.804  68.577  1.00  0.00    -0.292 OA 
HETATM    6  CA  UNL     1      -9.123  15.661  68.825  1.00  0.00    -0.208 C  
HETATM    7  CA  UNL     1      -9.541  12.332  68.218  1.00  0.00    -0.212 C  
HETATM    8  N   UNL     1      -9.373  14.330  68.741  1.00  0.00    -0.163 N  
HETATM    9  C   UNL     1     -10.252  16.625  69.067  1.00  0.00    -0.301 C  
HETATM   10  OXT UNL     1     -10.081  17.701  69.624  1.00  0.00    -0.008 OA 
HETATM   11  C   UNL     1     -10.458  13.532  68.621  1.00  0.00    -0.232 C  
HETATM   12  O   UNL     1     -11.481  16.272  68.660  1.00  0.00    -0.367 OA 
ENDROOT
BRANCH   4  13
HETATM   13  C   UNL     1      -7.553  17.634  68.447  1.00  0.00    -0.260 C  
BRANCH  13  14
HETATM   14  S   UNL     1      -7.179  17.945  66.699  1.00  0.00    -0.239 SA 
BRANCH  14  15
HETATM   15  C   UNL     1      -8.701  18.507  66.124  1.00  0.00    -0.118 A  
HETATM   16  N   UNL     1      -9.151  19.740  66.134  1.00  0.00    -0.374 NA 
HETATM   17  C   UNL     1      -9.667  16.263  65.464  1.00  0.00    -0.040 C  
HETATM   18  N   UNL     1     -10.464  19.658  65.719  1.00  0.00    -0.493 NA 
HETATM   19  N   UNL     1      -9.692  17.682  65.683  1.00  0.00    -0.445 NA 
HETATM   20  N   UNL     1     -10.803  18.403  65.446  1.00  0.00    -0.501 NA 
ENDBRANCH  14  15
ENDBRANCH  13  14
ENDBRANCH   4  13
BRANCH   7  21
HETATM   21  N   UNL     1      -9.792  11.958  66.751  1.00  0.00    -0.195 N  
HETATM   22  H   UNL     1     -10.122  12.752  66.203  1.00  0.00     0.000 HD 
HETATM   23  O   UNL     1      -9.942  10.872  64.772  1.00  0.00    -0.257 OA 
HETATM   24  C   UNL     1      -9.678  10.786  65.972  1.00  0.00    -0.217 C  
BRANCH  24  25
HETATM   25  C   UNL     1      -9.451   9.392  66.554  1.00  0.00    -0.190 C  
BRANCH  25  26
HETATM   26  C   UNL     1      -8.485   9.148  67.652  1.00  0.00    -0.116 A  
HETATM   27  H2  UNL     1      -7.135   9.383  71.687  1.00  0.00     0.000 HD 
HETATM   28  H1  UNL     1      -8.873   9.113  71.571  1.00  0.00     0.000 HD 
HETATM   29  C   UNL     1      -7.107   9.278  67.502  1.00  0.00    -0.079 A  
HETATM   30  N   UNL     1      -8.873   8.996  68.980  1.00  0.00    -0.135 NA 
HETATM   31  N   UNL     1      -7.966   9.221  71.116  1.00  0.00    -0.326 NA 
HETATM   32  S   UNL     1      -6.327   9.336  69.023  1.00  0.00    -0.043 SA 
HETATM   33  C   UNL     1      -7.847   9.154  69.784  1.00  0.00    -0.088 A  
ENDBRANCH  25  26
BRANCH  25  34
HETATM   34  N   UNL     1      -9.873   8.264  66.049  1.00  0.00    -0.468 NA 
HETATM   35  H   UNL     1      -9.443   7.954  65.177  1.00  0.00     0.000 HD 
BRANCH  34  36
HETATM   36  O   UNL     1     -10.864   7.441  66.600  1.00  0.00    -0.198 OA 
HETATM   37  C   UNL     1     -10.622   6.068  66.761  1.00  0.00    -0.291 C  
ENDBRANCH  34  36
ENDBRANCH  25  34
ENDBRANCH  24  25
ENDBRANCH   7  21
TORSDOF 8
ENDMDL
MODEL      190
REMARK 921   NORMALIZED FREE ENERGY PREDICTED BY IDOCK:   -4.89 KCAL/MOL
REMARK 922        TOTAL FREE ENERGY PREDICTED BY IDOCK:   -8.33 KCAL/MOL
REMARK 923 INTER-LIGAND FREE ENERGY PREDICTED BY IDOCK:   -6.98 KCAL/MOL
REMARK 924 INTRA-LIGAND FREE ENERGY PREDICTED BY IDOCK:   -1.35 KCAL/MOL
REMARK 927      BINDING AFFINITY PREDICTED BY RF-SCORE:    0.00 PKD
ROOT
HETATM    1  C   UNL     1      -6.916   7.156  68.461  1.00  0.00    -0.079 C  
HETATM    2  S   UNL     1      -6.553   6.077  67.103  1.00  0.00    -0.057 SA 
HETATM    3  C   UNL     1      -6.622   7.177  65.667  1.00  0.00    -0.051 C  
HETATM    4  C   UNL     1      -6.781   8.661  65.898  1.00  0.00    -0.061 C  
HETATM    5  O   UNL     1      -8.433   9.627  69.880  1.00  0.00    -0.162 OA 
HETATM    6  CA  UNL     1      -7.106   9.239  67.080  1.00  0.00    -0.086 C  
HETATM    7  CA  UNL     1      -8.098   7.098  69.543  1.00  0.00    -0.130 C  
HETATM    8  N   UNL     1      -7.388   8.475  68.166  1.00  0.00    -0.090 N  
HETATM    9  C   UNL     1      -7.232  10.736  67.160  1.00  0.00    -0.100 C  
HETATM   10  OXT UNL     1      -6.565  11.483  66.456  1.00  0.00    -0.112 OA 
HETATM   11  C   UNL     1      -7.975   8.647  69.372  1.00  0.00    -0.102 C  
HETATM   12  O   UNL     1      -8.101  11.250  68.043  1.00  0.00    -0.117 OA 
ENDROOT
BRANCH   4  13
HETATM   13  C   UNL     1      -6.698   9.431  64.571  1.00  0.00    -0.089 C  
BRANCH  13  14
HETATM   14  S   UNL     1      -8.058   8.884  63.500  1.00  0.00    -0.172 SA 
BRANCH  14  15
HETATM   15  C   UNL     1      -9.178  10.178  63.693  1.00  0.00    -0.282 A  
HETATM   16  N   UNL     1      -9.324  11.227  62.918  1.00  0.00    -0.357 NA 
HETATM   17  C   UNL     1     -10.206   9.417  65.876  1.00  0.00    -0.053 C  
HETATM   18  N   UNL     1     -10.226  12.043  63.568  1.00  0.00    -0.438 NA 
HETATM   19  N   UNL     1      -9.990  10.316  64.778  1.00  0.00    -0.341 NA 
HETATM   20  N   UNL     1     -10.634  11.496  64.707  1.00  0.00    -0.290 NA 
ENDBRANCH  14  15
ENDBRANCH  13  14
ENDBRANCH   4  13
BRANCH   7  21
HETATM   21  N   UNL     1      -9.577   6.688  69.501  1.00  0.00    -0.147 N  
HETATM   22  H   UNL     1      -9.771   6.028  68.748  1.00  0.00     0.000 HD 
HETATM   23  O   UNL     1     -11.782   6.431  69.936  1.00  0.00    -0.426 OA 
HETATM   24  C   UNL     1     -10.734   6.999  70.246  1.00  0.00    -0.241 C  
BRANCH  24  25
HETATM   25  C   UNL     1     -10.814   8.134  71.266  1.00  0.00    -0.237 C  
BRANCH  25  26
HETATM   26  C   UNL     1     -11.736   9.282  71.090  1.00  0.00    -0.325 A  
HETATM   27  H2  UNL     1     -12.674  13.330  70.149  1.00  0.00     0.000 HD 
HETATM   28  H1  UNL     1     -11.409  12.672  69.113  1.00  0.00     0.000 HD 
HETATM   29  C   UNL     1     -12.789   9.557  71.957  1.00  0.00    -0.414 A  
HETATM   30  N   UNL     1     -11.496  10.312  70.185  1.00  0.00    -0.287 NA 
HETATM   31  N   UNL     1     -12.092  12.543  69.859  1.00  0.00    -0.287 NA 
HETATM   32  S   UNL     1     -13.382  11.143  71.719  1.00  0.00    -0.142 SA 
HETATM   33  C   UNL     1     -12.238  11.358  70.467  1.00  0.00    -0.386 A  
ENDBRANCH  25  26
BRANCH  25  34
HETATM   34  N   UNL     1      -9.980   8.355  72.246  1.00  0.00    -0.291 NA 
HETATM   35  H   UNL     1      -9.132   8.878  72.027  1.00  0.00     0.000 HD 
BRANCH  34  36
HETATM   36  O   UNL     1     -10.148   7.937  73.573  1.00  0.00    -0.293 OA 
HETATM   37  C   UNL     1     -10.269   6.568  73.863  1.00  0.00    -0.332 C  
ENDBRANCH  34  36
ENDBRANCH  25  34
ENDBRANCH  24  25
ENDBRANCH   7  21
TORSDOF 8
ENDMDL
MODEL      191
REMARK 921   NORMALIZED FREE ENERGY PREDICTED BY IDOCK:   -4.88 KCAL/MOL
REMARK 922        TOTAL FREE ENERGY PREDICTED BY IDOCK:   -8.32 KCAL/MOL
REMARK 923 INTER-LIGAND FREE ENERGY PREDICTED BY IDOCK:   -7.24 KCAL/MOL
REMARK 924 INTRA-LIGAND FREE ENERGY PREDICTED BY IDOCK:   -1.08 KCAL/MOL
REMARK 927      BINDING AFFINITY PREDICTED BY RF-SCORE:    0.00 PKD
ROOT
HETATM    1  C   UNL     1      -9.437  10.887  67.755  1.00  0.00    -0.157 C  
HETATM    2  S   UNL     1     -10.479  10.255  69.042  1.00  0.00    -0.233 SA 
HETATM    3  C   UNL     1     -10.848   8.570  68.490  1.00  0.00     0.071 C  
HETATM    4  C   UNL     1     -10.133   8.033  67.272  1.00  0.00    -0.309 C  
HETATM    5  O   UNL     1      -8.490  11.217  64.686  1.00  0.00     0.079 OA 
HETATM    6  CA  UNL     1      -9.399   8.775  66.405  1.00  0.00    -0.204 C  
HETATM    7  CA  UNL     1      -9.631  12.155  66.793  1.00  0.00    -0.211 C  
HETATM    8  N   UNL     1      -9.314  10.121  66.551  1.00  0.00    -0.160 N  
HETATM    9  C   UNL     1      -8.745   8.101  65.231  1.00  0.00    -0.059 C  
HETATM   10  OXT UNL     1      -8.358   6.940  65.278  1.00  0.00    -0.136 OA 
HETATM   11  C   UNL     1      -8.930  11.176  65.796  1.00  0.00    -0.196 C  
HETATM   12  O   UNL     1      -8.579   8.814  64.106  1.00  0.00    -0.158 OA 
ENDROOT
BRANCH   4  13
HETATM   13  C   UNL     1     -10.489   6.558  67.038  1.00  0.00    -0.295 C  
BRANCH  13  14
HETATM   14  S   UNL     1      -9.818   5.576  68.410  1.00  0.00    -0.151 SA 
BRANCH  14  15
HETATM   15  C   UNL     1      -9.332   4.142  67.591  1.00  0.00    -0.170 A  
HETATM   16  N   UNL     1      -9.074   4.004  66.312  1.00  0.00    -0.131 NA 
HETATM   17  C   UNL     1      -9.442   2.567  69.568  1.00  0.00    -0.057 C  
HETATM   18  N   UNL     1      -8.883   2.652  66.117  1.00  0.00    -0.132 NA 
HETATM   19  N   UNL     1      -9.272   2.918  68.186  1.00  0.00    -0.180 NA 
HETATM   20  N   UNL     1      -9.008   1.981  67.257  1.00  0.00    -0.136 NA 
ENDBRANCH  14  15
ENDBRANCH  13  14
ENDBRANCH   4  13
BRANCH   7  21
HETATM   21  N   UNL     1     -10.838  12.813  66.110  1.00  0.00    -0.275 N  
HETATM   22  H   UNL     1     -11.087  12.347  65.238  1.00  0.00     0.000 HD 
HETATM   23  O   UNL     1     -12.609  14.126  65.605  1.00  0.00    -0.487 OA 
HETATM   24  C   UNL     1     -11.688  13.904  66.392  1.00  0.00    -0.383 C  
BRANCH  24  25
HETATM   25  C   UNL     1     -11.418  14.939  67.483  1.00  0.00    -0.348 C  
BRANCH  25  26
HETATM   26  C   UNL     1     -11.966  14.795  68.853  1.00  0.00    -0.263 A  
HETATM   27  H2  UNL     1     -12.232  15.769  72.992  1.00  0.00     0.000 HD 
HETATM   28  H1  UNL     1     -11.957  17.186  71.981  1.00  0.00     0.000 HD 
HETATM   29  C   UNL     1     -12.260  13.565  69.434  1.00  0.00    -0.228 A  
HETATM   30  N   UNL     1     -12.018  15.849  69.760  1.00  0.00    -0.308 NA 
HETATM   31  N   UNL     1     -12.122  16.183  72.066  1.00  0.00    -0.504 NA 
HETATM   32  S   UNL     1     -12.472  13.719  71.123  1.00  0.00    -0.348 SA 
HETATM   33  C   UNL     1     -12.196  15.400  70.981  1.00  0.00    -0.376 A  
ENDBRANCH  25  26
BRANCH  25  34
HETATM   34  N   UNL     1     -10.898  16.125  67.314  1.00  0.00    -0.281 NA 
HETATM   35  H   UNL     1     -11.517  16.861  66.973  1.00  0.00     0.000 HD 
BRANCH  34  36
HETATM   36  O   UNL     1      -9.563  16.475  67.559  1.00  0.00    -0.228 OA 
HETATM   37  C   UNL     1      -9.269  17.660  68.252  1.00  0.00    -0.283 C  
ENDBRANCH  34  36
ENDBRANCH  25  34
ENDBRANCH  24  25
ENDBRANCH   7  21
TORSDOF 8
ENDMDL
MODEL      192
REMARK 921   NORMALIZED FREE ENERGY PREDICTED BY IDOCK:   -4.87 KCAL/MOL
REMARK 922        TOTAL FREE ENERGY PREDICTED BY IDOCK:   -8.31 KCAL/MOL
REMARK 923 INTER-LIGAND FREE ENERGY PREDICTED BY IDOCK:   -7.03 KCAL/MOL
REMARK 924 INTRA-LIGAND FREE ENERGY PREDICTED BY IDOCK:   -1.28 KCAL/MOL
REMARK 927      BINDING AFFINITY PREDICTED BY RF-SCORE:    0.00 PKD
ROOT
HETATM    1  C   UNL     1      -9.296   9.415  70.431  1.00  0.00    -0.268 C  
HETATM    2  S   UNL     1      -8.697   9.932  68.845  1.00  0.00    -0.149 SA 
HETATM    3  C   UNL     1     -10.023  10.999  68.227  1.00  0.00    -0.179 C  
HETATM    4  C   UNL     1     -11.166  11.345  69.152  1.00  0.00    -0.335 C  
HETATM    5  O   UNL     1     -11.591   8.510  72.514  1.00  0.00    -0.372 OA 
HETATM    6  CA  UNL     1     -11.418  10.746  70.342  1.00  0.00    -0.307 C  
HETATM    7  CA  UNL     1      -9.588   7.945  71.000  1.00  0.00    -0.159 C  
HETATM    8  N   UNL     1     -10.659   9.703  70.764  1.00  0.00    -0.312 N  
HETATM    9  C   UNL     1     -12.600  11.196  71.157  1.00  0.00    -0.409 C  
HETATM   10  OXT UNL     1     -13.006  12.350  71.133  1.00  0.00    -0.268 OA 
HETATM   11  C   UNL     1     -10.746   8.730  71.698  1.00  0.00    -0.327 C  
HETATM   12  O   UNL     1     -13.209  10.290  71.938  1.00  0.00    -0.437 OA 
ENDROOT
BRANCH   4  13
HETATM   13  C   UNL     1     -12.119  12.350  68.488  1.00  0.00    -0.075 C  
BRANCH  13  14
HETATM   14  S   UNL     1     -11.238  13.173  67.131  1.00  0.00    -0.307 SA 
BRANCH  14  15
HETATM   15  C   UNL     1     -11.064  14.766  67.760  1.00  0.00    -0.299 A  
HETATM   16  N   UNL     1     -11.559  15.238  68.880  1.00  0.00    -0.329 NA 
HETATM   17  C   UNL     1      -9.757  15.753  65.832  1.00  0.00    -0.354 C  
HETATM   18  N   UNL     1     -11.283  16.590  68.865  1.00  0.00    -0.297 NA 
HETATM   19  N   UNL     1     -10.466  15.783  67.080  1.00  0.00    -0.303 NA 
HETATM   20  N   UNL     1     -10.620  16.932  67.766  1.00  0.00    -0.340 NA 
ENDBRANCH  14  15
ENDBRANCH  13  14
ENDBRANCH   4  13
BRANCH   7  21
HETATM   21  N   UNL     1     -10.135   6.645  70.394  1.00  0.00    -0.182 N  
HETATM   22  H   UNL     1     -10.973   6.320  70.876  1.00  0.00     0.000 HD 
HETATM   23  O   UNL     1     -10.490   4.819  69.106  1.00  0.00    -0.066 OA 
HETATM   24  C   UNL     1      -9.765   5.790  69.334  1.00  0.00    -0.155 C  
BRANCH  24  25
HETATM   25  C   UNL     1      -8.432   5.873  68.594  1.00  0.00    -0.111 C  
BRANCH  25  26
HETATM   26  C   UNL     1      -8.287   5.431  67.186  1.00  0.00    -0.107 A  
HETATM   27  H2  UNL     1      -6.073   4.085  63.803  1.00  0.00     0.000 HD 
HETATM   28  H1  UNL     1      -5.478   3.402  65.315  1.00  0.00     0.000 HD 
HETATM   29  C   UNL     1      -8.970   6.019  66.126  1.00  0.00    -0.152 A  
HETATM   30  N   UNL     1      -7.293   4.551  66.769  1.00  0.00    -0.080 NA 
HETATM   31  N   UNL     1      -6.155   3.979  64.815  1.00  0.00    -0.022 NA 
HETATM   32  S   UNL     1      -8.282   5.567  64.627  1.00  0.00    -0.124 SA 
HETATM   33  C   UNL     1      -7.148   4.599  65.465  1.00  0.00    -0.064 A  
ENDBRANCH  25  26
BRANCH  25  34
HETATM   34  N   UNL     1      -7.264   6.111  69.127  1.00  0.00    -0.080 NA 
HETATM   35  H   UNL     1      -6.902   5.420  69.784  1.00  0.00     0.000 HD 
BRANCH  34  36
HETATM   36  O   UNL     1      -6.464   7.235  68.877  1.00  0.00    -0.037 OA 
HETATM   37  C   UNL     1      -5.617   7.726  69.883  1.00  0.00    -0.023 C  
ENDBRANCH  34  36
ENDBRANCH  25  34
ENDBRANCH  24  25
ENDBRANCH   7  21
TORSDOF 8
ENDMDL
MODEL      193
REMARK 921   NORMALIZED FREE ENERGY PREDICTED BY IDOCK:   -4.87 KCAL/MOL
REMARK 922        TOTAL FREE ENERGY PREDICTED BY IDOCK:   -8.31 KCAL/MOL
REMARK 923 INTER-LIGAND FREE ENERGY PREDICTED BY IDOCK:   -7.25 KCAL/MOL
REMARK 924 INTRA-LIGAND FREE ENERGY PREDICTED BY IDOCK:   -1.06 KCAL/MOL
REMARK 927      BINDING AFFINITY PREDICTED BY RF-SCORE:    0.00 PKD
ROOT
HETATM    1  C   UNL     1     -10.923   8.891  68.333  1.00  0.00     0.125 C  
HETATM    2  S   UNL     1     -10.135   8.339  66.845  1.00  0.00    -0.315 SA 
HETATM    3  C   UNL     1      -8.865   7.197  67.446  1.00  0.00    -0.119 C  
HETATM    4  C   UNL     1      -8.845   6.842  68.914  1.00  0.00    -0.128 C  
HETATM    5  O   UNL     1     -10.967   9.784  71.436  1.00  0.00    -0.342 OA 
HETATM    6  CA  UNL     1      -9.552   7.475  69.882  1.00  0.00    -0.160 C  
HETATM    7  CA  UNL     1     -11.085  10.369  68.933  1.00  0.00    -0.247 C  
HETATM    8  N   UNL     1     -10.307   8.563  69.584  1.00  0.00    -0.214 N  
HETATM    9  C   UNL     1      -9.429   7.011  71.307  1.00  0.00    -0.164 C  
HETATM   10  OXT UNL     1      -9.210   5.842  71.594  1.00  0.00    -0.146 OA 
HETATM   11  C   UNL     1     -10.907   9.567  70.262  1.00  0.00    -0.269 C  
HETATM   12  O   UNL     1      -9.577   7.921  72.282  1.00  0.00    -0.165 OA 
ENDROOT
BRANCH   4  13
HETATM   13  C   UNL     1      -7.777   5.776  69.202  1.00  0.00    -0.090 C  
BRANCH  13  14
HETATM   14  S   UNL     1      -6.350   6.582  69.982  1.00  0.00    -0.040 SA 
BRANCH  14  15
HETATM   15  C   UNL     1      -5.962   7.783  68.812  1.00  0.00    -0.035 A  
HETATM   16  N   UNL     1      -5.346   7.610  67.666  1.00  0.00    -0.029 NA 
HETATM   17  C   UNL     1      -6.817   9.793  70.089  1.00  0.00    -0.109 C  
HETATM   18  N   UNL     1      -5.131   8.877  67.166  1.00  0.00    -0.032 NA 
HETATM   19  N   UNL     1      -6.157   9.117  69.007  1.00  0.00    -0.043 NA 
HETATM   20  N   UNL     1      -5.619   9.804  67.982  1.00  0.00    -0.040 NA 
ENDBRANCH  14  15
ENDBRANCH  13  14
ENDBRANCH   4  13
BRANCH   7  21
HETATM   21  N   UNL     1     -10.199  11.623  68.962  1.00  0.00    -0.398 N  
HETATM   22  H   UNL     1      -9.419  11.526  69.611  1.00  0.00     0.000 HD 
HETATM   23  O   UNL     1      -9.274  13.649  68.567  1.00  0.00    -0.190 OA 
HETATM   24  C   UNL     1     -10.198  12.875  68.312  1.00  0.00    -0.245 C  
BRANCH  24  25
HETATM   25  C   UNL     1     -11.364  13.408  67.482  1.00  0.00    -0.298 C  
BRANCH  25  26
HETATM   26  C   UNL     1     -11.464  13.164  66.022  1.00  0.00    -0.335 A  
HETATM   27  H2  UNL     1     -13.149  11.365  62.547  1.00  0.00     0.000 HD 
HETATM   28  H1  UNL     1     -14.367  11.773  63.755  1.00  0.00     0.000 HD 
HETATM   29  C   UNL     1     -10.355  13.009  65.195  1.00  0.00    -0.304 A  
HETATM   30  N   UNL     1     -12.661  12.840  65.391  1.00  0.00    -0.636 NA 
HETATM   31  N   UNL     1     -13.395  11.781  63.447  1.00  0.00    -0.389 NA 
HETATM   32  S   UNL     1     -10.804  12.341  63.687  1.00  0.00    -0.472 SA 
HETATM   33  C   UNL     1     -12.434  12.328  64.203  1.00  0.00    -0.434 A  
ENDBRANCH  25  26
BRANCH  25  34
HETATM   34  N   UNL     1     -12.253  14.285  67.866  1.00  0.00    -0.595 NA 
HETATM   35  H   UNL     1     -13.218  13.963  67.950  1.00  0.00     0.000 HD 
BRANCH  34  36
HETATM   36  O   UNL     1     -11.998  15.628  68.174  1.00  0.00    -0.207 OA 
HETATM   37  C   UNL     1     -11.989  16.047  69.514  1.00  0.00    -0.185 C  
ENDBRANCH  34  36
ENDBRANCH  25  34
ENDBRANCH  24  25
ENDBRANCH   7  21
TORSDOF 8
ENDMDL
MODEL      194
REMARK 921   NORMALIZED FREE ENERGY PREDICTED BY IDOCK:   -4.86 KCAL/MOL
REMARK 922        TOTAL FREE ENERGY PREDICTED BY IDOCK:   -8.30 KCAL/MOL
REMARK 923 INTER-LIGAND FREE ENERGY PREDICTED BY IDOCK:   -7.26 KCAL/MOL
REMARK 924 INTRA-LIGAND FREE ENERGY PREDICTED BY IDOCK:   -1.03 KCAL/MOL
REMARK 927      BINDING AFFINITY PREDICTED BY RF-SCORE:    0.00 PKD
ROOT
HETATM    1  C   UNL     1      -8.885   9.710  69.299  1.00  0.00    -0.164 C  
HETATM    2  S   UNL     1      -9.830   9.434  70.772  1.00  0.00    -0.251 SA 
HETATM    3  C   UNL     1     -10.159   7.653  70.729  1.00  0.00    -0.189 C  
HETATM    4  C   UNL     1      -9.488   6.818  69.663  1.00  0.00    -0.146 C  
HETATM    5  O   UNL     1      -8.117   9.202  66.205  1.00  0.00    -0.105 OA 
HETATM    6  CA  UNL     1      -8.833   7.309  68.582  1.00  0.00    -0.129 C  
HETATM    7  CA  UNL     1      -9.182  10.657  68.040  1.00  0.00    -0.148 C  
HETATM    8  N   UNL     1      -8.795   8.645  68.346  1.00  0.00    -0.142 N  
HETATM    9  C   UNL     1      -8.215   6.352  67.599  1.00  0.00    -0.118 C  
HETATM   10  OXT UNL     1      -7.779   5.260  67.940  1.00  0.00    -0.086 OA 
HETATM   11  C   UNL     1      -8.495   9.458  67.309  1.00  0.00    -0.125 C  
HETATM   12  O   UNL     1      -8.138   6.730  66.314  1.00  0.00    -0.104 OA 
ENDROOT
BRANCH   4  13
HETATM   13  C   UNL     1      -9.796   5.327  69.866  1.00  0.00    -0.211 C  
BRANCH  13  14
HETATM   14  S   UNL     1      -8.738   4.695  71.199  1.00  0.00    -0.118 SA 
BRANCH  14  15
HETATM   15  C   UNL     1      -9.910   4.278  72.388  1.00  0.00    -0.158 A  
HETATM   16  N   UNL     1     -10.437   5.064  73.298  1.00  0.00    -0.193 NA 
HETATM   17  C   UNL     1     -10.087   1.813  71.845  1.00  0.00    -0.147 C  
HETATM   18  N   UNL     1     -11.195   4.240  74.104  1.00  0.00    -0.159 NA 
HETATM   19  N   UNL     1     -10.353   3.007  72.598  1.00  0.00    -0.154 NA 
HETATM   20  N   UNL     1     -11.145   2.981  73.686  1.00  0.00    -0.225 NA 
ENDBRANCH  14  15
ENDBRANCH  13  14
ENDBRANCH   4  13
BRANCH   7  21
HETATM   21  N   UNL     1     -10.449  11.071  67.279  1.00  0.00    -0.218 N  
HETATM   22  H   UNL     1     -10.690  10.407  66.545  1.00  0.00     0.000 HD 
HETATM   23  O   UNL     1     -12.319  12.128  66.569  1.00  0.00    -0.474 OA 
HETATM   24  C   UNL     1     -11.362  12.145  67.346  1.00  0.00    -0.326 C  
BRANCH  24  25
HETATM   25  C   UNL     1     -11.133  13.413  68.166  1.00  0.00    -0.258 C  
BRANCH  25  26
HETATM   26  C   UNL     1     -10.618  14.661  67.552  1.00  0.00    -0.257 A  
HETATM   27  H2  UNL     1     -10.506  18.881  66.974  1.00  0.00     0.000 HD 
HETATM   28  H1  UNL     1     -10.811  18.437  68.653  1.00  0.00     0.000 HD 
HETATM   29  C   UNL     1     -10.290  14.772  66.205  1.00  0.00    -0.304 A  
HETATM   30  N   UNL     1     -10.633  15.888  68.209  1.00  0.00    -0.266 NA 
HETATM   31  N   UNL     1     -10.607  18.162  67.692  1.00  0.00    -0.420 NA 
HETATM   32  S   UNL     1     -10.131  16.411  65.745  1.00  0.00    -0.292 SA 
HETATM   33  C   UNL     1     -10.471  16.872  67.356  1.00  0.00    -0.310 A  
ENDBRANCH  25  26
BRANCH  25  34
HETATM   34  N   UNL     1     -11.139  13.505  69.468  1.00  0.00    -0.447 NA 
HETATM   35  H   UNL     1     -10.251  13.718  69.924  1.00  0.00     0.000 HD 
BRANCH  34  36
HETATM   36  O   UNL     1     -12.257  13.336  70.296  1.00  0.00    -0.340 OA 
HETATM   37  C   UNL     1     -12.493  12.094  70.905  1.00  0.00    -0.279 C  
ENDBRANCH  34  36
ENDBRANCH  25  34
ENDBRANCH  24  25
ENDBRANCH   7  21
TORSDOF 8
ENDMDL
MODEL      195
REMARK 921   NORMALIZED FREE ENERGY PREDICTED BY IDOCK:   -4.84 KCAL/MOL
REMARK 922        TOTAL FREE ENERGY PREDICTED BY IDOCK:   -8.25 KCAL/MOL
REMARK 923 INTER-LIGAND FREE ENERGY PREDICTED BY IDOCK:   -7.30 KCAL/MOL
REMARK 924 INTRA-LIGAND FREE ENERGY PREDICTED BY IDOCK:   -0.96 KCAL/MOL
REMARK 927      BINDING AFFINITY PREDICTED BY RF-SCORE:    0.00 PKD
ROOT
HETATM    1  C   UNL     1      -8.955  12.016  67.951  1.00  0.00    -0.182 C  
HETATM    2  S   UNL     1      -7.331  12.725  67.894  1.00  0.00    -0.137 SA 
HETATM    3  C   UNL     1      -7.655  14.491  67.659  1.00  0.00    -0.182 C  
HETATM    4  C   UNL     1      -9.082  14.982  67.730  1.00  0.00    -0.180 C  
HETATM    5  O   UNL     1     -12.051  11.777  67.066  1.00  0.00    -0.575 OA 
HETATM    6  CA  UNL     1     -10.183  14.190  67.728  1.00  0.00    -0.242 C  
HETATM    7  CA  UNL     1      -9.632  10.900  67.021  1.00  0.00    -0.173 C  
HETATM    8  N   UNL     1     -10.065  12.845  67.588  1.00  0.00    -0.217 N  
HETATM    9  C   UNL     1     -11.545  14.823  67.800  1.00  0.00    -0.357 C  
HETATM   10  OXT UNL     1     -11.743  15.877  68.391  1.00  0.00    -0.358 OA 
HETATM   11  C   UNL     1     -10.877  11.806  67.289  1.00  0.00    -0.253 C  
HETATM   12  O   UNL     1     -12.567  14.192  67.201  1.00  0.00    -0.161 OA 
ENDROOT
BRANCH   4  13
HETATM   13  C   UNL     1      -9.137  16.513  67.626  1.00  0.00    -0.199 C  
BRANCH  13  14
HETATM   14  S   UNL     1      -7.472  17.172  67.920  1.00  0.00    -0.181 SA 
BRANCH  14  15
HETATM   15  C   UNL     1      -7.244  18.146  66.519  1.00  0.00    -0.233 A  
HETATM   16  N   UNL     1      -6.474  17.890  65.487  1.00  0.00    -0.250 NA 
HETATM   17  C   UNL     1      -8.693  20.098  67.220  1.00  0.00    -0.348 C  
HETATM   18  N   UNL     1      -6.508  19.028  64.709  1.00  0.00    -0.487 NA 
HETATM   19  N   UNL     1      -7.770  19.394  66.375  1.00  0.00    -0.270 NA 
HETATM   20  N   UNL     1      -7.293  19.954  65.247  1.00  0.00    -0.359 NA 
ENDBRANCH  14  15
ENDBRANCH  13  14
ENDBRANCH   4  13
BRANCH   7  21
HETATM   21  N   UNL     1      -9.556  10.552  65.528  1.00  0.00    -0.212 N  
HETATM   22  H   UNL     1     -10.134  11.171  64.960  1.00  0.00     0.000 HD 
HETATM   23  O   UNL     1      -9.040   9.634  63.526  1.00  0.00    -0.244 OA 
HETATM   24  C   UNL     1      -8.884   9.587  64.747  1.00  0.00    -0.207 C  
BRANCH  24  25
HETATM   25  C   UNL     1      -8.152   8.378  65.326  1.00  0.00    -0.140 C  
BRANCH  25  26
HETATM   26  C   UNL     1      -8.879   7.235  65.928  1.00  0.00    -0.109 A  
HETATM   27  H2  UNL     1     -10.426   3.265  65.950  1.00  0.00     0.000 HD 
HETATM   28  H1  UNL     1      -8.852   3.372  65.164  1.00  0.00     0.000 HD 
HETATM   29  C   UNL     1     -10.058   7.375  66.654  1.00  0.00    -0.183 A  
HETATM   30  N   UNL     1      -8.580   5.909  65.631  1.00  0.00    -0.153 NA 
HETATM   31  N   UNL     1      -9.614   3.819  65.675  1.00  0.00    -0.175 NA 
HETATM   32  S   UNL     1     -10.843   5.868  66.845  1.00  0.00    -0.216 SA 
HETATM   33  C   UNL     1      -9.566   5.120  65.990  1.00  0.00    -0.162 A  
ENDBRANCH  25  26
BRANCH  25  34
HETATM   34  N   UNL     1      -6.871   8.290  65.565  1.00  0.00    -0.065 NA 
HETATM   35  H   UNL     1      -6.282   7.921  64.817  1.00  0.00     0.000 HD 
BRANCH  34  36
HETATM   36  O   UNL     1      -6.233   8.658  66.758  1.00  0.00    -0.056 OA 
HETATM   37  C   UNL     1      -5.203   7.856  67.274  1.00  0.00    -0.028 C  
ENDBRANCH  34  36
ENDBRANCH  25  34
ENDBRANCH  24  25
ENDBRANCH   7  21
TORSDOF 8
ENDMDL
MODEL      196
REMARK 921   NORMALIZED FREE ENERGY PREDICTED BY IDOCK:   -4.83 KCAL/MOL
REMARK 922        TOTAL FREE ENERGY PREDICTED BY IDOCK:   -8.24 KCAL/MOL
REMARK 923 INTER-LIGAND FREE ENERGY PREDICTED BY IDOCK:   -7.60 KCAL/MOL
REMARK 924 INTRA-LIGAND FREE ENERGY PREDICTED BY IDOCK:   -0.64 KCAL/MOL
REMARK 927      BINDING AFFINITY PREDICTED BY RF-SCORE:    0.00 PKD
ROOT
HETATM    1  C   UNL     1      -9.053  11.492  68.285  1.00  0.00    -0.185 C  
HETATM    2  S   UNL     1     -10.535  11.010  69.128  1.00  0.00    -0.181 SA 
HETATM    3  C   UNL     1     -10.552   9.209  68.943  1.00  0.00    -0.191 C  
HETATM    4  C   UNL     1      -9.348   8.531  68.332  1.00  0.00    -0.137 C  
HETATM    5  O   UNL     1      -6.847  11.275  65.937  1.00  0.00     0.036 OA 
HETATM    6  CA  UNL     1      -8.334   9.165  67.693  1.00  0.00    -0.116 C  
HETATM    7  CA  UNL     1      -8.846  12.471  67.032  1.00  0.00    -0.212 C  
HETATM    8  N   UNL     1      -8.375  10.507  67.497  1.00  0.00    -0.118 N  
HETATM    9  C   UNL     1      -7.198   8.356  67.131  1.00  0.00    -0.084 C  
HETATM   10  OXT UNL     1      -6.829   7.308  67.644  1.00  0.00    -0.068 OA 
HETATM   11  C   UNL     1      -7.735  11.414  66.724  1.00  0.00    -0.150 C  
HETATM   12  O   UNL     1      -6.574   8.818  66.037  1.00  0.00    -0.057 OA 
ENDROOT
BRANCH   4  13
HETATM   13  C   UNL     1      -9.504   7.004  68.372  1.00  0.00    -0.133 C  
BRANCH  13  14
HETATM   14  S   UNL     1      -9.054   6.419  70.030  1.00  0.00    -0.150 SA 
BRANCH  14  15
HETATM   15  C   UNL     1     -10.567   6.524  70.845  1.00  0.00    -0.230 A  
HETATM   16  N   UNL     1     -11.765   6.445  70.316  1.00  0.00    -0.393 NA 
HETATM   17  C   UNL     1      -9.671   6.980  73.168  1.00  0.00    -0.184 C  
HETATM   18  N   UNL     1     -12.641   6.742  71.338  1.00  0.00    -0.340 NA 
HETATM   19  N   UNL     1     -10.691   6.827  72.168  1.00  0.00    -0.215 NA 
HETATM   20  N   UNL     1     -11.993   6.982  72.472  1.00  0.00    -0.125 NA 
ENDBRANCH  14  15
ENDBRANCH  13  14
ENDBRANCH   4  13
BRANCH   7  21
HETATM   21  N   UNL     1      -9.644  12.770  65.756  1.00  0.00    -0.444 N  
HETATM   22  H   UNL     1      -9.274  12.273  64.946  1.00  0.00     0.000 HD 
HETATM   23  O   UNL     1     -11.164  13.528  64.261  1.00  0.00    -0.377 OA 
HETATM   24  C   UNL     1     -10.764  13.563  65.426  1.00  0.00    -0.304 C  
BRANCH  24  25
HETATM   25  C   UNL     1     -11.378  14.605  66.359  1.00  0.00    -0.348 C  
BRANCH  25  26
HETATM   26  C   UNL     1     -10.779  15.949  66.536  1.00  0.00    -0.258 A  
HETATM   27  H2  UNL     1      -9.887  19.485  68.740  1.00  0.00     0.000 HD 
HETATM   28  H1  UNL     1      -9.830  18.034  69.739  1.00  0.00     0.000 HD 
HETATM   29  C   UNL     1     -10.801  16.932  65.551  1.00  0.00    -0.096 A  
HETATM   30  N   UNL     1     -10.348  16.428  67.770  1.00  0.00    -0.279 NA 
HETATM   31  N   UNL     1      -9.954  18.470  68.825  1.00  0.00    -0.385 NA 
HETATM   32  S   UNL     1     -10.409  18.463  66.203  1.00  0.00    -0.350 SA 
HETATM   33  C   UNL     1     -10.201  17.732  67.735  1.00  0.00    -0.361 A  
ENDBRANCH  25  26
BRANCH  25  34
HETATM   34  N   UNL     1     -12.316  14.396  67.243  1.00  0.00    -0.594 NA 
HETATM   35  H   UNL     1     -13.205  14.878  67.102  1.00  0.00     0.000 HD 
BRANCH  34  36
HETATM   36  O   UNL     1     -12.210  13.568  68.369  1.00  0.00    -0.315 OA 
HETATM   37  C   UNL     1     -12.390  14.109  69.652  1.00  0.00    -0.256 C  
ENDBRANCH  34  36
ENDBRANCH  25  34
ENDBRANCH  24  25
ENDBRANCH   7  21
TORSDOF 8
ENDMDL
MODEL      197
REMARK 921   NORMALIZED FREE ENERGY PREDICTED BY IDOCK:   -4.81 KCAL/MOL
REMARK 922        TOTAL FREE ENERGY PREDICTED BY IDOCK:   -8.22 KCAL/MOL
REMARK 923 INTER-LIGAND FREE ENERGY PREDICTED BY IDOCK:   -7.19 KCAL/MOL
REMARK 924 INTRA-LIGAND FREE ENERGY PREDICTED BY IDOCK:   -1.03 KCAL/MOL
REMARK 927      BINDING AFFINITY PREDICTED BY RF-SCORE:    0.00 PKD
ROOT
HETATM    1  C   UNL     1     -11.018   9.628  68.593  1.00  0.00    -0.111 C  
HETATM    2  S   UNL     1      -9.522   8.796  68.134  1.00  0.00    -0.141 SA 
HETATM    3  C   UNL     1      -9.049   7.924  69.649  1.00  0.00    -0.153 C  
HETATM    4  C   UNL     1     -10.005   7.931  70.819  1.00  0.00    -0.192 C  
HETATM    5  O   UNL     1     -12.940  11.229  70.635  1.00  0.00    -0.180 OA 
HETATM    6  CA  UNL     1     -11.099   8.724  70.930  1.00  0.00    -0.268 C  
HETATM    7  CA  UNL     1     -11.376  11.191  68.592  1.00  0.00    -0.277 C  
HETATM    8  N   UNL     1     -11.378   9.652  69.979  1.00  0.00    -0.226 N  
HETATM    9  C   UNL     1     -11.961   8.622  72.158  1.00  0.00    -0.379 C  
HETATM   10  OXT UNL     1     -12.094   7.574  72.776  1.00  0.00    -0.116 OA 
HETATM   11  C   UNL     1     -12.168  10.743  69.863  1.00  0.00    -0.313 C  
HETATM   12  O   UNL     1     -12.605   9.725  72.570  1.00  0.00    -0.174 OA 
ENDROOT
BRANCH   4  13
HETATM   13  C   UNL     1      -9.480   7.044  71.957  1.00  0.00    -0.138 C  
BRANCH  13  14
HETATM   14  S   UNL     1      -9.099   5.402  71.282  1.00  0.00    -0.143 SA 
BRANCH  14  15
HETATM   15  C   UNL     1     -10.061   4.393  72.291  1.00  0.00    -0.189 A  
HETATM   16  N   UNL     1     -10.677   4.729  73.400  1.00  0.00    -0.228 NA 
HETATM   17  C   UNL     1      -9.736   2.230  71.018  1.00  0.00    -0.086 C  
HETATM   18  N   UNL     1     -11.176   3.552  73.917  1.00  0.00    -0.140 NA 
HETATM   19  N   UNL     1     -10.199   3.051  72.102  1.00  0.00    -0.126 NA 
HETATM   20  N   UNL     1     -10.884   2.521  73.133  1.00  0.00    -0.162 NA 
ENDBRANCH  14  15
ENDBRANCH  13  14
ENDBRANCH   4  13
BRANCH   7  21
HETATM   21  N   UNL     1     -10.592  12.475  68.896  1.00  0.00    -0.385 N  
HETATM   22  H   UNL     1     -10.746  12.802  69.850  1.00  0.00     0.000 HD 
HETATM   23  O   UNL     1      -9.228  14.276  68.783  1.00  0.00    -0.185 OA 
HETATM   24  C   UNL     1      -9.712  13.316  68.182  1.00  0.00    -0.227 C  
BRANCH  24  25
HETATM   25  C   UNL     1      -9.485  13.232  66.673  1.00  0.00    -0.260 C  
BRANCH  25  26
HETATM   26  C   UNL     1      -9.237  11.941  65.988  1.00  0.00    -0.171 A  
HETATM   27  H2  UNL     1      -6.767   8.994  64.152  1.00  0.00     0.000 HD 
HETATM   28  H1  UNL     1      -5.992   9.755  65.540  1.00  0.00     0.000 HD 
HETATM   29  C   UNL     1     -10.065  11.430  64.994  1.00  0.00    -0.274 A  
HETATM   30  N   UNL     1      -8.041  11.239  66.110  1.00  0.00    -0.115 NA 
HETATM   31  N   UNL     1      -6.806   9.647  64.935  1.00  0.00    -0.103 NA 
HETATM   32  S   UNL     1      -9.292  10.166  64.140  1.00  0.00    -0.287 SA 
HETATM   33  C   UNL     1      -7.927  10.347  65.153  1.00  0.00    -0.134 A  
ENDBRANCH  25  26
BRANCH  25  34
HETATM   34  N   UNL     1      -9.265  14.235  65.866  1.00  0.00    -0.514 NA 
HETATM   35  H   UNL     1      -8.357  14.694  65.931  1.00  0.00     0.000 HD 
BRANCH  34  36
HETATM   36  O   UNL     1     -10.168  14.736  64.919  1.00  0.00    -0.388 OA 
HETATM   37  C   UNL     1     -10.723  16.014  65.091  1.00  0.00    -0.409 C  
ENDBRANCH  34  36
ENDBRANCH  25  34
ENDBRANCH  24  25
ENDBRANCH   7  21
TORSDOF 8
ENDMDL
MODEL      198
REMARK 921   NORMALIZED FREE ENERGY PREDICTED BY IDOCK:   -4.80 KCAL/MOL
REMARK 922        TOTAL FREE ENERGY PREDICTED BY IDOCK:   -8.21 KCAL/MOL
REMARK 923 INTER-LIGAND FREE ENERGY PREDICTED BY IDOCK:   -7.48 KCAL/MOL
REMARK 924 INTRA-LIGAND FREE ENERGY PREDICTED BY IDOCK:   -0.73 KCAL/MOL
REMARK 927      BINDING AFFINITY PREDICTED BY RF-SCORE:    0.00 PKD
ROOT
HETATM    1  C   UNL     1     -10.865  12.628  67.648  1.00  0.00    -0.221 C  
HETATM    2  S   UNL     1      -9.501  13.400  66.822  1.00  0.00    -0.260 SA 
HETATM    3  C   UNL     1      -8.060  12.541  67.505  1.00  0.00    -0.176 C  
HETATM    4  C   UNL     1      -8.287  11.350  68.406  1.00  0.00    -0.153 C  
HETATM    5  O   UNL     1     -12.332  11.267  70.182  1.00  0.00    -0.296 OA 
HETATM    6  CA  UNL     1      -9.478  10.991  68.944  1.00  0.00    -0.155 C  
HETATM    7  CA  UNL     1     -11.999  13.260  68.589  1.00  0.00    -0.310 C  
HETATM    8  N   UNL     1     -10.582  11.757  68.749  1.00  0.00    -0.212 N  
HETATM    9  C   UNL     1      -9.551   9.777  69.829  1.00  0.00    -0.230 C  
HETATM   10  OXT UNL     1      -8.813   8.814  69.675  1.00  0.00    -0.135 OA 
HETATM   11  C   UNL     1     -11.811  11.880  69.298  1.00  0.00    -0.318 C  
HETATM   12  O   UNL     1     -10.469   9.765  70.809  1.00  0.00    -0.303 OA 
ENDROOT
BRANCH   4  13
HETATM   13  C   UNL     1      -6.952  10.690  68.783  1.00  0.00    -0.068 C  
BRANCH  13  14
HETATM   14  S   UNL     1      -6.048  10.302  67.257  1.00  0.00    -0.055 SA 
BRANCH  14  15
HETATM   15  C   UNL     1      -7.168   9.268  66.457  1.00  0.00    -0.086 A  
HETATM   16  N   UNL     1      -8.066   9.607  65.562  1.00  0.00    -0.118 NA 
HETATM   17  C   UNL     1      -6.565   7.121  67.653  1.00  0.00    -0.056 C  
HETATM   18  N   UNL     1      -8.815   8.471  65.341  1.00  0.00    -0.164 NA 
HETATM   19  N   UNL     1      -7.328   7.951  66.762  1.00  0.00    -0.088 NA 
HETATM   20  N   UNL     1      -8.374   7.455  66.075  1.00  0.00    -0.136 NA 
ENDBRANCH  14  15
ENDBRANCH  13  14
ENDBRANCH   4  13
BRANCH   7  21
HETATM   21  N   UNL     1     -12.027  14.382  69.636  1.00  0.00    -0.317 N  
HETATM   22  H   UNL     1     -12.913  14.415  70.139  1.00  0.00     0.000 HD 
HETATM   23  O   UNL     1     -11.494  16.107  70.999  1.00  0.00    -0.405 OA 
HETATM   24  C   UNL     1     -11.128  15.377  70.076  1.00  0.00    -0.303 C  
BRANCH  24  25
HETATM   25  C   UNL     1      -9.832  15.738  69.353  1.00  0.00    -0.286 C  
BRANCH  25  26
HETATM   26  C   UNL     1      -9.779  16.802  68.322  1.00  0.00    -0.252 A  
HETATM   27  H2  UNL     1     -10.135  20.817  66.941  1.00  0.00     0.000 HD 
HETATM   28  H1  UNL     1      -9.451  20.718  68.562  1.00  0.00     0.000 HD 
HETATM   29  C   UNL     1     -10.251  16.633  67.024  1.00  0.00    -0.290 A  
HETATM   30  N   UNL     1      -9.468  18.126  68.618  1.00  0.00    -0.323 NA 
HETATM   31  N   UNL     1      -9.802  20.254  67.725  1.00  0.00    -0.408 NA 
HETATM   32  S   UNL     1     -10.423  18.140  66.233  1.00  0.00    -0.294 SA 
HETATM   33  C   UNL     1      -9.834  18.918  67.636  1.00  0.00    -0.331 A  
ENDBRANCH  25  26
BRANCH  25  34
HETATM   34  N   UNL     1      -8.719  15.055  69.373  1.00  0.00    -0.393 NA 
HETATM   35  H   UNL     1      -8.793  14.041  69.285  1.00  0.00     0.000 HD 
BRANCH  34  36
HETATM   36  O   UNL     1      -7.431  15.593  69.504  1.00  0.00    -0.213 OA 
HETATM   37  C   UNL     1      -6.319  14.737  69.554  1.00  0.00    -0.127 C  
ENDBRANCH  34  36
ENDBRANCH  25  34
ENDBRANCH  24  25
ENDBRANCH   7  21
TORSDOF 8
ENDMDL
MODEL      199
REMARK 921   NORMALIZED FREE ENERGY PREDICTED BY IDOCK:   -4.79 KCAL/MOL
REMARK 922        TOTAL FREE ENERGY PREDICTED BY IDOCK:   -8.19 KCAL/MOL
REMARK 923 INTER-LIGAND FREE ENERGY PREDICTED BY IDOCK:   -7.28 KCAL/MOL
REMARK 924 INTRA-LIGAND FREE ENERGY PREDICTED BY IDOCK:   -0.91 KCAL/MOL
REMARK 927      BINDING AFFINITY PREDICTED BY RF-SCORE:    0.00 PKD
ROOT
HETATM    1  C   UNL     1      -8.120  10.446  68.850  1.00  0.00    -0.129 C  
HETATM    2  S   UNL     1      -6.666  11.441  68.654  1.00  0.00    -0.077 SA 
HETATM    3  C   UNL     1      -7.317  13.015  68.041  1.00  0.00    -0.123 C  
HETATM    4  C   UNL     1      -8.815  13.210  67.992  1.00  0.00    -0.191 C  
HETATM    5  O   UNL     1     -11.059   9.404  68.012  1.00  0.00    -0.123 OA 
HETATM    6  CA  UNL     1      -9.737  12.230  68.152  1.00  0.00    -0.213 C  
HETATM    7  CA  UNL     1      -8.515   9.046  68.177  1.00  0.00    -0.129 C  
HETATM    8  N   UNL     1      -9.351  10.938  68.307  1.00  0.00    -0.162 N  
HETATM    9  C   UNL     1     -11.199  12.574  68.076  1.00  0.00    -0.270 C  
HETATM   10  OXT UNL     1     -11.630  13.666  68.423  1.00  0.00    -0.297 OA 
HETATM   11  C   UNL     1      -9.927   9.717  68.233  1.00  0.00    -0.155 C  
HETATM   12  O   UNL     1     -12.045  11.638  67.618  1.00  0.00    -0.615 OA 
ENDROOT
BRANCH   4  13
HETATM   13  C   UNL     1      -9.164  14.642  67.560  1.00  0.00    -0.192 C  
BRANCH  13  14
HETATM   14  S   UNL     1      -8.502  15.796  68.795  1.00  0.00    -0.214 SA 
BRANCH  14  15
HETATM   15  C   UNL     1      -9.392  17.224  68.431  1.00  0.00    -0.275 A  
HETATM   16  N   UNL     1     -10.644  17.307  68.046  1.00  0.00    -0.384 NA 
HETATM   17  C   UNL     1      -7.515  18.889  68.757  1.00  0.00    -0.325 C  
HETATM   18  N   UNL     1     -10.847  18.634  67.731  1.00  0.00    -0.344 NA 
HETATM   19  N   UNL     1      -8.838  18.468  68.392  1.00  0.00    -0.316 NA 
HETATM   20  N   UNL     1      -9.747  19.349  67.934  1.00  0.00    -0.333 NA 
ENDBRANCH  14  15
ENDBRANCH  13  14
ENDBRANCH   4  13
BRANCH   7  21
HETATM   21  N   UNL     1      -8.296   8.416  66.794  1.00  0.00    -0.108 N  
HETATM   22  H   UNL     1      -7.736   9.012  66.185  1.00  0.00     0.000 HD 
HETATM   23  O   UNL     1      -8.274   7.024  65.011  1.00  0.00    -0.131 OA 
HETATM   24  C   UNL     1      -8.678   7.215  66.159  1.00  0.00    -0.151 C  
BRANCH  24  25
HETATM   25  C   UNL     1      -9.717   6.244  66.719  1.00  0.00    -0.156 C  
BRANCH  25  26
HETATM   26  C   UNL     1      -9.621   5.702  68.095  1.00  0.00    -0.114 A  
HETATM   27  H2  UNL     1      -9.596   2.569  70.983  1.00  0.00     0.000 HD 
HETATM   28  H1  UNL     1      -8.794   2.110  69.482  1.00  0.00     0.000 HD 
HETATM   29  C   UNL     1     -10.220   6.303  69.198  1.00  0.00    -0.187 A  
HETATM   30  N   UNL     1      -9.125   4.431  68.374  1.00  0.00    -0.116 NA 
HETATM   31  N   UNL     1      -9.269   2.814  70.048  1.00  0.00    -0.124 NA 
HETATM   32  S   UNL     1     -10.271   5.232  70.529  1.00  0.00    -0.262 SA 
HETATM   33  C   UNL     1      -9.473   4.053  69.582  1.00  0.00    -0.192 A  
ENDBRANCH  25  26
BRANCH  25  34
HETATM   34  N   UNL     1     -10.640   5.621  66.038  1.00  0.00    -0.480 NA 
HETATM   35  H   UNL     1     -11.480   6.150  65.799  1.00  0.00     0.000 HD 
BRANCH  34  36
HETATM   36  O   UNL     1     -10.581   4.289  65.607  1.00  0.00    -0.201 OA 
HETATM   37  C   UNL     1      -9.853   3.961  64.452  1.00  0.00    -0.188 C  
ENDBRANCH  34  36
ENDBRANCH  25  34
ENDBRANCH  24  25
ENDBRANCH   7  21
TORSDOF 8
ENDMDL
MODEL      200
REMARK 921   NORMALIZED FREE ENERGY PREDICTED BY IDOCK:   -4.78 KCAL/MOL
REMARK 922        TOTAL FREE ENERGY PREDICTED BY IDOCK:   -8.17 KCAL/MOL
REMARK 923 INTER-LIGAND FREE ENERGY PREDICTED BY IDOCK:   -7.47 KCAL/MOL
REMARK 924 INTRA-LIGAND FREE ENERGY PREDICTED BY IDOCK:   -0.70 KCAL/MOL
REMARK 927      BINDING AFFINITY PREDICTED BY RF-SCORE:    0.00 PKD
ROOT
HETATM    1  C   UNL     1     -11.479   9.030  71.029  1.00  0.00    -0.295 C  
HETATM    2  S   UNL     1     -12.742   7.949  71.642  1.00  0.00    -0.329 SA 
HETATM    3  C   UNL     1     -11.890   6.999  72.927  1.00  0.00     0.174 C  
HETATM    4  C   UNL     1     -10.481   7.393  73.304  1.00  0.00    -0.424 C  
HETATM    5  O   UNL     1      -8.453   9.774  70.184  1.00  0.00    -0.189 OA 
HETATM    6  CA  UNL     1      -9.697   8.255  72.612  1.00  0.00    -0.287 C  
HETATM    7  CA  UNL     1     -10.877   9.187  69.551  1.00  0.00    -0.180 C  
HETATM    8  N   UNL     1     -10.129   8.793  71.443  1.00  0.00    -0.255 N  
HETATM    9  C   UNL     1      -8.308   8.550  73.108  1.00  0.00    -0.016 C  
HETATM   10  OXT UNL     1      -8.026   8.533  74.299  1.00  0.00    -0.348 OA 
HETATM   11  C   UNL     1      -9.582   9.439  70.389  1.00  0.00    -0.266 C  
HETATM   12  O   UNL     1      -7.364   8.848  72.203  1.00  0.00    -0.320 OA 
ENDROOT
BRANCH   4  13
HETATM   13  C   UNL     1      -9.979   6.550  74.486  1.00  0.00    -0.334 C  
BRANCH  13  14
HETATM   14  S   UNL     1      -8.779   5.338  73.865  1.00  0.00    -0.117 SA 
BRANCH  14  15
HETATM   15  C   UNL     1      -9.811   4.020  73.462  1.00  0.00    -0.118 A  
HETATM   16  N   UNL     1     -10.961   3.711  74.014  1.00  0.00    -0.190 NA 
HETATM   17  C   UNL     1      -8.340   2.962  71.696  1.00  0.00    -0.064 C  
HETATM   18  N   UNL     1     -11.322   2.499  73.463  1.00  0.00    -0.214 NA 
HETATM   19  N   UNL     1      -9.479   3.049  72.567  1.00  0.00    -0.104 NA 
HETATM   20  N   UNL     1     -10.418   2.085  72.582  1.00  0.00    -0.154 NA 
ENDBRANCH  14  15
ENDBRANCH  13  14
ENDBRANCH   4  13
BRANCH   7  21
HETATM   21  N   UNL     1     -10.571   8.214  68.404  1.00  0.00    -0.378 N  
HETATM   22  H   UNL     1     -10.547   7.244  68.720  1.00  0.00     0.000 HD 
HETATM   23  O   UNL     1     -10.140   7.288  66.385  1.00  0.00    -0.131 OA 
HETATM   24  C   UNL     1     -10.315   8.329  67.021  1.00  0.00    -0.323 C  
BRANCH  24  25
HETATM   25  C   UNL     1     -10.039   9.653  66.311  1.00  0.00    -0.252 C  
BRANCH  25  26
HETATM   26  C   UNL     1     -10.164  10.957  67.006  1.00  0.00    -0.214 A  
HETATM   27  H2  UNL     1     -11.849  14.821  67.623  1.00  0.00     0.000 HD 
HETATM   28  H1  UNL     1     -13.054  13.628  67.142  1.00  0.00     0.000 HD 
HETATM   29  C   UNL     1      -9.071  11.696  67.448  1.00  0.00    -0.169 A  
HETATM   30  N   UNL     1     -11.360  11.666  67.073  1.00  0.00    -0.405 NA 
HETATM   31  N   UNL     1     -12.091  13.858  67.388  1.00  0.00    -0.385 NA 
HETATM   32  S   UNL     1      -9.525  13.301  67.821  1.00  0.00    -0.216 SA 
HETATM   33  C   UNL     1     -11.139  12.916  67.408  1.00  0.00    -0.273 A  
ENDBRANCH  25  26
BRANCH  25  34
HETATM   34  N   UNL     1      -9.890   9.825  65.025  1.00  0.00    -0.421 NA 
HETATM   35  H   UNL     1     -10.516  10.490  64.569  1.00  0.00     0.000 HD 
BRANCH  34  36
HETATM   36  O   UNL     1      -8.947   9.178  64.216  1.00  0.00    -0.163 OA 
HETATM   37  C   UNL     1      -7.583   9.250  64.541  1.00  0.00    -0.107 C  
ENDBRANCH  34  36
ENDBRANCH  25  34
ENDBRANCH  24  25
ENDBRANCH   7  21
TORSDOF 8
ENDMDL
MODEL      201
REMARK 921   NORMALIZED FREE ENERGY PREDICTED BY IDOCK:   -4.76 KCAL/MOL
REMARK 922        TOTAL FREE ENERGY PREDICTED BY IDOCK:   -8.15 KCAL/MOL
REMARK 923 INTER-LIGAND FREE ENERGY PREDICTED BY IDOCK:   -6.10 KCAL/MOL
REMARK 924 INTRA-LIGAND FREE ENERGY PREDICTED BY IDOCK:   -2.04 KCAL/MOL
REMARK 927      BINDING AFFINITY PREDICTED BY RF-SCORE:    0.00 PKD
ROOT
HETATM    1  C   UNL     1     -11.638   7.813  71.036  1.00  0.00    -0.283 C  
HETATM    2  S   UNL     1     -11.402   9.568  70.964  1.00  0.00    -0.383 SA 
HETATM    3  C   UNL     1     -10.566   9.812  69.377  1.00  0.00    -0.228 C  
HETATM    4  C   UNL     1     -10.412   8.629  68.449  1.00  0.00    -0.220 C  
HETATM    5  O   UNL     1     -10.774   4.745  70.525  1.00  0.00    -0.011 OA 
HETATM    6  CA  UNL     1     -10.640   7.336  68.787  1.00  0.00    -0.181 C  
HETATM    7  CA  UNL     1     -11.121   6.742  72.110  1.00  0.00    -0.250 C  
HETATM    8  N   UNL     1     -10.973   7.004  70.060  1.00  0.00    -0.260 N  
HETATM    9  C   UNL     1     -10.441   6.259  67.755  1.00  0.00    -0.232 C  
HETATM   10  OXT UNL     1     -10.628   6.459  66.562  1.00  0.00    -0.180 OA 
HETATM   11  C   UNL     1     -11.017   5.880  70.810  1.00  0.00    -0.273 C  
HETATM   12  O   UNL     1     -10.056   5.045  68.176  1.00  0.00    -0.152 OA 
ENDROOT
BRANCH   4  13
HETATM   13  C   UNL     1      -9.789   9.061  67.114  1.00  0.00    -0.203 C  
BRANCH  13  14
HETATM   14  S   UNL     1      -8.893  10.619  67.370  1.00  0.00    -0.132 SA 
BRANCH  14  15
HETATM   15  C   UNL     1      -9.696  11.656  66.255  1.00  0.00    -0.218 A  
HETATM   16  N   UNL     1     -10.423  11.304  65.221  1.00  0.00    -0.279 NA 
HETATM   17  C   UNL     1      -8.895  13.861  67.203  1.00  0.00    -0.226 C  
HETATM   18  N   UNL     1     -10.713  12.477  64.556  1.00  0.00    -0.310 NA 
HETATM   19  N   UNL     1      -9.564  13.012  66.257  1.00  0.00    -0.262 NA 
HETATM   20  N   UNL     1     -10.187  13.525  65.180  1.00  0.00    -0.330 NA 
ENDBRANCH  14  15
ENDBRANCH  13  14
ENDBRANCH   4  13
BRANCH   7  21
HETATM   21  N   UNL     1      -9.840   6.582  72.941  1.00  0.00    -0.161 N  
HETATM   22  H   UNL     1     -10.028   6.198  73.867  1.00  0.00     0.000 HD 
HETATM   23  O   UNL     1      -7.693   6.540  73.653  1.00  0.00    -0.092 OA 
HETATM   24  C   UNL     1      -8.466   6.837  72.741  1.00  0.00    -0.117 C  
BRANCH  24  25
HETATM   25  C   UNL     1      -7.908   7.636  71.565  1.00  0.00    -0.086 C  
BRANCH  25  26
HETATM   26  C   UNL     1      -7.551   6.992  70.278  1.00  0.00    -0.087 A  
HETATM   27  H2  UNL     1      -6.011   3.827  67.878  1.00  0.00     0.000 HD 
HETATM   28  H1  UNL     1      -6.912   3.239  69.274  1.00  0.00     0.000 HD 
HETATM   29  C   UNL     1      -6.964   7.676  69.217  1.00  0.00    -0.060 A  
HETATM   30  N   UNL     1      -7.555   5.612  70.097  1.00  0.00    -0.083 NA 
HETATM   31  N   UNL     1      -6.579   4.017  68.705  1.00  0.00    -0.044 NA 
HETATM   32  S   UNL     1      -6.313   6.588  68.071  1.00  0.00    -0.042 SA 
HETATM   33  C   UNL     1      -6.872   5.284  69.025  1.00  0.00    -0.054 A  
ENDBRANCH  25  26
BRANCH  25  34
HETATM   34  N   UNL     1      -7.480   8.870  71.601  1.00  0.00    -0.289 NA 
HETATM   35  H   UNL     1      -7.930   9.537  70.973  1.00  0.00     0.000 HD 
BRANCH  34  36
HETATM   36  O   UNL     1      -6.457   9.358  72.425  1.00  0.00    -0.298 OA 
HETATM   37  C   UNL     1      -5.172   9.559  71.896  1.00  0.00    -0.076 C  
ENDBRANCH  34  36
ENDBRANCH  25  34
ENDBRANCH  24  25
ENDBRANCH   7  21
TORSDOF 8
ENDMDL
MODEL      202
REMARK 921   NORMALIZED FREE ENERGY PREDICTED BY IDOCK:   -4.75 KCAL/MOL
REMARK 922        TOTAL FREE ENERGY PREDICTED BY IDOCK:   -8.14 KCAL/MOL
REMARK 923 INTER-LIGAND FREE ENERGY PREDICTED BY IDOCK:   -6.60 KCAL/MOL
REMARK 924 INTRA-LIGAND FREE ENERGY PREDICTED BY IDOCK:   -1.54 KCAL/MOL
REMARK 927      BINDING AFFINITY PREDICTED BY RF-SCORE:    0.00 PKD
ROOT
HETATM    1  C   UNL     1      -7.979  11.009  66.877  1.00  0.00    -0.143 C  
HETATM    2  S   UNL     1      -8.216  10.877  68.628  1.00  0.00    -0.151 SA 
HETATM    3  C   UNL     1      -8.459   9.101  68.883  1.00  0.00    -0.129 C  
HETATM    4  C   UNL     1      -8.257   8.166  67.712  1.00  0.00    -0.128 C  
HETATM    5  O   UNL     1      -8.543  10.203  63.802  1.00  0.00    -0.171 OA 
HETATM    6  CA  UNL     1      -8.130   8.550  66.418  1.00  0.00    -0.103 C  
HETATM    7  CA  UNL     1      -8.810  11.830  65.778  1.00  0.00     0.060 C  
HETATM    8  N   UNL     1      -8.248   9.857  66.071  1.00  0.00    -0.117 N  
HETATM    9  C   UNL     1      -7.936   7.503  65.355  1.00  0.00    -0.124 C  
HETATM   10  OXT UNL     1      -7.354   6.450  65.578  1.00  0.00    -0.071 OA 
HETATM   11  C   UNL     1      -8.440  10.566  64.936  1.00  0.00    -0.158 C  
HETATM   12  O   UNL     1      -8.415   7.754  64.127  1.00  0.00     0.015 OA 
ENDROOT
BRANCH   4  13
HETATM   13  C   UNL     1      -8.391   6.702  68.155  1.00  0.00    -0.117 C  
BRANCH  13  14
HETATM   14  S   UNL     1      -7.628   6.521  69.793  1.00  0.00    -0.099 SA 
BRANCH  14  15
HETATM   15  C   UNL     1      -9.005   6.182  70.769  1.00  0.00    -0.143 A  
HETATM   16  N   UNL     1      -9.924   5.268  70.562  1.00  0.00    -0.212 NA 
HETATM   17  C   UNL     1      -8.674   8.020  72.476  1.00  0.00    -0.173 C  
HETATM   18  N   UNL     1     -10.890   5.491  71.520  1.00  0.00    -0.227 NA 
HETATM   19  N   UNL     1      -9.369   6.934  71.845  1.00  0.00    -0.142 NA 
HETATM   20  N   UNL     1     -10.562   6.510  72.305  1.00  0.00    -0.207 NA 
ENDBRANCH  14  15
ENDBRANCH  13  14
ENDBRANCH   4  13
BRANCH   7  21
HETATM   21  N   UNL     1     -10.295  12.167  65.582  1.00  0.00    -0.249 N  
HETATM   22  H   UNL     1     -10.581  12.084  64.607  1.00  0.00     0.000 HD 
HETATM   23  O   UNL     1     -12.467  12.715  65.896  1.00  0.00    -0.584 OA 
HETATM   24  C   UNL     1     -11.361  12.563  66.417  1.00  0.00    -0.329 C  
BRANCH  24  25
HETATM   25  C   UNL     1     -11.189  13.009  67.868  1.00  0.00    -0.271 C  
BRANCH  25  26
HETATM   26  C   UNL     1     -11.932  12.366  68.979  1.00  0.00    -0.241 A  
HETATM   27  H2  UNL     1     -13.331  12.090  72.994  1.00  0.00     0.000 HD 
HETATM   28  H1  UNL     1     -13.316  13.748  72.397  1.00  0.00     0.000 HD 
HETATM   29  C   UNL     1     -11.935  10.993  69.204  1.00  0.00    -0.324 A  
HETATM   30  N   UNL     1     -12.498  13.088  70.026  1.00  0.00    -0.118 NA 
HETATM   31  N   UNL     1     -13.170  12.752  72.234  1.00  0.00    -0.451 NA 
HETATM   32  S   UNL     1     -12.525  10.628  70.766  1.00  0.00    -0.414 SA 
HETATM   33  C   UNL     1     -12.771  12.297  71.039  1.00  0.00    -0.225 A  
ENDBRANCH  25  26
BRANCH  25  34
HETATM   34  N   UNL     1     -10.585  14.091  68.279  1.00  0.00    -0.242 NA 
HETATM   35  H   UNL     1      -9.831  13.975  68.957  1.00  0.00     0.000 HD 
BRANCH  34  36
HETATM   36  O   UNL     1     -10.882  15.399  67.872  1.00  0.00    -0.281 OA 
HETATM   37  C   UNL     1     -11.384  16.323  68.802  1.00  0.00    -0.329 C  
ENDBRANCH  34  36
ENDBRANCH  25  34
ENDBRANCH  24  25
ENDBRANCH   7  21
TORSDOF 8
ENDMDL
MODEL      203
REMARK 921   NORMALIZED FREE ENERGY PREDICTED BY IDOCK:   -4.75 KCAL/MOL
REMARK 922        TOTAL FREE ENERGY PREDICTED BY IDOCK:   -8.13 KCAL/MOL
REMARK 923 INTER-LIGAND FREE ENERGY PREDICTED BY IDOCK:   -6.96 KCAL/MOL
REMARK 924 INTRA-LIGAND FREE ENERGY PREDICTED BY IDOCK:   -1.17 KCAL/MOL
REMARK 927      BINDING AFFINITY PREDICTED BY RF-SCORE:    0.00 PKD
ROOT
HETATM    1  C   UNL     1      -9.460   8.795  67.663  1.00  0.00    -0.141 C  
HETATM    2  S   UNL     1     -10.272   9.589  66.303  1.00  0.00    -0.166 SA 
HETATM    3  C   UNL     1      -9.633  11.282  66.366  1.00  0.00    -0.198 C  
HETATM    4  C   UNL     1      -8.524  11.602  67.341  1.00  0.00    -0.150 C  
HETATM    5  O   UNL     1      -8.230   8.684  70.647  1.00  0.00    -0.111 OA 
HETATM    6  CA  UNL     1      -8.108  10.792  68.346  1.00  0.00    -0.127 C  
HETATM    7  CA  UNL     1     -10.072   8.072  68.957  1.00  0.00    -0.201 C  
HETATM    8  N   UNL     1      -8.739   9.615  68.589  1.00  0.00    -0.122 N  
HETATM    9  C   UNL     1      -6.990  11.247  69.244  1.00  0.00    -0.119 C  
HETATM   10  OXT UNL     1      -6.093  11.978  68.846  1.00  0.00    -0.060 OA 
HETATM   11  C   UNL     1      -8.796   8.713  69.595  1.00  0.00    -0.137 C  
HETATM   12  O   UNL     1      -6.988  10.820  70.516  1.00  0.00    -0.231 OA 
ENDROOT
BRANCH   4  13
HETATM   13  C   UNL     1      -8.040  13.048  67.160  1.00  0.00    -0.107 C  
BRANCH  13  14
HETATM   14  S   UNL     1      -9.444  14.064  66.620  1.00  0.00    -0.279 SA 
BRANCH  14  15
HETATM   15  C   UNL     1      -8.839  15.651  66.903  1.00  0.00    -0.250 A  
HETATM   16  N   UNL     1      -8.497  16.545  66.006  1.00  0.00    -0.424 NA 
HETATM   17  C   UNL     1      -8.744  15.534  69.429  1.00  0.00    -0.258 C  
HETATM   18  N   UNL     1      -7.931  17.584  66.716  1.00  0.00    -0.225 NA 
HETATM   19  N   UNL     1      -8.527  16.129  68.140  1.00  0.00    -0.172 NA 
HETATM   20  N   UNL     1      -7.941  17.335  68.020  1.00  0.00    -0.208 NA 
ENDBRANCH  14  15
ENDBRANCH  13  14
ENDBRANCH   4  13
BRANCH   7  21
HETATM   21  N   UNL     1     -11.287   8.328  69.859  1.00  0.00    -0.454 N  
HETATM   22  H   UNL     1     -11.955   8.968  69.431  1.00  0.00     0.000 HD 
HETATM   23  O   UNL     1     -12.799   8.296  71.541  1.00  0.00    -0.308 OA 
HETATM   24  C   UNL     1     -11.706   7.896  71.136  1.00  0.00    -0.285 C  
BRANCH  24  25
HETATM   25  C   UNL     1     -10.814   7.141  72.119  1.00  0.00    -0.224 C  
BRANCH  25  26
HETATM   26  C   UNL     1     -10.714   5.662  72.111  1.00  0.00    -0.234 A  
HETATM   27  H2  UNL     1     -10.417   1.834  73.958  1.00  0.00     0.000 HD 
HETATM   28  H1  UNL     1     -11.467   2.934  74.849  1.00  0.00     0.000 HD 
HETATM   29  C   UNL     1      -9.921   4.954  71.212  1.00  0.00    -0.201 A  
HETATM   30  N   UNL     1     -11.214   4.865  73.137  1.00  0.00    -0.317 NA 
HETATM   31  N   UNL     1     -10.877   2.741  74.040  1.00  0.00    -0.187 NA 
HETATM   32  S   UNL     1      -9.706   3.337  71.725  1.00  0.00    -0.160 SA 
HETATM   33  C   UNL     1     -10.696   3.660  73.082  1.00  0.00    -0.175 A  
ENDBRANCH  25  26
BRANCH  25  34
HETATM   34  N   UNL     1     -10.234   7.639  73.178  1.00  0.00    -0.316 NA 
HETATM   35  H   UNL     1     -10.727   8.383  73.673  1.00  0.00     0.000 HD 
BRANCH  34  36
HETATM   36  O   UNL     1      -8.992   7.243  73.693  1.00  0.00    -0.157 OA 
HETATM   37  C   UNL     1      -8.113   8.206  74.212  1.00  0.00    -0.251 C  
ENDBRANCH  34  36
ENDBRANCH  25  34
ENDBRANCH  24  25
ENDBRANCH   7  21
TORSDOF 8
ENDMDL
MODEL      204
REMARK 921   NORMALIZED FREE ENERGY PREDICTED BY IDOCK:   -4.75 KCAL/MOL
REMARK 922        TOTAL FREE ENERGY PREDICTED BY IDOCK:   -8.13 KCAL/MOL
REMARK 923 INTER-LIGAND FREE ENERGY PREDICTED BY IDOCK:   -6.44 KCAL/MOL
REMARK 924 INTRA-LIGAND FREE ENERGY PREDICTED BY IDOCK:   -1.69 KCAL/MOL
REMARK 927      BINDING AFFINITY PREDICTED BY RF-SCORE:    0.00 PKD
ROOT
HETATM    1  C   UNL     1      -9.261   5.439  69.706  1.00  0.00    -0.132 C  
HETATM    2  S   UNL     1     -10.902   6.025  69.386  1.00  0.00    -0.375 SA 
HETATM    3  C   UNL     1     -10.731   6.904  67.812  1.00  0.00    -0.254 C  
HETATM    4  C   UNL     1      -9.414   6.821  67.075  1.00  0.00    -0.175 C  
HETATM    5  O   UNL     1      -6.040   5.668  69.684  1.00  0.00    -0.023 OA 
HETATM    6  CA  UNL     1      -8.258   6.335  67.590  1.00  0.00    -0.117 C  
HETATM    7  CA  UNL     1      -8.283   5.722  70.945  1.00  0.00    -0.121 C  
HETATM    8  N   UNL     1      -8.196   5.933  68.885  1.00  0.00    -0.102 N  
HETATM    9  C   UNL     1      -7.020   6.318  66.737  1.00  0.00    -0.068 C  
HETATM   10  OXT UNL     1      -7.070   6.183  65.521  1.00  0.00    -0.065 OA 
HETATM   11  C   UNL     1      -7.230   5.658  69.791  1.00  0.00    -0.069 C  
HETATM   12  O   UNL     1      -5.832   6.447  67.346  1.00  0.00    -0.015 OA 
ENDROOT
BRANCH   4  13
HETATM   13  C   UNL     1      -9.506   7.527  65.714  1.00  0.00     0.282 C  
BRANCH  13  14
HETATM   14  S   UNL     1      -9.346   9.316  65.979  1.00  0.00    -0.241 SA 
BRANCH  14  15
HETATM   15  C   UNL     1      -8.040   9.696  64.924  1.00  0.00    -0.133 A  
HETATM   16  N   UNL     1      -6.758   9.670  65.203  1.00  0.00    -0.088 NA 
HETATM   17  C   UNL     1      -9.413  10.380  62.912  1.00  0.00    -0.325 C  
HETATM   18  N   UNL     1      -6.128  10.201  64.097  1.00  0.00    -0.132 NA 
HETATM   19  N   UNL     1      -8.206  10.196  63.668  1.00  0.00    -0.161 NA 
HETATM   20  N   UNL     1      -7.006  10.530  63.156  1.00  0.00    -0.055 NA 
ENDBRANCH  14  15
ENDBRANCH  13  14
ENDBRANCH   4  13
BRANCH   7  21
HETATM   21  N   UNL     1      -8.000   6.938  71.837  1.00  0.00    -0.099 N  
HETATM   22  H   UNL     1      -7.007   7.170  71.866  1.00  0.00     0.000 HD 
HETATM   23  O   UNL     1      -8.188   8.735  73.199  1.00  0.00    -0.411 OA 
HETATM   24  C   UNL     1      -8.774   7.814  72.628  1.00  0.00    -0.146 C  
BRANCH  24  25
HETATM   25  C   UNL     1     -10.241   7.575  72.982  1.00  0.00    -0.306 C  
BRANCH  25  26
HETATM   26  C   UNL     1     -11.344   8.237  72.245  1.00  0.00    -0.378 A  
HETATM   27  H2  UNL     1     -13.380  11.608  70.617  1.00  0.00     0.000 HD 
HETATM   28  H1  UNL     1     -11.628  11.748  70.483  1.00  0.00     0.000 HD 
HETATM   29  C   UNL     1     -12.681   7.877  72.383  1.00  0.00    -0.081 A  
HETATM   30  N   UNL     1     -11.172   9.419  71.530  1.00  0.00    -0.378 NA 
HETATM   31  N   UNL     1     -12.451  11.208  70.753  1.00  0.00    -0.371 NA 
HETATM   32  S   UNL     1     -13.710   9.079  71.734  1.00  0.00    -0.410 SA 
HETATM   33  C   UNL     1     -12.331   9.983  71.281  1.00  0.00    -0.398 A  
ENDBRANCH  25  26
BRANCH  25  34
HETATM   34  N   UNL     1     -10.692   6.979  74.053  1.00  0.00    -0.508 NA 
HETATM   35  H   UNL     1     -11.206   7.552  74.723  1.00  0.00     0.000 HD 
BRANCH  34  36
HETATM   36  O   UNL     1     -10.531   5.622  74.363  1.00  0.00    -0.268 OA 
HETATM   37  C   UNL     1     -10.968   4.643  73.456  1.00  0.00    -0.318 C  
ENDBRANCH  34  36
ENDBRANCH  25  34
ENDBRANCH  24  25
ENDBRANCH   7  21
TORSDOF 8
ENDMDL
MODEL      205
REMARK 921   NORMALIZED FREE ENERGY PREDICTED BY IDOCK:   -4.72 KCAL/MOL
REMARK 922        TOTAL FREE ENERGY PREDICTED BY IDOCK:   -8.09 KCAL/MOL
REMARK 923 INTER-LIGAND FREE ENERGY PREDICTED BY IDOCK:   -6.74 KCAL/MOL
REMARK 924 INTRA-LIGAND FREE ENERGY PREDICTED BY IDOCK:   -1.35 KCAL/MOL
REMARK 927      BINDING AFFINITY PREDICTED BY RF-SCORE:    0.00 PKD
ROOT
HETATM    1  C   UNL     1      -9.717  11.333  68.245  1.00  0.00    -0.198 C  
HETATM    2  S   UNL     1     -11.164  10.310  68.206  1.00  0.00    -0.174 SA 
HETATM    3  C   UNL     1     -10.632   8.874  67.241  1.00  0.00    -0.234 C  
HETATM    4  C   UNL     1      -9.176   8.758  66.855  1.00  0.00    -0.195 C  
HETATM    5  O   UNL     1      -7.039  12.623  66.985  1.00  0.00    -0.076 OA 
HETATM    6  CA  UNL     1      -8.256   9.748  66.967  1.00  0.00    -0.117 C  
HETATM    7  CA  UNL     1      -9.495  12.833  67.725  1.00  0.00    -0.205 C  
HETATM    8  N   UNL     1      -8.621  10.984  67.392  1.00  0.00    -0.131 N  
HETATM    9  C   UNL     1      -6.838   9.487  66.538  1.00  0.00    -0.083 C  
HETATM   10  OXT UNL     1      -6.327   8.379  66.619  1.00  0.00    -0.053 OA 
HETATM   11  C   UNL     1      -8.093  12.229  67.386  1.00  0.00    -0.175 C  
HETATM   12  O   UNL     1      -6.123  10.518  66.062  1.00  0.00    -0.096 OA 
ENDROOT
BRANCH   4  13
HETATM   13  C   UNL     1      -8.904   7.422  66.148  1.00  0.00    -0.160 C  
BRANCH  13  14
HETATM   14  S   UNL     1      -9.830   6.116  67.004  1.00  0.00    -0.161 SA 
BRANCH  14  15
HETATM   15  C   UNL     1      -9.692   4.817  65.884  1.00  0.00    -0.193 A  
HETATM   16  N   UNL     1     -10.579   4.432  64.997  1.00  0.00    -0.186 NA 
HETATM   17  C   UNL     1      -7.433   3.958  66.634  1.00  0.00    -0.080 C  
HETATM   18  N   UNL     1     -10.078   3.267  64.455  1.00  0.00    -0.148 NA 
HETATM   19  N   UNL     1      -8.651   3.938  65.873  1.00  0.00    -0.110 NA 
HETATM   20  N   UNL     1      -8.903   2.955  64.989  1.00  0.00    -0.121 NA 
ENDBRANCH  14  15
ENDBRANCH  13  14
ENDBRANCH   4  13
BRANCH   7  21
HETATM   21  N   UNL     1     -10.011  13.646  66.529  1.00  0.00    -0.281 N  
HETATM   22  H   UNL     1     -10.616  13.093  65.922  1.00  0.00     0.000 HD 
HETATM   23  O   UNL     1     -10.474  15.291  65.047  1.00  0.00    -0.399 OA 
HETATM   24  C   UNL     1      -9.856  14.969  66.064  1.00  0.00    -0.319 C  
BRANCH  24  25
HETATM   25  C   UNL     1      -8.825  15.953  66.613  1.00  0.00    -0.281 C  
BRANCH  25  26
HETATM   26  C   UNL     1      -8.970  17.419  66.441  1.00  0.00    -0.246 A  
HETATM   27  H2  UNL     1      -7.487  21.393  66.043  1.00  0.00     0.000 HD 
HETATM   28  H1  UNL     1      -6.476  20.209  65.217  1.00  0.00     0.000 HD 
HETATM   29  C   UNL     1      -9.947  18.171  67.085  1.00  0.00    -0.336 A  
HETATM   30  N   UNL     1      -8.010  18.204  65.809  1.00  0.00    -0.515 NA 
HETATM   31  N   UNL     1      -7.313  20.429  65.757  1.00  0.00    -0.194 NA 
HETATM   32  S   UNL     1      -9.589  19.841  67.004  1.00  0.00    -0.399 SA 
HETATM   33  C   UNL     1      -8.187  19.473  66.098  1.00  0.00    -0.326 A  
ENDBRANCH  25  26
BRANCH  25  34
HETATM   34  N   UNL     1      -7.640  15.656  67.075  1.00  0.00    -0.221 NA 
HETATM   35  H   UNL     1      -7.069  15.019  66.518  1.00  0.00     0.000 HD 
BRANCH  34  36
HETATM   36  O   UNL     1      -7.084  16.134  68.269  1.00  0.00    -0.122 OA 
HETATM   37  C   UNL     1      -7.229  15.392  69.452  1.00  0.00    -0.203 C  
ENDBRANCH  34  36
ENDBRANCH  25  34
ENDBRANCH  24  25
ENDBRANCH   7  21
TORSDOF 8
ENDMDL
MODEL      206
REMARK 921   NORMALIZED FREE ENERGY PREDICTED BY IDOCK:   -4.72 KCAL/MOL
REMARK 922        TOTAL FREE ENERGY PREDICTED BY IDOCK:   -8.09 KCAL/MOL
REMARK 923 INTER-LIGAND FREE ENERGY PREDICTED BY IDOCK:   -6.80 KCAL/MOL
REMARK 924 INTRA-LIGAND FREE ENERGY PREDICTED BY IDOCK:   -1.29 KCAL/MOL
REMARK 927      BINDING AFFINITY PREDICTED BY RF-SCORE:    0.00 PKD
ROOT
HETATM    1  C   UNL     1      -7.454  10.517  67.409  1.00  0.00    -0.094 C  
HETATM    2  S   UNL     1      -7.845  10.768  69.119  1.00  0.00    -0.119 SA 
HETATM    3  C   UNL     1      -8.472   9.153  69.645  1.00  0.00    -0.133 C  
HETATM    4  C   UNL     1      -8.381   7.992  68.682  1.00  0.00    -0.127 C  
HETATM    5  O   UNL     1      -7.939   9.263  64.474  1.00  0.00    -0.115 OA 
HETATM    6  CA  UNL     1      -8.079   8.090  67.364  1.00  0.00    -0.122 C  
HETATM    7  CA  UNL     1      -8.010  11.256  66.100  1.00  0.00    -0.038 C  
HETATM    8  N   UNL     1      -7.896   9.305  66.787  1.00  0.00    -0.104 N  
HETATM    9  C   UNL     1      -8.028   6.843  66.525  1.00  0.00    -0.109 C  
HETATM   10  OXT UNL     1      -7.697   5.760  66.989  1.00  0.00    -0.098 OA 
HETATM   11  C   UNL     1      -7.849   9.808  65.533  1.00  0.00    -0.120 C  
HETATM   12  O   UNL     1      -8.349   6.942  65.226  1.00  0.00    -0.136 OA 
ENDROOT
BRANCH   4  13
HETATM   13  C   UNL     1      -8.850   6.692  69.351  1.00  0.00    -0.134 C  
BRANCH  13  14
HETATM   14  S   UNL     1     -10.657   6.746  69.517  1.00  0.00    -0.248 SA 
BRANCH  14  15
HETATM   15  C   UNL     1     -10.832   6.997  71.211  1.00  0.00    -0.235 A  
HETATM   16  N   UNL     1     -10.376   6.239  72.181  1.00  0.00    -0.189 NA 
HETATM   17  C   UNL     1     -12.265   9.079  71.101  1.00  0.00    -0.275 C  
HETATM   18  N   UNL     1     -10.901   6.767  73.341  1.00  0.00    -0.284 NA 
HETATM   19  N   UNL     1     -11.591   7.990  71.751  1.00  0.00    -0.271 NA 
HETATM   20  N   UNL     1     -11.650   7.834  73.087  1.00  0.00    -0.217 NA 
ENDBRANCH  14  15
ENDBRANCH  13  14
ENDBRANCH   4  13
BRANCH   7  21
HETATM   21  N   UNL     1      -9.373  11.827  65.682  1.00  0.00    -0.358 N  
HETATM   22  H   UNL     1      -9.669  11.483  64.769  1.00  0.00     0.000 HD 
HETATM   23  O   UNL     1     -11.354  12.917  65.619  1.00  0.00    -0.295 OA 
HETATM   24  C   UNL     1     -10.316  12.710  66.250  1.00  0.00    -0.252 C  
BRANCH  24  25
HETATM   25  C   UNL     1     -10.046  13.573  67.481  1.00  0.00    -0.234 C  
BRANCH  25  26
HETATM   26  C   UNL     1      -9.415  14.911  67.377  1.00  0.00    -0.206 A  
HETATM   27  H2  UNL     1      -9.439  19.109  66.647  1.00  0.00     0.000 HD 
HETATM   28  H1  UNL     1     -10.896  18.559  67.473  1.00  0.00     0.000 HD 
HETATM   29  C   UNL     1      -8.164  15.125  66.807  1.00  0.00    -0.137 A  
HETATM   30  N   UNL     1     -10.106  16.093  67.627  1.00  0.00    -0.243 NA 
HETATM   31  N   UNL     1      -9.975  18.357  67.082  1.00  0.00    -0.321 NA 
HETATM   32  S   UNL     1      -7.918  16.783  66.472  1.00  0.00    -0.324 SA 
HETATM   33  C   UNL     1      -9.460  17.122  67.128  1.00  0.00    -0.248 A  
ENDBRANCH  25  26
BRANCH  25  34
HETATM   34  N   UNL     1     -10.115  13.189  68.727  1.00  0.00    -0.419 NA 
HETATM   35  H   UNL     1      -9.233  13.054  69.222  1.00  0.00     0.000 HD 
BRANCH  34  36
HETATM   36  O   UNL     1     -11.294  12.944  69.443  1.00  0.00    -0.250 OA 
HETATM   37  C   UNL     1     -12.151  14.009  69.763  1.00  0.00    -0.348 C  
ENDBRANCH  34  36
ENDBRANCH  25  34
ENDBRANCH  24  25
ENDBRANCH   7  21
TORSDOF 8
ENDMDL
MODEL      207
REMARK 921   NORMALIZED FREE ENERGY PREDICTED BY IDOCK:   -4.72 KCAL/MOL
REMARK 922        TOTAL FREE ENERGY PREDICTED BY IDOCK:   -8.08 KCAL/MOL
REMARK 923 INTER-LIGAND FREE ENERGY PREDICTED BY IDOCK:   -7.10 KCAL/MOL
REMARK 924 INTRA-LIGAND FREE ENERGY PREDICTED BY IDOCK:   -0.99 KCAL/MOL
REMARK 927      BINDING AFFINITY PREDICTED BY RF-SCORE:    0.00 PKD
ROOT
HETATM    1  C   UNL     1      -8.428   8.321  68.048  1.00  0.00    -0.132 C  
HETATM    2  S   UNL     1      -7.554   8.738  69.532  1.00  0.00    -0.082 SA 
HETATM    3  C   UNL     1      -7.648   7.218  70.512  1.00  0.00    -0.088 C  
HETATM    4  C   UNL     1      -8.229   5.979  69.873  1.00  0.00    -0.118 C  
HETATM    5  O   UNL     1     -10.773   6.866  66.371  1.00  0.00    -0.019 OA 
HETATM    6  CA  UNL     1      -8.904   5.947  68.698  1.00  0.00    -0.111 C  
HETATM    7  CA  UNL     1      -9.730   8.987  67.391  1.00  0.00    -0.168 C  
HETATM    8  N   UNL     1      -9.168   7.095  68.024  1.00  0.00    -0.131 N  
HETATM    9  C   UNL     1      -9.430   4.635  68.185  1.00  0.00    -0.146 C  
HETATM   10  OXT UNL     1      -8.867   3.573  68.416  1.00  0.00    -0.098 OA 
HETATM   11  C   UNL     1      -9.989   7.489  67.024  1.00  0.00    -0.234 C  
HETATM   12  O   UNL     1     -10.550   4.649  67.446  1.00  0.00     0.037 OA 
ENDROOT
BRANCH   4  13
HETATM   13  C   UNL     1      -8.112   4.773  70.818  1.00  0.00    -0.085 C  
BRANCH  13  14
HETATM   14  S   UNL     1      -9.765   4.369  71.449  1.00  0.00    -0.186 SA 
BRANCH  14  15
HETATM   15  C   UNL     1     -10.145   5.797  72.334  1.00  0.00    -0.178 A  
HETATM   16  N   UNL     1      -9.722   6.128  73.531  1.00  0.00    -0.157 NA 
HETATM   17  C   UNL     1     -11.762   6.809  70.671  1.00  0.00    -0.386 C  
HETATM   18  N   UNL     1     -10.419   7.270  73.866  1.00  0.00    -0.302 NA 
HETATM   19  N   UNL     1     -11.055   6.721  71.918  1.00  0.00    -0.239 NA 
HETATM   20  N   UNL     1     -11.240   7.636  72.888  1.00  0.00    -0.380 NA 
ENDBRANCH  14  15
ENDBRANCH  13  14
ENDBRANCH   4  13
BRANCH   7  21
HETATM   21  N   UNL     1     -11.016   9.614  67.946  1.00  0.00    -0.484 N  
HETATM   22  H   UNL     1     -11.824   9.003  67.826  1.00  0.00     0.000 HD 
HETATM   23  O   UNL     1     -12.527  10.976  68.935  1.00  0.00    -0.460 OA 
HETATM   24  C   UNL     1     -11.356  10.826  68.583  1.00  0.00    -0.291 C  
BRANCH  24  25
HETATM   25  C   UNL     1     -10.424  12.033  68.677  1.00  0.00    -0.218 C  
BRANCH  25  26
HETATM   26  C   UNL     1     -10.880  13.404  68.341  1.00  0.00    -0.264 A  
HETATM   27  H2  UNL     1     -10.582  17.155  66.342  1.00  0.00     0.000 HD 
HETATM   28  H1  UNL     1     -10.067  15.807  65.330  1.00  0.00     0.000 HD 
HETATM   29  C   UNL     1     -11.403  14.288  69.280  1.00  0.00    -0.283 A  
HETATM   30  N   UNL     1     -10.614  14.008  67.116  1.00  0.00    -0.273 NA 
HETATM   31  N   UNL     1     -10.453  16.151  66.209  1.00  0.00    -0.318 NA 
HETATM   32  S   UNL     1     -11.438  15.884  68.667  1.00  0.00    -0.368 SA 
HETATM   33  C   UNL     1     -10.793  15.307  67.192  1.00  0.00    -0.322 A  
ENDBRANCH  25  26
BRANCH  25  34
HETATM   34  N   UNL     1      -9.128  12.000  68.834  1.00  0.00    -0.384 NA 
HETATM   35  H   UNL     1      -8.776  11.935  69.789  1.00  0.00     0.000 HD 
BRANCH  34  36
HETATM   36  O   UNL     1      -8.179  12.048  67.804  1.00  0.00    -0.133 OA 
HETATM   37  C   UNL     1      -6.908  12.591  68.052  1.00  0.00    -0.094 C  
ENDBRANCH  34  36
ENDBRANCH  25  34
ENDBRANCH  24  25
ENDBRANCH   7  21
TORSDOF 8
ENDMDL
MODEL      208
REMARK 921   NORMALIZED FREE ENERGY PREDICTED BY IDOCK:   -4.70 KCAL/MOL
REMARK 922        TOTAL FREE ENERGY PREDICTED BY IDOCK:   -8.05 KCAL/MOL
REMARK 923 INTER-LIGAND FREE ENERGY PREDICTED BY IDOCK:   -5.62 KCAL/MOL
REMARK 924 INTRA-LIGAND FREE ENERGY PREDICTED BY IDOCK:   -2.43 KCAL/MOL
REMARK 927      BINDING AFFINITY PREDICTED BY RF-SCORE:    0.00 PKD
ROOT
HETATM    1  C   UNL     1     -11.760   7.740  70.498  1.00  0.00    -0.102 C  
HETATM    2  S   UNL     1     -11.579   9.398  71.096  1.00  0.00    -0.375 SA 
HETATM    3  C   UNL     1     -10.489  10.167  69.872  1.00  0.00    -0.275 C  
HETATM    4  C   UNL     1     -10.132   9.387  68.628  1.00  0.00    -0.208 C  
HETATM    5  O   UNL     1     -10.708   5.031  69.091  1.00  0.00    -0.046 OA 
HETATM    6  CA  UNL     1     -10.368   8.065  68.439  1.00  0.00    -0.199 C  
HETATM    7  CA  UNL     1     -11.398   6.342  71.195  1.00  0.00    -0.303 C  
HETATM    8  N   UNL     1     -10.905   7.312  69.431  1.00  0.00    -0.221 N  
HETATM    9  C   UNL     1      -9.953   7.421  67.144  1.00  0.00    -0.215 C  
HETATM   10  OXT UNL     1      -9.936   8.037  66.087  1.00  0.00    -0.122 OA 
HETATM   11  C   UNL     1     -11.038   5.996  69.713  1.00  0.00    -0.406 C  
HETATM   12  O   UNL     1      -9.603   6.126  67.167  1.00  0.00    -0.118 OA 
ENDROOT
BRANCH   4  13
HETATM   13  C   UNL     1      -9.303  10.248  67.665  1.00  0.00    -0.144 C  
BRANCH  13  14
HETATM   14  S   UNL     1      -8.343  11.443  68.637  1.00  0.00    -0.102 SA 
BRANCH  14  15
HETATM   15  C   UNL     1      -6.997  11.717  67.600  1.00  0.00    -0.103 A  
HETATM   16  N   UNL     1      -6.537  10.920  66.664  1.00  0.00    -0.110 NA 
HETATM   17  C   UNL     1      -6.260  13.933  68.575  1.00  0.00    -0.093 C  
HETATM   18  N   UNL     1      -5.366  11.503  66.225  1.00  0.00    -0.286 NA 
HETATM   19  N   UNL     1      -6.158  12.784  67.719  1.00  0.00    -0.118 NA 
HETATM   20  N   UNL     1      -5.125  12.640  66.868  1.00  0.00    -0.311 NA 
ENDBRANCH  14  15
ENDBRANCH  13  14
ENDBRANCH   4  13
BRANCH   7  21
HETATM   21  N   UNL     1     -10.277   5.861  72.126  1.00  0.00    -0.191 N  
HETATM   22  H   UNL     1     -10.547   5.032  72.656  1.00  0.00     0.000 HD 
HETATM   23  O   UNL     1      -8.321   5.605  73.234  1.00  0.00    -0.117 OA 
HETATM   24  C   UNL     1      -8.965   6.282  72.431  1.00  0.00    -0.138 C  
BRANCH  24  25
HETATM   25  C   UNL     1      -8.374   7.621  71.993  1.00  0.00    -0.110 C  
BRANCH  25  26
HETATM   26  C   UNL     1      -7.515   7.743  70.790  1.00  0.00    -0.070 A  
HETATM   27  H2  UNL     1      -5.080   6.202  67.652  1.00  0.00     0.000 HD 
HETATM   28  H1  UNL     1      -6.459   5.163  68.009  1.00  0.00     0.000 HD 
HETATM   29  C   UNL     1      -6.561   8.743  70.630  1.00  0.00    -0.045 A  
HETATM   30  N   UNL     1      -7.422   6.745  69.824  1.00  0.00    -0.089 NA 
HETATM   31  N   UNL     1      -5.937   6.023  68.177  1.00  0.00    -0.016 NA 
HETATM   32  S   UNL     1      -5.482   8.364  69.359  1.00  0.00    -0.031 SA 
HETATM   33  C   UNL     1      -6.357   6.923  69.076  1.00  0.00    -0.028 A  
ENDBRANCH  25  26
BRANCH  25  34
HETATM   34  N   UNL     1      -8.353   8.724  72.691  1.00  0.00    -0.400 NA 
HETATM   35  H   UNL     1      -8.667   9.576  72.225  1.00  0.00     0.000 HD 
BRANCH  34  36
HETATM   36  O   UNL     1      -7.937   8.841  74.024  1.00  0.00    -0.392 OA 
HETATM   37  C   UNL     1      -6.619   8.510  74.375  1.00  0.00    -0.135 C  
ENDBRANCH  34  36
ENDBRANCH  25  34
ENDBRANCH  24  25
ENDBRANCH   7  21
TORSDOF 8
ENDMDL
MODEL      209
REMARK 921   NORMALIZED FREE ENERGY PREDICTED BY IDOCK:   -4.69 KCAL/MOL
REMARK 922        TOTAL FREE ENERGY PREDICTED BY IDOCK:   -8.04 KCAL/MOL
REMARK 923 INTER-LIGAND FREE ENERGY PREDICTED BY IDOCK:   -6.60 KCAL/MOL
REMARK 924 INTRA-LIGAND FREE ENERGY PREDICTED BY IDOCK:   -1.44 KCAL/MOL
REMARK 927      BINDING AFFINITY PREDICTED BY RF-SCORE:    0.00 PKD
ROOT
HETATM    1  C   UNL     1      -8.991   8.797  66.390  1.00  0.00    -0.158 C  
HETATM    2  S   UNL     1     -10.659   8.759  66.987  1.00  0.00    -0.122 SA 
HETATM    3  C   UNL     1     -10.816  10.323  67.886  1.00  0.00    -0.284 C  
HETATM    4  C   UNL     1      -9.684  11.321  67.808  1.00  0.00    -0.184 C  
HETATM    5  O   UNL     1      -5.845   9.492  66.607  1.00  0.00    -0.053 OA 
HETATM    6  CA  UNL     1      -8.449  11.065  67.310  1.00  0.00    -0.130 C  
HETATM    7  CA  UNL     1      -7.773   7.788  66.653  1.00  0.00    -0.098 C  
HETATM    8  N   UNL     1      -8.119   9.817  66.891  1.00  0.00    -0.113 N  
HETATM    9  C   UNL     1      -7.418  12.160  67.299  1.00  0.00    -0.152 C  
HETATM   10  OXT UNL     1      -7.723  13.340  67.181  1.00  0.00    -0.120 OA 
HETATM   11  C   UNL     1      -6.987   9.138  66.600  1.00  0.00    -0.081 C  
HETATM   12  O   UNL     1      -6.127  11.813  67.416  1.00  0.00    -0.079 OA 
ENDROOT
BRANCH   4  13
HETATM   13  C   UNL     1     -10.055  12.623  68.531  1.00  0.00    -0.178 C  
BRANCH  13  14
HETATM   14  S   UNL     1     -11.769  13.050  68.111  1.00  0.00    -0.350 SA 
BRANCH  14  15
HETATM   15  C   UNL     1     -11.605  13.508  66.459  1.00  0.00    -0.359 A  
HETATM   16  N   UNL     1     -11.919  12.799  65.401  1.00  0.00    -0.411 NA 
HETATM   17  C   UNL     1     -10.518  15.762  66.836  1.00  0.00    -0.315 C  
HETATM   18  N   UNL     1     -11.462  13.525  64.321  1.00  0.00    -0.386 NA 
HETATM   19  N   UNL     1     -11.001  14.660  66.053  1.00  0.00    -0.318 NA 
HETATM   20  N   UNL     1     -10.895  14.660  64.711  1.00  0.00    -0.401 NA 
ENDBRANCH  14  15
ENDBRANCH  13  14
ENDBRANCH   4  13
BRANCH   7  21
HETATM   21  N   UNL     1      -7.301   6.960  67.857  1.00  0.00    -0.094 N  
HETATM   22  H   UNL     1      -6.284   6.928  67.925  1.00  0.00     0.000 HD 
HETATM   23  O   UNL     1      -7.201   5.706  69.737  1.00  0.00    -0.065 OA 
HETATM   24  C   UNL     1      -7.927   6.234  68.893  1.00  0.00    -0.109 C  
BRANCH  24  25
HETATM   25  C   UNL     1      -9.415   5.892  68.918  1.00  0.00    -0.126 C  
BRANCH  25  26
HETATM   26  C   UNL     1     -10.255   6.134  70.116  1.00  0.00    -0.199 A  
HETATM   27  H2  UNL     1     -12.322   4.946  73.647  1.00  0.00     0.000 HD 
HETATM   28  H1  UNL     1     -10.795   4.090  73.438  1.00  0.00     0.000 HD 
HETATM   29  C   UNL     1     -11.362   6.979  70.116  1.00  0.00    -0.277 A  
HETATM   30  N   UNL     1     -10.156   5.370  71.275  1.00  0.00    -0.200 NA 
HETATM   31  N   UNL     1     -11.459   4.797  73.122  1.00  0.00    -0.301 NA 
HETATM   32  S   UNL     1     -12.331   6.718  71.500  1.00  0.00    -0.324 SA 
HETATM   33  C   UNL     1     -11.218   5.534  72.030  1.00  0.00    -0.156 A  
ENDBRANCH  25  26
BRANCH  25  34
HETATM   34  N   UNL     1     -10.061   5.178  68.036  1.00  0.00    -0.148 NA 
HETATM   35  H   UNL     1     -10.842   5.627  67.555  1.00  0.00     0.000 HD 
BRANCH  34  36
HETATM   36  O   UNL     1      -9.777   3.850  67.691  1.00  0.00    -0.179 OA 
HETATM   37  C   UNL     1      -9.420   2.931  68.691  1.00  0.00    -0.124 C  
ENDBRANCH  34  36
ENDBRANCH  25  34
ENDBRANCH  24  25
ENDBRANCH   7  21
TORSDOF 8
ENDMDL
MODEL      210
REMARK 921   NORMALIZED FREE ENERGY PREDICTED BY IDOCK:   -4.66 KCAL/MOL
REMARK 922        TOTAL FREE ENERGY PREDICTED BY IDOCK:   -8.00 KCAL/MOL
REMARK 923 INTER-LIGAND FREE ENERGY PREDICTED BY IDOCK:   -6.69 KCAL/MOL
REMARK 924 INTRA-LIGAND FREE ENERGY PREDICTED BY IDOCK:   -1.31 KCAL/MOL
REMARK 927      BINDING AFFINITY PREDICTED BY RF-SCORE:    0.00 PKD
ROOT
HETATM    1  C   UNL     1      -7.645   8.132  66.820  1.00  0.00    -0.094 C  
HETATM    2  S   UNL     1      -7.820   8.670  65.141  1.00  0.00    -0.117 SA 
HETATM    3  C   UNL     1      -9.169   9.875  65.228  1.00  0.00    -0.226 C  
HETATM    4  C   UNL     1      -9.699  10.273  66.585  1.00  0.00    -0.233 C  
HETATM    5  O   UNL     1      -8.759   7.328  69.742  1.00  0.00    -0.140 OA 
HETATM    6  CA  UNL     1      -9.416   9.642  67.751  1.00  0.00    -0.127 C  
HETATM    7  CA  UNL     1      -7.775   6.667  67.457  1.00  0.00    -0.110 C  
HETATM    8  N   UNL     1      -8.653   8.519  67.760  1.00  0.00    -0.133 N  
HETATM    9  C   UNL     1     -10.021  10.151  69.030  1.00  0.00    -0.208 C  
HETATM   10  OXT UNL     1     -10.277  11.336  69.203  1.00  0.00    -0.190 OA 
HETATM   11  C   UNL     1      -8.383   7.514  68.623  1.00  0.00    -0.129 C  
HETATM   12  O   UNL     1     -10.274   9.265  70.006  1.00  0.00    -0.191 OA 
ENDROOT
BRANCH   4  13
HETATM   13  C   UNL     1     -10.750  11.386  66.455  1.00  0.00    -0.275 C  
BRANCH  13  14
HETATM   14  S   UNL     1      -9.927  12.892  65.864  1.00  0.00    -0.243 SA 
BRANCH  14  15
HETATM   15  C   UNL     1     -11.163  13.592  64.893  1.00  0.00    -0.342 A  
HETATM   16  N   UNL     1     -11.950  12.978  64.040  1.00  0.00    -0.423 NA 
HETATM   17  C   UNL     1     -10.808  16.003  65.572  1.00  0.00    -0.292 C  
HETATM   18  N   UNL     1     -12.655  13.977  63.402  1.00  0.00    -0.736 NA 
HETATM   19  N   UNL     1     -11.393  14.932  64.815  1.00  0.00    -0.402 NA 
HETATM   20  N   UNL     1     -12.316  15.174  63.865  1.00  0.00    -0.664 NA 
ENDBRANCH  14  15
ENDBRANCH  13  14
ENDBRANCH   4  13
BRANCH   7  21
HETATM   21  N   UNL     1      -8.668   5.449  67.182  1.00  0.00    -0.108 N  
HETATM   22  H   UNL     1      -9.372   5.642  66.470  1.00  0.00     0.000 HD 
HETATM   23  O   UNL     1      -9.606   3.390  67.173  1.00  0.00    -0.198 OA 
HETATM   24  C   UNL     1      -8.754   4.128  67.671  1.00  0.00    -0.107 C  
BRANCH  24  25
HETATM   25  C   UNL     1      -8.009   3.623  68.905  1.00  0.00    -0.058 C  
BRANCH  25  26
HETATM   26  C   UNL     1      -8.462   3.941  70.281  1.00  0.00    -0.060 A  
HETATM   27  H2  UNL     1     -10.902   5.949  73.139  1.00  0.00     0.000 HD 
HETATM   28  H1  UNL     1     -11.791   5.509  71.682  1.00  0.00     0.000 HD 
HETATM   29  C   UNL     1      -7.592   4.113  71.353  1.00  0.00    -0.064 A  
HETATM   30  N   UNL     1      -9.767   4.323  70.576  1.00  0.00    -0.201 NA 
HETATM   31  N   UNL     1     -10.928   5.494  72.226  1.00  0.00    -0.241 NA 
HETATM   32  S   UNL     1      -8.381   4.864  72.670  1.00  0.00    -0.116 SA 
HETATM   33  C   UNL     1      -9.828   4.888  71.760  1.00  0.00    -0.180 A  
ENDBRANCH  25  26
BRANCH  25  34
HETATM   34  N   UNL     1      -6.824   3.073  68.923  1.00  0.00    -0.040 NA 
HETATM   35  H   UNL     1      -6.089   3.568  69.428  1.00  0.00     0.000 HD 
BRANCH  34  36
HETATM   36  O   UNL     1      -6.474   1.863  68.309  1.00  0.00    -0.028 OA 
HETATM   37  C   UNL     1      -5.907   1.871  67.025  1.00  0.00    -0.019 C  
ENDBRANCH  34  36
ENDBRANCH  25  34
ENDBRANCH  24  25
ENDBRANCH   7  21
TORSDOF 8
ENDMDL
MODEL      211
REMARK 921   NORMALIZED FREE ENERGY PREDICTED BY IDOCK:   -4.62 KCAL/MOL
REMARK 922        TOTAL FREE ENERGY PREDICTED BY IDOCK:   -7.93 KCAL/MOL
REMARK 923 INTER-LIGAND FREE ENERGY PREDICTED BY IDOCK:   -6.65 KCAL/MOL
REMARK 924 INTRA-LIGAND FREE ENERGY PREDICTED BY IDOCK:   -1.29 KCAL/MOL
REMARK 927      BINDING AFFINITY PREDICTED BY RF-SCORE:    0.00 PKD
ROOT
HETATM    1  C   UNL     1     -10.554  16.980  69.465  1.00  0.00    -0.168 C  
HETATM    2  S   UNL     1     -11.739  15.690  69.194  1.00  0.00    -0.372 SA 
HETATM    3  C   UNL     1     -10.727  14.313  68.595  1.00  0.00    -0.249 C  
HETATM    4  C   UNL     1      -9.223  14.458  68.613  1.00  0.00    -0.181 C  
HETATM    5  O   UNL     1      -7.890  18.667  68.771  1.00  0.00    -0.318 OA 
HETATM    6  CA  UNL     1      -8.551  15.616  68.824  1.00  0.00    -0.193 C  
HETATM    7  CA  UNL     1     -10.454  18.446  68.824  1.00  0.00    -0.048 C  
HETATM    8  N   UNL     1      -9.223  16.786  68.974  1.00  0.00    -0.237 N  
HETATM    9  C   UNL     1      -7.047  15.608  68.810  1.00  0.00    -0.127 C  
HETATM   10  OXT UNL     1      -6.398  14.633  69.166  1.00  0.00    -0.096 OA 
HETATM   11  C   UNL     1      -8.932  18.106  68.938  1.00  0.00    -0.123 C  
HETATM   12  O   UNL     1      -6.413  16.718  68.400  1.00  0.00    -0.138 OA 
ENDROOT
BRANCH   4  13
HETATM   13  C   UNL     1      -8.545  13.148  68.183  1.00  0.00    -0.181 C  
BRANCH  13  14
HETATM   14  S   UNL     1      -9.784  11.822  68.202  1.00  0.00    -0.195 SA 
BRANCH  14  15
HETATM   15  C   UNL     1      -8.844  10.491  68.756  1.00  0.00    -0.158 A  
HETATM   16  N   UNL     1      -7.713  10.536  69.420  1.00  0.00    -0.154 NA 
HETATM   17  C   UNL     1     -10.262   8.639  67.774  1.00  0.00    -0.225 C  
HETATM   18  N   UNL     1      -7.276   9.230  69.494  1.00  0.00    -0.059 NA 
HETATM   19  N   UNL     1      -9.124   9.193  68.453  1.00  0.00    -0.133 NA 
HETATM   20  N   UNL     1      -8.130   8.404  68.901  1.00  0.00    -0.112 NA 
ENDBRANCH  14  15
ENDBRANCH  13  14
ENDBRANCH   4  13
BRANCH   7  21
HETATM   21  N   UNL     1     -10.750  19.039  67.440  1.00  0.00    -0.479 N  
HETATM   22  H   UNL     1     -11.451  19.778  67.481  1.00  0.00     0.000 HD 
HETATM   23  O   UNL     1     -10.745  19.531  65.232  1.00  0.00    -0.408 OA 
HETATM   24  C   UNL     1     -10.292  18.813  66.124  1.00  0.00    -0.448 C  
BRANCH  24  25
HETATM   25  C   UNL     1      -9.437  17.617  65.710  1.00  0.00     0.222 C  
BRANCH  25  26
HETATM   26  C   UNL     1     -10.033  16.392  65.126  1.00  0.00     0.365 A  
HETATM   27  H2  UNL     1     -13.272  13.808  64.134  1.00  0.00     0.000 HD 
HETATM   28  H1  UNL     1     -13.692  15.511  63.969  1.00  0.00     0.000 HD 
HETATM   29  C   UNL     1      -9.459  15.129  65.246  1.00  0.00     0.202 A  
HETATM   30  N   UNL     1     -11.324  16.353  64.608  1.00  0.00    -0.572 NA 
HETATM   31  N   UNL     1     -13.000  14.791  64.173  1.00  0.00    -0.346 NA 
HETATM   32  S   UNL     1     -10.579  13.905  64.834  1.00  0.00    -0.431 SA 
HETATM   33  C   UNL     1     -11.740  15.113  64.491  1.00  0.00    -0.328 A  
ENDBRANCH  25  26
BRANCH  25  34
HETATM   34  N   UNL     1      -8.178  17.426  66.003  1.00  0.00    -0.536 NA 
HETATM   35  H   UNL     1      -7.929  16.528  66.420  1.00  0.00     0.000 HD 
BRANCH  34  36
HETATM   36  O   UNL     1      -7.141  18.345  65.797  1.00  0.00    -0.391 OA 
HETATM   37  C   UNL     1      -5.865  17.887  65.434  1.00  0.00    -0.034 C  
ENDBRANCH  34  36
ENDBRANCH  25  34
ENDBRANCH  24  25
ENDBRANCH   7  21
TORSDOF 8
ENDMDL
MODEL      212
REMARK 921   NORMALIZED FREE ENERGY PREDICTED BY IDOCK:   -4.59 KCAL/MOL
REMARK 922        TOTAL FREE ENERGY PREDICTED BY IDOCK:   -7.90 KCAL/MOL
REMARK 923 INTER-LIGAND FREE ENERGY PREDICTED BY IDOCK:   -6.61 KCAL/MOL
REMARK 924 INTRA-LIGAND FREE ENERGY PREDICTED BY IDOCK:   -1.29 KCAL/MOL
REMARK 927      BINDING AFFINITY PREDICTED BY RF-SCORE:    0.00 PKD
ROOT
HETATM    1  C   UNL     1     -11.117   9.902  69.498  1.00  0.00    -0.217 C  
HETATM    2  S   UNL     1      -9.562  10.645  69.089  1.00  0.00    -0.136 SA 
HETATM    3  C   UNL     1      -8.356   9.564  69.898  1.00  0.00    -0.170 C  
HETATM    4  C   UNL     1      -8.845   8.286  70.540  1.00  0.00    -0.148 C  
HETATM    5  O   UNL     1     -13.168   8.349  71.449  1.00  0.00    -0.300 OA 
HETATM    6  CA  UNL     1     -10.144   7.973  70.770  1.00  0.00    -0.192 C  
HETATM    7  CA  UNL     1     -12.378  10.503  70.285  1.00  0.00    -0.298 C  
HETATM    8  N   UNL     1     -11.129   8.862  70.483  1.00  0.00    -0.247 N  
HETATM    9  C   UNL     1     -10.481   6.660  71.422  1.00  0.00    -0.214 C  
HETATM   10  OXT UNL     1      -9.792   5.661  71.267  1.00  0.00    -0.166 OA 
HETATM   11  C   UNL     1     -12.435   9.025  70.792  1.00  0.00     0.030 C  
HETATM   12  O   UNL     1     -11.582   6.600  72.187  1.00  0.00    -0.274 OA 
ENDROOT
BRANCH   4  13
HETATM   13  C   UNL     1      -7.665   7.454  71.063  1.00  0.00    -0.091 C  
BRANCH  13  14
HETATM   14  S   UNL     1      -6.510   7.163  69.694  1.00  0.00    -0.040 SA 
BRANCH  14  15
HETATM   15  C   UNL     1      -7.266   5.842  68.891  1.00  0.00    -0.082 A  
HETATM   16  N   UNL     1      -7.397   4.612  69.329  1.00  0.00    -0.052 NA 
HETATM   17  C   UNL     1      -7.830   7.034  66.731  1.00  0.00    -0.107 C  
HETATM   18  N   UNL     1      -7.925   3.898  68.274  1.00  0.00    -0.076 NA 
HETATM   19  N   UNL     1      -7.730   5.903  67.611  1.00  0.00    -0.096 NA 
HETATM   20  N   UNL     1      -8.126   4.678  67.218  1.00  0.00    -0.101 NA 
ENDBRANCH  14  15
ENDBRANCH  13  14
ENDBRANCH   4  13
BRANCH   7  21
HETATM   21  N   UNL     1     -12.550  11.464  71.469  1.00  0.00    -0.328 N  
HETATM   22  H   UNL     1     -12.689  10.968  72.349  1.00  0.00     0.000 HD 
HETATM   23  O   UNL     1     -12.696  13.297  72.787  1.00  0.00    -0.085 OA 
HETATM   24  C   UNL     1     -12.563  12.865  71.641  1.00  0.00    -0.102 C  
BRANCH  24  25
HETATM   25  C   UNL     1     -12.631  13.867  70.489  1.00  0.00    -0.312 C  
BRANCH  25  26
HETATM   26  C   UNL     1     -11.672  13.828  69.359  1.00  0.00    -0.325 A  
HETATM   27  H2  UNL     1      -8.518  15.393  66.959  1.00  0.00     0.000 HD 
HETATM   28  H1  UNL     1      -8.299  15.741  68.673  1.00  0.00     0.000 HD 
HETATM   29  C   UNL     1     -12.006  13.372  68.088  1.00  0.00    -0.321 A  
HETATM   30  N   UNL     1     -10.430  14.454  69.401  1.00  0.00    -0.143 NA 
HETATM   31  N   UNL     1      -8.832  15.296  67.926  1.00  0.00    -0.164 NA 
HETATM   32  S   UNL     1     -10.829  13.840  66.939  1.00  0.00    -0.286 SA 
HETATM   33  C   UNL     1      -9.936  14.586  68.192  1.00  0.00    -0.220 A  
ENDBRANCH  25  26
BRANCH  25  34
HETATM   34  N   UNL     1     -13.345  14.960  70.454  1.00  0.00    -0.621 NA 
HETATM   35  H   UNL     1     -14.033  15.043  69.705  1.00  0.00     0.000 HD 
BRANCH  34  36
HETATM   36  O   UNL     1     -13.249  16.029  71.355  1.00  0.00    -0.400 OA 
HETATM   37  C   UNL     1     -11.994  16.408  71.856  1.00  0.00    -0.324 C  
ENDBRANCH  34  36
ENDBRANCH  25  34
ENDBRANCH  24  25
ENDBRANCH   7  21
TORSDOF 8
ENDMDL
MODEL      213
REMARK 921   NORMALIZED FREE ENERGY PREDICTED BY IDOCK:   -4.59 KCAL/MOL
REMARK 922        TOTAL FREE ENERGY PREDICTED BY IDOCK:   -7.90 KCAL/MOL
REMARK 923 INTER-LIGAND FREE ENERGY PREDICTED BY IDOCK:   -6.34 KCAL/MOL
REMARK 924 INTRA-LIGAND FREE ENERGY PREDICTED BY IDOCK:   -1.56 KCAL/MOL
REMARK 927      BINDING AFFINITY PREDICTED BY RF-SCORE:    0.00 PKD
ROOT
HETATM    1  C   UNL     1      -7.678  15.224  68.926  1.00  0.00    -0.167 C  
HETATM    2  S   UNL     1      -9.365  15.707  69.177  1.00  0.00    -0.265 SA 
HETATM    3  C   UNL     1     -10.303  14.314  68.500  1.00  0.00    -0.244 C  
HETATM    4  C   UNL     1      -9.552  13.077  68.066  1.00  0.00    -0.224 C  
HETATM    5  O   UNL     1      -5.270  13.835  67.283  1.00  0.00    -0.318 OA 
HETATM    6  CA  UNL     1      -8.207  12.988  67.922  1.00  0.00    -0.166 C  
HETATM    7  CA  UNL     1      -6.508  15.940  68.097  1.00  0.00    -0.127 C  
HETATM    8  N   UNL     1      -7.421  14.080  68.104  1.00  0.00    -0.116 N  
HETATM    9  C   UNL     1      -7.598  11.686  67.479  1.00  0.00    -0.128 C  
HETATM   10  OXT UNL     1      -8.098  10.605  67.758  1.00  0.00    -0.109 OA 
HETATM   11  C   UNL     1      -6.152  14.444  67.813  1.00  0.00    -0.117 C  
HETATM   12  O   UNL     1      -6.464  11.732  66.763  1.00  0.00    -0.137 OA 
ENDROOT
BRANCH   4  13
HETATM   13  C   UNL     1     -10.527  11.971  67.636  1.00  0.00    -0.205 C  
BRANCH  13  14
HETATM   14  S   UNL     1     -11.959  11.996  68.752  1.00  0.00    -0.145 SA 
BRANCH  14  15
HETATM   15  C   UNL     1     -11.613  10.653  69.771  1.00  0.00    -0.309 A  
HETATM   16  N   UNL     1     -10.871   9.608  69.488  1.00  0.00    -0.232 NA 
HETATM   17  C   UNL     1     -13.046  11.341  71.740  1.00  0.00    -0.422 C  
HETATM   18  N   UNL     1     -11.027   8.745  70.553  1.00  0.00    -0.235 NA 
HETATM   19  N   UNL     1     -12.188  10.465  70.992  1.00  0.00    -0.358 NA 
HETATM   20  N   UNL     1     -11.834   9.259  71.474  1.00  0.00    -0.347 NA 
ENDBRANCH  14  15
ENDBRANCH  13  14
ENDBRANCH   4  13
BRANCH   7  21
HETATM   21  N   UNL     1      -6.450  16.743  66.790  1.00  0.00    -0.200 N  
HETATM   22  H   UNL     1      -5.562  16.623  66.305  1.00  0.00     0.000 HD 
HETATM   23  O   UNL     1      -6.937  18.059  65.016  1.00  0.00    -0.147 OA 
HETATM   24  C   UNL     1      -7.323  17.607  66.095  1.00  0.00    -0.309 C  
BRANCH  24  25
HETATM   25  C   UNL     1      -8.613  18.175  66.685  1.00  0.00    -0.267 C  
BRANCH  25  26
HETATM   26  C   UNL     1      -8.606  19.083  67.857  1.00  0.00    -0.301 A  
HETATM   27  H2  UNL     1      -7.017  20.622  71.499  1.00  0.00     0.000 HD 
HETATM   28  H1  UNL     1      -5.759  20.187  70.344  1.00  0.00     0.000 HD 
HETATM   29  C   UNL     1      -9.753  19.427  68.565  1.00  0.00    -0.421 A  
HETATM   30  N   UNL     1      -7.435  19.486  68.493  1.00  0.00    -0.322 NA 
HETATM   31  N   UNL     1      -6.748  20.284  70.574  1.00  0.00    -0.258 NA 
HETATM   32  S   UNL     1      -9.357  20.133  70.071  1.00  0.00     1.248 SA 
HETATM   33  C   UNL     1      -7.699  19.972  69.684  1.00  0.00     0.361 A  
ENDBRANCH  25  26
BRANCH  25  34
HETATM   34  N   UNL     1      -9.828  17.788  66.406  1.00  0.00    -0.331 NA 
HETATM   35  H   UNL     1     -10.542  17.947  67.117  1.00  0.00     0.000 HD 
BRANCH  34  36
HETATM   36  O   UNL     1     -10.238  17.172  65.216  1.00  0.00    -0.591 OA 
HETATM   37  C   UNL     1     -10.665  15.835  65.233  1.00  0.00    -0.428 C  
ENDBRANCH  34  36
ENDBRANCH  25  34
ENDBRANCH  24  25
ENDBRANCH   7  21
TORSDOF 8
ENDMDL
MODEL      214
REMARK 921   NORMALIZED FREE ENERGY PREDICTED BY IDOCK:   -4.58 KCAL/MOL
REMARK 922        TOTAL FREE ENERGY PREDICTED BY IDOCK:   -7.88 KCAL/MOL
REMARK 923 INTER-LIGAND FREE ENERGY PREDICTED BY IDOCK:   -6.84 KCAL/MOL
REMARK 924 INTRA-LIGAND FREE ENERGY PREDICTED BY IDOCK:   -1.03 KCAL/MOL
REMARK 927      BINDING AFFINITY PREDICTED BY RF-SCORE:    0.00 PKD
ROOT
HETATM    1  C   UNL     1     -10.428  11.082  66.551  1.00  0.00    -0.257 C  
HETATM    2  S   UNL     1     -11.461  12.390  65.950  1.00  0.00    -0.390 SA 
HETATM    3  C   UNL     1     -10.491  13.879  66.297  1.00  0.00    -0.287 C  
HETATM    4  C   UNL     1      -9.078  13.722  66.807  1.00  0.00    -0.235 C  
HETATM    5  O   UNL     1      -8.321   9.759  68.609  1.00  0.00    -0.107 OA 
HETATM    6  CA  UNL     1      -8.532  12.563  67.252  1.00  0.00    -0.185 C  
HETATM    7  CA  UNL     1     -10.709   9.973  67.675  1.00  0.00    -0.284 C  
HETATM    8  N   UNL     1      -9.280  11.434  67.331  1.00  0.00    -0.162 N  
HETATM    9  C   UNL     1      -7.107  12.559  67.736  1.00  0.00    -0.126 C  
HETATM   10  OXT UNL     1      -6.262  13.314  67.276  1.00  0.00    -0.309 OA 
HETATM   11  C   UNL     1      -9.188  10.226  67.932  1.00  0.00    -0.138 C  
HETATM   12  O   UNL     1      -6.770  11.684  68.696  1.00  0.00    -0.064 OA 
ENDROOT
BRANCH   4  13
HETATM   13  C   UNL     1      -8.386  15.088  66.925  1.00  0.00    -0.212 C  
BRANCH  13  14
HETATM   14  S   UNL     1      -8.362  15.575  68.674  1.00  0.00    -0.186 SA 
BRANCH  14  15
HETATM   15  C   UNL     1     -10.045  15.656  69.023  1.00  0.00    -0.227 A  
HETATM   16  N   UNL     1     -10.758  14.798  69.715  1.00  0.00    -0.198 NA 
HETATM   17  C   UNL     1     -10.565  17.757  67.712  1.00  0.00    -0.386 C  
HETATM   18  N   UNL     1     -12.066  15.212  69.583  1.00  0.00    -0.316 NA 
HETATM   19  N   UNL     1     -10.879  16.599  68.503  1.00  0.00    -0.348 NA 
HETATM   20  N   UNL     1     -12.149  16.310  68.839  1.00  0.00     0.046 NA 
ENDBRANCH  14  15
ENDBRANCH  13  14
ENDBRANCH   4  13
BRANCH   7  21
HETATM   21  N   UNL     1     -11.465   9.961  69.010  1.00  0.00    -0.475 N  
HETATM   22  H   UNL     1     -12.195  10.672  69.045  1.00  0.00     0.000 HD 
HETATM   23  O   UNL     1     -12.221   9.466  71.084  1.00  0.00    -0.306 OA 
HETATM   24  C   UNL     1     -11.399   9.209  70.203  1.00  0.00    -0.142 C  
BRANCH  24  25
HETATM   25  C   UNL     1     -10.260   8.251  70.548  1.00  0.00    -0.198 C  
BRANCH  25  26
HETATM   26  C   UNL     1     -10.218   6.864  70.027  1.00  0.00    -0.196 A  
HETATM   27  H2  UNL     1      -9.539   2.670  70.355  1.00  0.00     0.000 HD 
HETATM   28  H1  UNL     1     -10.253   3.355  71.814  1.00  0.00     0.000 HD 
HETATM   29  C   UNL     1      -9.740   6.536  68.762  1.00  0.00    -0.129 A  
HETATM   30  N   UNL     1     -10.432   5.748  70.832  1.00  0.00    -0.239 NA 
HETATM   31  N   UNL     1      -9.925   3.472  70.855  1.00  0.00    -0.055 NA 
HETATM   32  S   UNL     1      -9.444   4.856  68.634  1.00  0.00    -0.154 SA 
HETATM   33  C   UNL     1      -9.993   4.660  70.241  1.00  0.00    -0.239 A  
ENDBRANCH  25  26
BRANCH  25  34
HETATM   34  N   UNL     1      -9.350   8.430  71.467  1.00  0.00    -0.179 NA 
HETATM   35  H   UNL     1      -9.651   8.853  72.345  1.00  0.00     0.000 HD 
BRANCH  34  36
HETATM   36  O   UNL     1      -7.995   8.091  71.353  1.00  0.00    -0.090 OA 
HETATM   37  C   UNL     1      -7.361   7.391  72.392  1.00  0.00    -0.072 C  
ENDBRANCH  34  36
ENDBRANCH  25  34
ENDBRANCH  24  25
ENDBRANCH   7  21
TORSDOF 8
ENDMDL
MODEL      215
REMARK 921   NORMALIZED FREE ENERGY PREDICTED BY IDOCK:   -4.58 KCAL/MOL
REMARK 922        TOTAL FREE ENERGY PREDICTED BY IDOCK:   -7.87 KCAL/MOL
REMARK 923 INTER-LIGAND FREE ENERGY PREDICTED BY IDOCK:   -5.87 KCAL/MOL
REMARK 924 INTRA-LIGAND FREE ENERGY PREDICTED BY IDOCK:   -2.00 KCAL/MOL
REMARK 927      BINDING AFFINITY PREDICTED BY RF-SCORE:    0.00 PKD
ROOT
HETATM    1  C   UNL     1     -10.831   8.483  71.548  1.00  0.00    -0.263 C  
HETATM    2  S   UNL     1     -11.906   7.082  71.701  1.00  0.00    -0.332 SA 
HETATM    3  C   UNL     1     -10.816   5.680  71.347  1.00  0.00    -0.222 C  
HETATM    4  C   UNL     1      -9.336   5.935  71.185  1.00  0.00    -0.170 C  
HETATM    5  O   UNL     1      -8.400  10.145  70.225  1.00  0.00    -0.077 OA 
HETATM    6  CA  UNL     1      -8.762   7.157  71.054  1.00  0.00    -0.141 C  
HETATM    7  CA  UNL     1     -10.919   9.754  70.575  1.00  0.00    -0.321 C  
HETATM    8  N   UNL     1      -9.529   8.275  70.990  1.00  0.00    -0.155 N  
HETATM    9  C   UNL     1      -7.270   7.257  70.898  1.00  0.00    -0.069 C  
HETATM   10  OXT UNL     1      -6.506   6.448  71.407  1.00  0.00    -0.047 OA 
HETATM   11  C   UNL     1      -9.368   9.565  70.618  1.00  0.00    -0.199 C  
HETATM   12  O   UNL     1      -6.777   8.279  70.181  1.00  0.00    -0.036 OA 
ENDROOT
BRANCH   4  13
HETATM   13  C   UNL     1      -8.571   4.615  71.011  1.00  0.00    -0.110 C  
BRANCH  13  14
HETATM   14  S   UNL     1      -9.040   3.882  69.418  1.00  0.00    -0.147 SA 
BRANCH  14  15
HETATM   15  C   UNL     1      -7.912   4.633  68.357  1.00  0.00    -0.080 A  
HETATM   16  N   UNL     1      -6.603   4.558  68.403  1.00  0.00    -0.045 NA 
HETATM   17  C   UNL     1      -9.576   5.903  66.934  1.00  0.00    -0.142 C  
HETATM   18  N   UNL     1      -6.148   5.448  67.452  1.00  0.00    -0.029 NA 
HETATM   19  N   UNL     1      -8.267   5.517  67.383  1.00  0.00    -0.101 NA 
HETATM   20  N   UNL     1      -7.159   6.042  66.828  1.00  0.00    -0.068 NA 
ENDBRANCH  14  15
ENDBRANCH  13  14
ENDBRANCH   4  13
BRANCH   7  21
HETATM   21  N   UNL     1     -11.375   9.972  69.125  1.00  0.00    -0.428 N  
HETATM   22  H   UNL     1     -11.813   9.139  68.732  1.00  0.00     0.000 HD 
HETATM   23  O   UNL     1     -11.850  10.856  67.098  1.00  0.00    -0.310 OA 
HETATM   24  C   UNL     1     -11.336  11.039  68.203  1.00  0.00    -0.307 C  
BRANCH  24  25
HETATM   25  C   UNL     1     -10.529  12.319  68.410  1.00  0.00    -0.233 C  
BRANCH  25  26
HETATM   26  C   UNL     1      -9.150  12.470  67.885  1.00  0.00    -0.199 A  
HETATM   27  H2  UNL     1      -5.376  11.003  66.560  1.00  0.00     0.000 HD 
HETATM   28  H1  UNL     1      -6.714   9.970  66.063  1.00  0.00     0.000 HD 
HETATM   29  C   UNL     1      -8.274  13.464  68.311  1.00  0.00    -0.160 A  
HETATM   30  N   UNL     1      -8.532  11.503  67.098  1.00  0.00    -0.152 NA 
HETATM   31  N   UNL     1      -6.379  10.818  66.520  1.00  0.00    -0.104 NA 
HETATM   32  S   UNL     1      -6.670  13.113  67.834  1.00  0.00    -0.156 SA 
HETATM   33  C   UNL     1      -7.233  11.692  67.067  1.00  0.00    -0.143 A  
ENDBRANCH  25  26
BRANCH  25  34
HETATM   34  N   UNL     1     -10.828  13.302  69.215  1.00  0.00    -0.440 NA 
HETATM   35  H   UNL     1     -10.244  13.419  70.044  1.00  0.00     0.000 HD 
BRANCH  34  36
HETATM   36  O   UNL     1     -11.882  14.210  69.043  1.00  0.00    -0.308 OA 
HETATM   37  C   UNL     1     -11.985  14.939  67.847  1.00  0.00    -0.176 C  
ENDBRANCH  34  36
ENDBRANCH  25  34
ENDBRANCH  24  25
ENDBRANCH   7  21
TORSDOF 8
ENDMDL
MODEL      216
REMARK 921   NORMALIZED FREE ENERGY PREDICTED BY IDOCK:   -4.55 KCAL/MOL
REMARK 922        TOTAL FREE ENERGY PREDICTED BY IDOCK:   -7.84 KCAL/MOL
REMARK 923 INTER-LIGAND FREE ENERGY PREDICTED BY IDOCK:   -6.64 KCAL/MOL
REMARK 924 INTRA-LIGAND FREE ENERGY PREDICTED BY IDOCK:   -1.20 KCAL/MOL
REMARK 927      BINDING AFFINITY PREDICTED BY RF-SCORE:    0.00 PKD
ROOT
HETATM    1  C   UNL     1     -11.354   9.487  70.047  1.00  0.00    -0.166 C  
HETATM    2  S   UNL     1      -9.642   9.945  70.022  1.00  0.00    -0.157 SA 
HETATM    3  C   UNL     1      -8.860   8.689  71.066  1.00  0.00    -0.191 C  
HETATM    4  C   UNL     1      -9.694   7.527  71.551  1.00  0.00    -0.184 C  
HETATM    5  O   UNL     1     -14.034   8.348  71.439  1.00  0.00    -0.343 OA 
HETATM    6  CA  UNL     1     -11.045   7.446  71.469  1.00  0.00    -0.239 C  
HETATM    7  CA  UNL     1     -12.640  10.312  70.533  1.00  0.00    -0.258 C  
HETATM    8  N   UNL     1     -11.770   8.485  70.981  1.00  0.00    -0.283 N  
HETATM    9  C   UNL     1     -11.744   6.223  71.998  1.00  0.00    -0.322 C  
HETATM   10  OXT UNL     1     -11.219   5.118  71.986  1.00  0.00    -0.099 OA 
HETATM   11  C   UNL     1     -13.064   8.876  70.983  1.00  0.00     0.022 C  
HETATM   12  O   UNL     1     -12.985   6.368  72.487  1.00  0.00     0.141 OA 
ENDROOT
BRANCH   4  13
HETATM   13  C   UNL     1      -8.828   6.515  72.315  1.00  0.00    -0.134 C  
BRANCH  13  14
HETATM   14  S   UNL     1      -7.563   5.867  71.186  1.00  0.00    -0.102 SA 
BRANCH  14  15
HETATM   15  C   UNL     1      -7.903   4.180  71.234  1.00  0.00    -0.071 A  
HETATM   16  N   UNL     1      -7.409   3.291  72.064  1.00  0.00    -0.050 NA 
HETATM   17  C   UNL     1      -9.434   4.083  69.222  1.00  0.00    -0.190 C  
HETATM   18  N   UNL     1      -7.857   2.070  71.606  1.00  0.00    -0.040 NA 
HETATM   19  N   UNL     1      -8.664   3.538  70.305  1.00  0.00    -0.062 NA 
HETATM   20  N   UNL     1      -8.620   2.211  70.528  1.00  0.00    -0.050 NA 
ENDBRANCH  14  15
ENDBRANCH  13  14
ENDBRANCH   4  13
BRANCH   7  21
HETATM   21  N   UNL     1     -12.913  11.311  71.666  1.00  0.00    -0.458 N  
HETATM   22  H   UNL     1     -13.127  10.844  72.546  1.00  0.00     0.000 HD 
HETATM   23  O   UNL     1     -13.171  13.187  72.904  1.00  0.00    -0.386 OA 
HETATM   24  C   UNL     1     -12.941  12.717  71.788  1.00  0.00    -0.313 C  
BRANCH  24  25
HETATM   25  C   UNL     1     -12.909  13.679  70.603  1.00  0.00    -0.154 C  
BRANCH  25  26
HETATM   26  C   UNL     1     -11.995  13.477  69.453  1.00  0.00    -0.330 A  
HETATM   27  H2  UNL     1     -10.529  11.372  66.051  1.00  0.00     0.000 HD 
HETATM   28  H1  UNL     1     -12.286  11.309  66.179  1.00  0.00     0.000 HD 
HETATM   29  C   UNL     1     -10.627  13.727  69.510  1.00  0.00     0.194 A  
HETATM   30  N   UNL     1     -12.376  12.806  68.294  1.00  0.00     0.035 NA 
HETATM   31  N   UNL     1     -11.389  11.647  66.527  1.00  0.00    -0.392 NA 
HETATM   32  S   UNL     1      -9.817  13.013  68.184  1.00  0.00    -0.228 SA 
HETATM   33  C   UNL     1     -11.321  12.447  67.600  1.00  0.00    -0.312 A  
ENDBRANCH  25  26
BRANCH  25  34
HETATM   34  N   UNL     1     -13.475  14.855  70.544  1.00  0.00    -0.622 NA 
HETATM   35  H   UNL     1     -14.467  14.883  70.305  1.00  0.00     0.000 HD 
BRANCH  34  36
HETATM   36  O   UNL     1     -12.839  16.081  70.780  1.00  0.00    -0.388 OA 
HETATM   37  C   UNL     1     -11.966  16.216  71.870  1.00  0.00    -0.507 C  
ENDBRANCH  34  36
ENDBRANCH  25  34
ENDBRANCH  24  25
ENDBRANCH   7  21
TORSDOF 8
ENDMDL
MODEL      217
REMARK 921   NORMALIZED FREE ENERGY PREDICTED BY IDOCK:   -4.55 KCAL/MOL
REMARK 922        TOTAL FREE ENERGY PREDICTED BY IDOCK:   -7.83 KCAL/MOL
REMARK 923 INTER-LIGAND FREE ENERGY PREDICTED BY IDOCK:   -7.18 KCAL/MOL
REMARK 924 INTRA-LIGAND FREE ENERGY PREDICTED BY IDOCK:   -0.65 KCAL/MOL
REMARK 927      BINDING AFFINITY PREDICTED BY RF-SCORE:    0.00 PKD
ROOT
HETATM    1  C   UNL     1      -9.111  11.830  67.725  1.00  0.00    -0.178 C  
HETATM    2  S   UNL     1     -10.452  10.701  67.467  1.00  0.00    -0.248 SA 
HETATM    3  C   UNL     1      -9.710   9.400  66.449  1.00  0.00    -0.250 C  
HETATM    4  C   UNL     1      -8.220   9.436  66.198  1.00  0.00    -0.111 C  
HETATM    5  O   UNL     1      -6.456  13.437  66.834  1.00  0.00     0.087 OA 
HETATM    6  CA  UNL     1      -7.406  10.484  66.475  1.00  0.00    -0.125 C  
HETATM    7  CA  UNL     1      -8.977  13.383  67.346  1.00  0.00    -0.215 C  
HETATM    8  N   UNL     1      -7.916  11.645  66.958  1.00  0.00    -0.159 N  
HETATM    9  C   UNL     1      -5.938  10.377  66.167  1.00  0.00    -0.090 C  
HETATM   10  OXT UNL     1      -5.339   9.311  66.212  1.00  0.00    -0.039 OA 
HETATM   11  C   UNL     1      -7.503  12.925  67.099  1.00  0.00    -0.006 C  
HETATM   12  O   UNL     1      -5.277  11.500  65.844  1.00  0.00    -0.308 OA 
ENDROOT
BRANCH   4  13
HETATM   13  C   UNL     1      -7.768   8.192  65.420  1.00  0.00    -0.101 C  
BRANCH  13  14
HETATM   14  S   UNL     1      -7.731   6.779  66.560  1.00  0.00    -0.104 SA 
BRANCH  14  15
HETATM   15  C   UNL     1      -8.977   5.787  65.906  1.00  0.00    -0.151 A  
HETATM   16  N   UNL     1     -10.223   5.703  66.310  1.00  0.00    -0.147 NA 
HETATM   17  C   UNL     1      -7.584   4.594  64.163  1.00  0.00    -0.072 C  
HETATM   18  N   UNL     1     -10.778   4.670  65.583  1.00  0.00    -0.250 NA 
HETATM   19  N   UNL     1      -8.767   4.858  64.932  1.00  0.00    -0.148 NA 
HETATM   20  N   UNL     1      -9.893   4.145  64.743  1.00  0.00    -0.187 NA 
ENDBRANCH  14  15
ENDBRANCH  13  14
ENDBRANCH   4  13
BRANCH   7  21
HETATM   21  N   UNL     1      -9.454  14.250  66.173  1.00  0.00    -0.460 N  
HETATM   22  H   UNL     1      -9.169  13.867  65.272  1.00  0.00     0.000 HD 
HETATM   23  O   UNL     1     -10.421  15.842  64.890  1.00  0.00    -0.542 OA 
HETATM   24  C   UNL     1     -10.190  15.446  66.034  1.00  0.00    -0.324 C  
BRANCH  24  25
HETATM   25  C   UNL     1     -10.536  16.377  67.194  1.00  0.00    -0.297 C  
BRANCH  25  26
HETATM   26  C   UNL     1     -10.851  15.860  68.547  1.00  0.00    -0.298 A  
HETATM   27  H2  UNL     1     -13.304  13.879  71.414  1.00  0.00     0.000 HD 
HETATM   28  H1  UNL     1     -13.384  13.128  69.821  1.00  0.00     0.000 HD 
HETATM   29  C   UNL     1     -10.571  16.558  69.718  1.00  0.00    -0.265 A  
HETATM   30  N   UNL     1     -11.657  14.745  68.761  1.00  0.00    -0.305 NA 
HETATM   31  N   UNL     1     -12.992  13.835  70.443  1.00  0.00    -0.093 NA 
HETATM   32  S   UNL     1     -11.417  15.894  71.047  1.00  0.00    -0.419 SA 
HETATM   33  C   UNL     1     -12.074  14.707  70.005  1.00  0.00    -0.329 A  
ENDBRANCH  25  26
BRANCH  25  34
HETATM   34  N   UNL     1     -10.808  17.651  67.110  1.00  0.00    -0.186 NA 
HETATM   35  H   UNL     1     -11.222  18.094  67.931  1.00  0.00     0.000 HD 
BRANCH  34  36
HETATM   36  O   UNL     1     -10.582  18.464  65.991  1.00  0.00    -0.427 OA 
HETATM   37  C   UNL     1      -9.832  19.643  66.125  1.00  0.00    -0.436 C  
ENDBRANCH  34  36
ENDBRANCH  25  34
ENDBRANCH  24  25
ENDBRANCH   7  21
TORSDOF 8
ENDMDL
MODEL      218
REMARK 921   NORMALIZED FREE ENERGY PREDICTED BY IDOCK:   -4.53 KCAL/MOL
REMARK 922        TOTAL FREE ENERGY PREDICTED BY IDOCK:   -7.81 KCAL/MOL
REMARK 923 INTER-LIGAND FREE ENERGY PREDICTED BY IDOCK:   -6.88 KCAL/MOL
REMARK 924 INTRA-LIGAND FREE ENERGY PREDICTED BY IDOCK:   -0.93 KCAL/MOL
REMARK 927      BINDING AFFINITY PREDICTED BY RF-SCORE:    0.00 PKD
ROOT
HETATM    1  C   UNL     1     -10.868   9.880  67.256  1.00  0.00    -0.199 C  
HETATM    2  S   UNL     1     -10.042   9.390  65.767  1.00  0.00     0.081 SA 
HETATM    3  C   UNL     1      -9.143   7.899  66.261  1.00  0.00    -0.179 C  
HETATM    4  C   UNL     1      -9.386   7.328  67.639  1.00  0.00    -0.139 C  
HETATM    5  O   UNL     1     -11.102  10.271  70.453  1.00  0.00    -0.292 OA 
HETATM    6  CA  UNL     1     -10.051   7.956  68.639  1.00  0.00    -0.197 C  
HETATM    7  CA  UNL     1     -10.772  11.244  68.093  1.00  0.00    -0.204 C  
HETATM    8  N   UNL     1     -10.503   9.226  68.476  1.00  0.00    -0.210 N  
HETATM    9  C   UNL     1     -10.214   7.263  69.964  1.00  0.00    -0.201 C  
HETATM   10  OXT UNL     1     -10.298   6.046  70.056  1.00  0.00    -0.195 OA 
HETATM   11  C   UNL     1     -10.945  10.228  69.269  1.00  0.00    -0.241 C  
HETATM   12  O   UNL     1     -10.278   8.021  71.070  1.00  0.00    -0.190 OA 
ENDROOT
BRANCH   4  13
HETATM   13  C   UNL     1      -8.627   6.006  67.823  1.00  0.00    -0.106 C  
BRANCH  13  14
HETATM   14  S   UNL     1      -9.377   4.753  66.743  1.00  0.00    -0.156 SA 
BRANCH  14  15
HETATM   15  C   UNL     1      -9.156   3.327  67.681  1.00  0.00    -0.174 A  
HETATM   16  N   UNL     1      -9.768   3.003  68.796  1.00  0.00     0.010 NA 
HETATM   17  C   UNL     1      -7.304   2.294  66.300  1.00  0.00    -0.065 C  
HETATM   18  N   UNL     1      -9.144   1.857  69.241  1.00  0.00    -0.095 NA 
HETATM   19  N   UNL     1      -8.200   2.392  67.418  1.00  0.00    -0.070 NA 
HETATM   20  N   UNL     1      -8.181   1.480  68.408  1.00  0.00    -0.055 NA 
ENDBRANCH  14  15
ENDBRANCH  13  14
ENDBRANCH   4  13
BRANCH   7  21
HETATM   21  N   UNL     1      -9.641  12.229  68.422  1.00  0.00    -0.286 N  
HETATM   22  H   UNL     1      -9.112  11.944  69.245  1.00  0.00     0.000 HD 
HETATM   23  O   UNL     1      -8.167  13.944  68.395  1.00  0.00    -0.146 OA 
HETATM   24  C   UNL     1      -9.153  13.430  67.865  1.00  0.00    -0.208 C  
BRANCH  24  25
HETATM   25  C   UNL     1      -9.883  14.233  66.790  1.00  0.00    -0.270 C  
BRANCH  25  26
HETATM   26  C   UNL     1      -9.993  15.710  66.854  1.00  0.00    -0.248 A  
HETATM   27  H2  UNL     1      -8.638  19.685  66.136  1.00  0.00     0.000 HD 
HETATM   28  H1  UNL     1      -8.261  18.593  64.805  1.00  0.00     0.000 HD 
HETATM   29  C   UNL     1     -10.462  16.395  67.971  1.00  0.00    -0.303 A  
HETATM   30  N   UNL     1      -9.427  16.552  65.900  1.00  0.00    -0.488 NA 
HETATM   31  N   UNL     1      -8.697  18.759  65.712  1.00  0.00    -0.333 NA 
HETATM   32  S   UNL     1     -10.078  18.059  67.877  1.00  0.00    -0.374 SA 
HETATM   33  C   UNL     1      -9.347  17.780  66.356  1.00  0.00    -0.249 A  
ENDBRANCH  25  26
BRANCH  25  34
HETATM   34  N   UNL     1     -10.655  13.750  65.854  1.00  0.00    -0.284 NA 
HETATM   35  H   UNL     1     -11.662  13.791  66.013  1.00  0.00     0.000 HD 
BRANCH  34  36
HETATM   36  O   UNL     1     -10.221  13.182  64.648  1.00  0.00    -0.349 OA 
HETATM   37  C   UNL     1     -11.163  12.692  63.730  1.00  0.00    -0.463 C  
ENDBRANCH  34  36
ENDBRANCH  25  34
ENDBRANCH  24  25
ENDBRANCH   7  21
TORSDOF 8
ENDMDL
MODEL      219
REMARK 921   NORMALIZED FREE ENERGY PREDICTED BY IDOCK:   -4.51 KCAL/MOL
REMARK 922        TOTAL FREE ENERGY PREDICTED BY IDOCK:   -7.78 KCAL/MOL
REMARK 923 INTER-LIGAND FREE ENERGY PREDICTED BY IDOCK:   -6.08 KCAL/MOL
REMARK 924 INTRA-LIGAND FREE ENERGY PREDICTED BY IDOCK:   -1.70 KCAL/MOL
REMARK 927      BINDING AFFINITY PREDICTED BY RF-SCORE:    0.00 PKD
ROOT
HETATM    1  C   UNL     1     -10.697   8.821  68.407  1.00  0.00    -0.062 C  
HETATM    2  S   UNL     1     -10.349   7.958  66.898  1.00  0.00    -0.293 SA 
HETATM    3  C   UNL     1      -9.644   6.390  67.468  1.00  0.00    -0.120 C  
HETATM    4  C   UNL     1      -9.657   6.085  68.948  1.00  0.00    -0.147 C  
HETATM    5  O   UNL     1     -10.096   9.696  71.456  1.00  0.00    -0.101 OA 
HETATM    6  CA  UNL     1      -9.941   6.978  69.928  1.00  0.00    -0.177 C  
HETATM    7  CA  UNL     1     -10.160  10.234  68.940  1.00  0.00    -0.204 C  
HETATM    8  N   UNL     1     -10.180   8.279  69.627  1.00  0.00    -0.204 N  
HETATM    9  C   UNL     1      -9.911   6.529  71.364  1.00  0.00    -0.183 C  
HETATM   10  OXT UNL     1     -10.191   5.385  71.694  1.00  0.00    -0.195 OA 
HETATM   11  C   UNL     1     -10.233   9.455  70.293  1.00  0.00    -0.247 C  
HETATM   12  O   UNL     1      -9.574   7.430  72.299  1.00  0.00    -0.147 OA 
ENDROOT
BRANCH   4  13
HETATM   13  C   UNL     1      -9.129   4.668  69.216  1.00  0.00    -0.109 C  
BRANCH  13  14
HETATM   14  S   UNL     1      -7.378   4.603  68.741  1.00  0.00    -0.061 SA 
BRANCH  14  15
HETATM   15  C   UNL     1      -6.644   5.455  70.045  1.00  0.00    -0.046 A  
HETATM   16  N   UNL     1      -6.420   5.012  71.260  1.00  0.00    -0.029 NA 
HETATM   17  C   UNL     1      -6.339   7.676  68.873  1.00  0.00    -0.036 C  
HETATM   18  N   UNL     1      -5.964   6.101  71.972  1.00  0.00    -0.036 NA 
HETATM   19  N   UNL     1      -6.307   6.773  69.989  1.00  0.00    -0.038 NA 
HETATM   20  N   UNL     1      -5.897   7.183  71.204  1.00  0.00    -0.035 NA 
ENDBRANCH  14  15
ENDBRANCH  13  14
ENDBRANCH   4  13
BRANCH   7  21
HETATM   21  N   UNL     1      -8.824  10.983  68.845  1.00  0.00    -0.290 N  
HETATM   22  H   UNL     1      -8.044  10.422  69.187  1.00  0.00     0.000 HD 
HETATM   23  O   UNL     1      -7.202  12.509  68.444  1.00  0.00    -0.096 OA 
HETATM   24  C   UNL     1      -8.408  12.257  68.402  1.00  0.00    -0.144 C  
BRANCH  24  25
HETATM   25  C   UNL     1      -9.364  13.402  68.074  1.00  0.00    -0.217 C  
BRANCH  25  26
HETATM   26  C   UNL     1     -10.101  13.464  66.788  1.00  0.00    -0.260 A  
HETATM   27  H2  UNL     1     -13.614  13.797  64.401  1.00  0.00     0.000 HD 
HETATM   28  H1  UNL     1     -13.676  14.814  65.839  1.00  0.00     0.000 HD 
HETATM   29  C   UNL     1      -9.800  12.658  65.694  1.00  0.00    -0.202 A  
HETATM   30  N   UNL     1     -11.296  14.160  66.635  1.00  0.00    -0.332 NA 
HETATM   31  N   UNL     1     -13.167  14.162  65.243  1.00  0.00    -0.670 NA 
HETATM   32  S   UNL     1     -11.068  12.680  64.548  1.00  0.00    -0.352 SA 
HETATM   33  C   UNL     1     -11.921  13.774  65.547  1.00  0.00    -0.384 A  
ENDBRANCH  25  26
BRANCH  25  34
HETATM   34  N   UNL     1      -9.485  14.524  68.731  1.00  0.00    -0.255 NA 
HETATM   35  H   UNL     1     -10.093  14.520  69.551  1.00  0.00     0.000 HD 
BRANCH  34  36
HETATM   36  O   UNL     1      -8.852  15.732  68.410  1.00  0.00    -0.176 OA 
HETATM   37  C   UNL     1      -7.784  16.191  69.197  1.00  0.00    -0.230 C  
ENDBRANCH  34  36
ENDBRANCH  25  34
ENDBRANCH  24  25
ENDBRANCH   7  21
TORSDOF 8
ENDMDL
MODEL      220
REMARK 921   NORMALIZED FREE ENERGY PREDICTED BY IDOCK:   -4.50 KCAL/MOL
REMARK 922        TOTAL FREE ENERGY PREDICTED BY IDOCK:   -7.77 KCAL/MOL
REMARK 923 INTER-LIGAND FREE ENERGY PREDICTED BY IDOCK:   -7.12 KCAL/MOL
REMARK 924 INTRA-LIGAND FREE ENERGY PREDICTED BY IDOCK:   -0.64 KCAL/MOL
REMARK 927      BINDING AFFINITY PREDICTED BY RF-SCORE:    0.00 PKD
ROOT
HETATM    1  C   UNL     1     -10.019  11.945  66.990  1.00  0.00    -0.202 C  
HETATM    2  S   UNL     1      -8.564  12.381  67.903  1.00  0.00    -0.180 SA 
HETATM    3  C   UNL     1      -8.183  14.048  67.308  1.00  0.00    -0.171 C  
HETATM    4  C   UNL     1      -9.168  14.733  66.390  1.00  0.00    -0.301 C  
HETATM    5  O   UNL     1     -11.896  11.910  64.363  1.00  0.00    -0.317 OA 
HETATM    6  CA  UNL     1     -10.215  14.129  65.776  1.00  0.00    -0.332 C  
HETATM    7  CA  UNL     1     -10.283  10.726  65.982  1.00  0.00    -0.251 C  
HETATM    8  N   UNL     1     -10.413  12.793  65.905  1.00  0.00    -0.271 N  
HETATM    9  C   UNL     1     -11.113  14.941  64.883  1.00  0.00    -0.414 C  
HETATM   10  OXT UNL     1     -11.324  16.130  65.080  1.00  0.00    -0.233 OA 
HETATM   11  C   UNL     1     -11.134  11.835  65.280  1.00  0.00    -0.276 C  
HETATM   12  O   UNL     1     -11.701  14.322  63.848  1.00  0.00    -0.229 OA 
ENDROOT
BRANCH   4  13
HETATM   13  C   UNL     1      -8.726  16.174  66.095  1.00  0.00    -0.323 C  
BRANCH  13  14
HETATM   14  S   UNL     1      -7.554  16.694  67.380  1.00  0.00    -0.178 SA 
BRANCH  14  15
HETATM   15  C   UNL     1      -7.641  18.408  67.240  1.00  0.00    -0.222 A  
HETATM   16  N   UNL     1      -8.412  19.225  67.918  1.00  0.00    -0.299 NA 
HETATM   17  C   UNL     1      -5.994  18.679  65.339  1.00  0.00    -0.245 C  
HETATM   18  N   UNL     1      -8.233  20.465  67.343  1.00  0.00    -0.337 NA 
HETATM   19  N   UNL     1      -6.973  19.121  66.291  1.00  0.00    -0.217 NA 
HETATM   20  N   UNL     1      -7.360  20.409  66.344  1.00  0.00    -0.249 NA 
ENDBRANCH  14  15
ENDBRANCH  13  14
ENDBRANCH   4  13
BRANCH   7  21
HETATM   21  N   UNL     1      -9.433   9.988  64.939  1.00  0.00    -0.273 N  
HETATM   22  H   UNL     1      -9.371  10.502  64.061  1.00  0.00     0.000 HD 
HETATM   23  O   UNL     1      -8.099   8.512  63.862  1.00  0.00    -0.154 OA 
HETATM   24  C   UNL     1      -8.717   8.773  64.896  1.00  0.00    -0.125 C  
BRANCH  24  25
HETATM   25  C   UNL     1      -8.824   7.678  65.956  1.00  0.00    -0.155 C  
BRANCH  25  26
HETATM   26  C   UNL     1      -8.028   6.430  65.878  1.00  0.00    -0.117 A  
HETATM   27  H2  UNL     1      -7.501   2.206  66.065  1.00  0.00     0.000 HD 
HETATM   28  H1  UNL     1      -9.040   2.663  65.338  1.00  0.00     0.000 HD 
HETATM   29  C   UNL     1      -6.743   6.309  66.399  1.00  0.00    -0.056 A  
HETATM   30  N   UNL     1      -8.572   5.209  65.490  1.00  0.00    -0.137 NA 
HETATM   31  N   UNL     1      -8.141   2.931  65.738  1.00  0.00    -0.086 NA 
HETATM   32  S   UNL     1      -6.280   4.667  66.515  1.00  0.00    -0.033 SA 
HETATM   33  C   UNL     1      -7.786   4.218  65.843  1.00  0.00    -0.094 A  
ENDBRANCH  25  26
BRANCH  25  34
HETATM   34  N   UNL     1      -9.735   7.590  66.888  1.00  0.00    -0.194 NA 
HETATM   35  H   UNL     1     -10.507   8.256  66.850  1.00  0.00     0.000 HD 
BRANCH  34  36
HETATM   36  O   UNL     1      -9.744   6.661  67.937  1.00  0.00    -0.123 OA 
HETATM   37  C   UNL     1     -10.925   6.442  68.664  1.00  0.00    -0.330 C  
ENDBRANCH  34  36
ENDBRANCH  25  34
ENDBRANCH  24  25
ENDBRANCH   7  21
TORSDOF 8
ENDMDL
MODEL      221
REMARK 921   NORMALIZED FREE ENERGY PREDICTED BY IDOCK:   -4.48 KCAL/MOL
REMARK 922        TOTAL FREE ENERGY PREDICTED BY IDOCK:   -7.73 KCAL/MOL
REMARK 923 INTER-LIGAND FREE ENERGY PREDICTED BY IDOCK:   -5.95 KCAL/MOL
REMARK 924 INTRA-LIGAND FREE ENERGY PREDICTED BY IDOCK:   -1.79 KCAL/MOL
REMARK 927      BINDING AFFINITY PREDICTED BY RF-SCORE:    0.00 PKD
ROOT
HETATM    1  C   UNL     1     -11.158   9.307  71.344  1.00  0.00    -0.367 C  
HETATM    2  S   UNL     1     -12.374   8.217  72.034  1.00  0.00    -0.366 SA 
HETATM    3  C   UNL     1     -11.393   7.099  73.066  1.00  0.00    -0.168 C  
HETATM    4  C   UNL     1      -9.923   7.391  73.257  1.00  0.00    -0.341 C  
HETATM    5  O   UNL     1      -8.257  10.015  70.117  1.00  0.00    -0.176 OA 
HETATM    6  CA  UNL     1      -9.205   8.291  72.542  1.00  0.00    -0.269 C  
HETATM    7  CA  UNL     1     -10.778   9.599  69.814  1.00  0.00    -0.245 C  
HETATM    8  N   UNL     1      -9.777   8.971  71.516  1.00  0.00    -0.306 N  
HETATM    9  C   UNL     1      -7.742   8.474  72.843  1.00  0.00     0.009 C  
HETATM   10  OXT UNL     1      -7.285   8.315  73.967  1.00  0.00    -0.147 OA 
HETATM   11  C   UNL     1      -9.359   9.706  70.461  1.00  0.00    -0.166 C  
HETATM   12  O   UNL     1      -6.930   8.830  71.837  1.00  0.00    -0.160 OA 
ENDROOT
BRANCH   4  13
HETATM   13  C   UNL     1      -9.297   6.405  74.255  1.00  0.00    -0.189 C  
BRANCH  13  14
HETATM   14  S   UNL     1      -9.154   4.783  73.452  1.00  0.00    -0.109 SA 
BRANCH  14  15
HETATM   15  C   UNL     1      -7.687   4.972  72.572  1.00  0.00    -0.097 A  
HETATM   16  N   UNL     1      -6.464   4.960  73.050  1.00  0.00    -0.049 NA 
HETATM   17  C   UNL     1      -8.706   5.376  70.292  1.00  0.00    -0.127 C  
HETATM   18  N   UNL     1      -5.651   5.305  71.990  1.00  0.00    -0.016 NA 
HETATM   19  N   UNL     1      -7.637   5.281  71.247  1.00  0.00    -0.097 NA 
HETATM   20  N   UNL     1      -6.360   5.508  70.886  1.00  0.00    -0.033 NA 
ENDBRANCH  14  15
ENDBRANCH  13  14
ENDBRANCH   4  13
BRANCH   7  21
HETATM   21  N   UNL     1     -10.705   8.745  68.541  1.00  0.00    -0.416 N  
HETATM   22  H   UNL     1     -10.944   7.770  68.718  1.00  0.00     0.000 HD 
HETATM   23  O   UNL     1     -10.473   8.023  66.409  1.00  0.00    -0.137 OA 
HETATM   24  C   UNL     1     -10.387   8.977  67.185  1.00  0.00    -0.272 C  
BRANCH  24  25
HETATM   25  C   UNL     1      -9.754  10.265  66.664  1.00  0.00    -0.185 C  
BRANCH  25  26
HETATM   26  C   UNL     1      -8.577  10.251  65.762  1.00  0.00    -0.154 A  
HETATM   27  H2  UNL     1      -6.487   9.166  62.211  1.00  0.00     0.000 HD 
HETATM   28  H1  UNL     1      -8.189   9.511  61.914  1.00  0.00     0.000 HD 
HETATM   29  C   UNL     1      -7.268  10.109  66.213  1.00  0.00    -0.111 A  
HETATM   30  N   UNL     1      -8.687  10.146  64.378  1.00  0.00    -0.186 NA 
HETATM   31  N   UNL     1      -7.399   9.466  62.557  1.00  0.00    -0.102 NA 
HETATM   32  S   UNL     1      -6.213   9.720  64.925  1.00  0.00    -0.104 SA 
HETATM   33  C   UNL     1      -7.538   9.796  63.847  1.00  0.00    -0.133 A  
ENDBRANCH  25  26
BRANCH  25  34
HETATM   34  N   UNL     1      -9.997  11.475  67.090  1.00  0.00    -0.197 NA 
HETATM   35  H   UNL     1      -9.885  11.648  68.089  1.00  0.00     0.000 HD 
BRANCH  34  36
HETATM   36  O   UNL     1     -10.398  12.558  66.295  1.00  0.00    -0.242 OA 
HETATM   37  C   UNL     1      -9.838  13.827  66.511  1.00  0.00    -0.290 C  
ENDBRANCH  34  36
ENDBRANCH  25  34
ENDBRANCH  24  25
ENDBRANCH   7  21
TORSDOF 8
ENDMDL
MODEL      222
REMARK 921   NORMALIZED FREE ENERGY PREDICTED BY IDOCK:   -4.46 KCAL/MOL
REMARK 922        TOTAL FREE ENERGY PREDICTED BY IDOCK:   -7.71 KCAL/MOL
REMARK 923 INTER-LIGAND FREE ENERGY PREDICTED BY IDOCK:   -6.84 KCAL/MOL
REMARK 924 INTRA-LIGAND FREE ENERGY PREDICTED BY IDOCK:   -0.87 KCAL/MOL
REMARK 927      BINDING AFFINITY PREDICTED BY RF-SCORE:    0.00 PKD
ROOT
HETATM    1  C   UNL     1      -8.801  11.813  67.680  1.00  0.00    -0.162 C  
HETATM    2  S   UNL     1      -7.141  12.431  67.671  1.00  0.00    -0.147 SA 
HETATM    3  C   UNL     1      -7.359  14.208  67.399  1.00  0.00    -0.120 C  
HETATM    4  C   UNL     1      -8.759  14.777  67.411  1.00  0.00    -0.210 C  
HETATM    5  O   UNL     1     -11.872  11.726  66.687  1.00  0.00    -0.569 OA 
HETATM    6  CA  UNL     1      -9.901  14.046  67.380  1.00  0.00    -0.240 C  
HETATM    7  CA  UNL     1      -9.504  10.719  66.742  1.00  0.00    -0.173 C  
HETATM    8  N   UNL     1      -9.851  12.694  67.265  1.00  0.00    -0.203 N  
HETATM    9  C   UNL     1     -11.228  14.752  67.394  1.00  0.00    -0.339 C  
HETATM   10  OXT UNL     1     -11.389  15.825  67.961  1.00  0.00    -0.348 OA 
HETATM   11  C   UNL     1     -10.707  11.696  66.952  1.00  0.00    -0.257 C  
HETATM   12  O   UNL     1     -12.261  14.168  66.767  1.00  0.00    -0.447 OA 
ENDROOT
BRANCH   4  13
HETATM   13  C   UNL     1      -8.727  16.307  67.283  1.00  0.00    -0.182 C  
BRANCH  13  14
HETATM   14  S   UNL     1      -7.037  16.816  66.857  1.00  0.00    -0.244 SA 
BRANCH  14  15
HETATM   15  C   UNL     1      -6.850  18.217  67.840  1.00  0.00    -0.211 A  
HETATM   16  N   UNL     1      -6.439  18.267  69.085  1.00  0.00    -0.255 NA 
HETATM   17  C   UNL     1      -7.716  19.917  66.178  1.00  0.00    -0.325 C  
HETATM   18  N   UNL     1      -6.609  19.579  69.477  1.00  0.00    -0.329 NA 
HETATM   19  N   UNL     1      -7.234  19.465  67.453  1.00  0.00    -0.212 NA 
HETATM   20  N   UNL     1      -7.099  20.316  68.488  1.00  0.00    -0.224 NA 
ENDBRANCH  14  15
ENDBRANCH  13  14
ENDBRANCH   4  13
BRANCH   7  21
HETATM   21  N   UNL     1      -9.395  10.343  65.258  1.00  0.00    -0.196 N  
HETATM   22  H   UNL     1      -9.991  10.925  64.670  1.00  0.00     0.000 HD 
HETATM   23  O   UNL     1      -8.815   9.405  63.283  1.00  0.00    -0.227 OA 
HETATM   24  C   UNL     1      -8.673   9.391  64.507  1.00  0.00    -0.203 C  
BRANCH  24  25
HETATM   25  C   UNL     1      -7.896   8.228  65.121  1.00  0.00    -0.120 C  
BRANCH  25  26
HETATM   26  C   UNL     1      -8.519   6.901  65.345  1.00  0.00    -0.084 A  
HETATM   27  H2  UNL     1      -9.938   3.697  67.769  1.00  0.00     0.000 HD 
HETATM   28  H1  UNL     1     -10.251   5.277  68.486  1.00  0.00     0.000 HD 
HETATM   29  C   UNL     1      -8.244   5.785  64.561  1.00  0.00    -0.122 A  
HETATM   30  N   UNL     1      -9.250   6.593  66.489  1.00  0.00    -0.155 NA 
HETATM   31  N   UNL     1      -9.898   4.716  67.711  1.00  0.00    -0.151 NA 
HETATM   32  S   UNL     1      -8.788   4.352  65.320  1.00  0.00    -0.142 SA 
HETATM   33  C   UNL     1      -9.381   5.293  66.619  1.00  0.00    -0.138 A  
ENDBRANCH  25  26
BRANCH  25  34
HETATM   34  N   UNL     1      -6.731   8.297  65.706  1.00  0.00    -0.052 NA 
HETATM   35  H   UNL     1      -6.438   9.211  66.054  1.00  0.00     0.000 HD 
BRANCH  34  36
HETATM   36  O   UNL     1      -5.846   7.228  65.896  1.00  0.00    -0.035 OA 
HETATM   37  C   UNL     1      -5.283   7.005  67.163  1.00  0.00    -0.013 C  
ENDBRANCH  34  36
ENDBRANCH  25  34
ENDBRANCH  24  25
ENDBRANCH   7  21
TORSDOF 8
ENDMDL
MODEL      223
REMARK 921   NORMALIZED FREE ENERGY PREDICTED BY IDOCK:   -4.46 KCAL/MOL
REMARK 922        TOTAL FREE ENERGY PREDICTED BY IDOCK:   -7.70 KCAL/MOL
REMARK 923 INTER-LIGAND FREE ENERGY PREDICTED BY IDOCK:   -5.69 KCAL/MOL
REMARK 924 INTRA-LIGAND FREE ENERGY PREDICTED BY IDOCK:   -2.01 KCAL/MOL
REMARK 927      BINDING AFFINITY PREDICTED BY RF-SCORE:    0.00 PKD
ROOT
HETATM    1  C   UNL     1      -9.015   5.548  72.573  1.00  0.00    -0.133 C  
HETATM    2  S   UNL     1      -9.244   4.234  71.407  1.00  0.00    -0.143 SA 
HETATM    3  C   UNL     1      -8.393   4.837  69.927  1.00  0.00    -0.068 C  
HETATM    4  C   UNL     1      -7.594   6.116  70.021  1.00  0.00    -0.095 C  
HETATM    5  O   UNL     1      -8.775   8.648  73.444  1.00  0.00    -0.333 OA 
HETATM    6  CA  UNL     1      -7.634   6.989  71.057  1.00  0.00    -0.086 C  
HETATM    7  CA  UNL     1     -10.095   6.441  73.353  1.00  0.00    -0.210 C  
HETATM    8  N   UNL     1      -8.487   6.790  72.094  1.00  0.00    -0.111 N  
HETATM    9  C   UNL     1      -6.781   8.227  71.011  1.00  0.00    -0.045 C  
HETATM   10  OXT UNL     1      -5.702   8.253  70.435  1.00  0.00    -0.028 OA 
HETATM   11  C   UNL     1      -8.986   7.518  73.118  1.00  0.00    -0.169 C  
HETATM   12  O   UNL     1      -7.231   9.327  71.634  1.00  0.00    -0.321 OA 
ENDROOT
BRANCH   4  13
HETATM   13  C   UNL     1      -6.855   6.394  68.704  1.00  0.00    -0.074 C  
BRANCH  13  14
HETATM   14  S   UNL     1      -6.671   4.830  67.802  1.00  0.00    -0.052 SA 
BRANCH  14  15
HETATM   15  C   UNL     1      -7.404   5.223  66.294  1.00  0.00    -0.082 A  
HETATM   16  N   UNL     1      -7.449   6.399  65.713  1.00  0.00    -0.080 NA 
HETATM   17  C   UNL     1      -8.369   2.941  65.778  1.00  0.00    -0.092 C  
HETATM   18  N   UNL     1      -8.271   6.237  64.617  1.00  0.00    -0.114 NA 
HETATM   19  N   UNL     1      -8.148   4.344  65.566  1.00  0.00    -0.104 NA 
HETATM   20  N   UNL     1      -8.706   4.986  64.523  1.00  0.00    -0.151 NA 
ENDBRANCH  14  15
ENDBRANCH  13  14
ENDBRANCH   4  13
BRANCH   7  21
HETATM   21  N   UNL     1     -11.469   7.025  72.996  1.00  0.00    -0.540 N  
HETATM   22  H   UNL     1     -12.125   6.965  73.774  1.00  0.00     0.000 HD 
HETATM   23  O   UNL     1     -13.211   8.019  71.950  1.00  0.00    -0.321 OA 
HETATM   24  C   UNL     1     -12.048   7.623  71.857  1.00  0.00    -0.298 C  
BRANCH  24  25
HETATM   25  C   UNL     1     -11.403   7.625  70.472  1.00  0.00    -0.250 C  
BRANCH  25  26
HETATM   26  C   UNL     1     -11.008   8.883  69.792  1.00  0.00    -0.156 A  
HETATM   27  H2  UNL     1      -8.201  11.807  68.480  1.00  0.00     0.000 HD 
HETATM   28  H1  UNL     1      -7.567  10.166  68.373  1.00  0.00     0.000 HD 
HETATM   29  C   UNL     1     -11.738  10.065  69.886  1.00  0.00    -0.125 A  
HETATM   30  N   UNL     1      -9.763   9.060  69.196  1.00  0.00    -0.164 NA 
HETATM   31  N   UNL     1      -8.337  10.800  68.583  1.00  0.00    -0.134 NA 
HETATM   32  S   UNL     1     -10.815  11.399  69.347  1.00  0.00    -0.105 SA 
HETATM   33  C   UNL     1      -9.524  10.335  68.993  1.00  0.00    -0.200 A  
ENDBRANCH  25  26
BRANCH  25  34
HETATM   34  N   UNL     1     -11.326   6.612  69.652  1.00  0.00    -0.519 NA 
HETATM   35  H   UNL     1     -11.092   5.704  70.055  1.00  0.00     0.000 HD 
BRANCH  34  36
HETATM   36  O   UNL     1     -11.535   6.661  68.267  1.00  0.00    -0.103 OA 
HETATM   37  C   UNL     1     -10.715   5.911  67.410  1.00  0.00    -0.287 C  
ENDBRANCH  34  36
ENDBRANCH  25  34
ENDBRANCH  24  25
ENDBRANCH   7  21
TORSDOF 8
ENDMDL
MODEL      224
REMARK 921   NORMALIZED FREE ENERGY PREDICTED BY IDOCK:   -4.46 KCAL/MOL
REMARK 922        TOTAL FREE ENERGY PREDICTED BY IDOCK:   -7.70 KCAL/MOL
REMARK 923 INTER-LIGAND FREE ENERGY PREDICTED BY IDOCK:   -6.37 KCAL/MOL
REMARK 924 INTRA-LIGAND FREE ENERGY PREDICTED BY IDOCK:   -1.33 KCAL/MOL
REMARK 927      BINDING AFFINITY PREDICTED BY RF-SCORE:    0.00 PKD
ROOT
HETATM    1  C   UNL     1     -10.779   8.735  68.441  1.00  0.00    -0.062 C  
HETATM    2  S   UNL     1     -10.362   8.069  66.852  1.00  0.00    -0.300 SA 
HETATM    3  C   UNL     1      -9.543   6.506  67.258  1.00  0.00    -0.126 C  
HETATM    4  C   UNL     1      -9.535   6.044  68.696  1.00  0.00    -0.134 C  
HETATM    5  O   UNL     1     -10.252   9.320  71.572  1.00  0.00    -0.330 OA 
HETATM    6  CA  UNL     1      -9.889   6.801  69.763  1.00  0.00    -0.166 C  
HETATM    7  CA  UNL     1     -10.351  10.119  69.128  1.00  0.00    -0.219 C  
HETATM    8  N   UNL     1     -10.225   8.106  69.602  1.00  0.00    -0.201 N  
HETATM    9  C   UNL     1      -9.828   6.204  71.143  1.00  0.00    -0.181 C  
HETATM   10  OXT UNL     1     -10.021   5.013  71.345  1.00  0.00    -0.177 OA 
HETATM   11  C   UNL     1     -10.368   9.196  70.389  1.00  0.00    -0.223 C  
HETATM   12  O   UNL     1      -9.562   7.022  72.173  1.00  0.00    -0.148 OA 
ENDROOT
BRANCH   4  13
HETATM   13  C   UNL     1      -8.902   4.650  68.816  1.00  0.00    -0.100 C  
BRANCH  13  14
HETATM   14  S   UNL     1      -7.096   4.831  68.799  1.00  0.00    -0.053 SA 
BRANCH  14  15
HETATM   15  C   UNL     1      -6.727   4.361  67.184  1.00  0.00    -0.051 A  
HETATM   16  N   UNL     1      -6.826   3.162  66.661  1.00  0.00    -0.052 NA 
HETATM   17  C   UNL     1      -5.882   6.600  66.362  1.00  0.00    -0.021 C  
HETATM   18  N   UNL     1      -6.272   3.261  65.402  1.00  0.00    -0.027 NA 
HETATM   19  N   UNL     1      -6.159   5.194  66.268  1.00  0.00    -0.029 NA 
HETATM   20  N   UNL     1      -5.857   4.498  65.156  1.00  0.00    -0.018 NA 
ENDBRANCH  14  15
ENDBRANCH  13  14
ENDBRANCH   4  13
BRANCH   7  21
HETATM   21  N   UNL     1      -9.075  10.973  69.128  1.00  0.00    -0.381 N  
HETATM   22  H   UNL     1      -8.352  10.581  69.730  1.00  0.00     0.000 HD 
HETATM   23  O   UNL     1      -7.506  12.549  68.717  1.00  0.00    -0.108 OA 
HETATM   24  C   UNL     1      -8.657  12.166  68.501  1.00  0.00    -0.079 C  
BRANCH  24  25
HETATM   25  C   UNL     1      -9.592  13.109  67.747  1.00  0.00    -0.208 C  
BRANCH  25  26
HETATM   26  C   UNL     1     -10.168  12.753  66.428  1.00  0.00    -0.253 A  
HETATM   27  H2  UNL     1     -13.377  11.964  63.738  1.00  0.00     0.000 HD 
HETATM   28  H1  UNL     1     -13.747  13.266  64.867  1.00  0.00     0.000 HD 
HETATM   29  C   UNL     1      -9.633  11.771  65.599  1.00  0.00    -0.220 A  
HETATM   30  N   UNL     1     -11.417  13.198  66.004  1.00  0.00    -0.323 NA 
HETATM   31  N   UNL     1     -13.088  12.580  64.498  1.00  0.00    -0.839 NA 
HETATM   32  S   UNL     1     -10.744  11.326  64.378  1.00  0.00    -0.312 SA 
HETATM   33  C   UNL     1     -11.848  12.475  64.996  1.00  0.00    -0.396 A  
ENDBRANCH  25  26
BRANCH  25  34
HETATM   34  N   UNL     1      -9.818  14.364  68.027  1.00  0.00    -0.216 NA 
HETATM   35  H   UNL     1     -10.759  14.611  68.334  1.00  0.00     0.000 HD 
BRANCH  34  36
HETATM   36  O   UNL     1      -8.880  15.402  67.944  1.00  0.00    -0.166 OA 
HETATM   37  C   UNL     1      -8.342  15.952  69.119  1.00  0.00    -0.253 C  
ENDBRANCH  34  36
ENDBRANCH  25  34
ENDBRANCH  24  25
ENDBRANCH   7  21
TORSDOF 8
ENDMDL
MODEL      225
REMARK 921   NORMALIZED FREE ENERGY PREDICTED BY IDOCK:   -4.46 KCAL/MOL
REMARK 922        TOTAL FREE ENERGY PREDICTED BY IDOCK:   -7.70 KCAL/MOL
REMARK 923 INTER-LIGAND FREE ENERGY PREDICTED BY IDOCK:   -6.69 KCAL/MOL
REMARK 924 INTRA-LIGAND FREE ENERGY PREDICTED BY IDOCK:   -1.00 KCAL/MOL
REMARK 927      BINDING AFFINITY PREDICTED BY RF-SCORE:    0.00 PKD
ROOT
HETATM    1  C   UNL     1      -9.205  10.684  68.629  1.00  0.00    -0.181 C  
HETATM    2  S   UNL     1     -10.195   9.836  69.829  1.00  0.00    -0.259 SA 
HETATM    3  C   UNL     1     -10.292   8.151  69.172  1.00  0.00    -0.220 C  
HETATM    4  C   UNL     1      -9.458   7.795  67.964  1.00  0.00    -0.153 C  
HETATM    5  O   UNL     1      -8.192  11.327  65.631  1.00  0.00    -0.031 OA 
HETATM    6  CA  UNL     1      -8.806   8.682  67.174  1.00  0.00    -0.129 C  
HETATM    7  CA  UNL     1      -9.542  11.966  67.727  1.00  0.00    -0.190 C  
HETATM    8  N   UNL     1      -8.923  10.017  67.394  1.00  0.00    -0.131 N  
HETATM    9  C   UNL     1      -8.013   8.180  65.999  1.00  0.00    -0.100 C  
HETATM   10  OXT UNL     1      -7.464   7.086  66.004  1.00  0.00    -0.076 OA 
HETATM   11  C   UNL     1      -8.666  11.158  66.715  1.00  0.00    -0.157 C  
HETATM   12  O   UNL     1      -7.907   8.974  64.923  1.00  0.00    -0.109 OA 
ENDROOT
BRANCH   4  13
HETATM   13  C   UNL     1      -9.586   6.300  67.636  1.00  0.00    -0.114 C  
BRANCH  13  14
HETATM   14  S   UNL     1      -8.911   5.343  69.023  1.00  0.00    -0.108 SA 
BRANCH  14  15
HETATM   15  C   UNL     1      -8.205   4.007  68.198  1.00  0.00    -0.091 A  
HETATM   16  N   UNL     1      -8.032   3.871  66.904  1.00  0.00    -0.095 NA 
HETATM   17  C   UNL     1      -7.814   2.529  70.214  1.00  0.00    -0.042 C  
HETATM   18  N   UNL     1      -7.579   2.580  66.726  1.00  0.00    -0.070 NA 
HETATM   19  N   UNL     1      -7.839   2.849  68.814  1.00  0.00    -0.053 NA 
HETATM   20  N   UNL     1      -7.463   1.948  67.888  1.00  0.00    -0.054 NA 
ENDBRANCH  14  15
ENDBRANCH  13  14
ENDBRANCH   4  13
BRANCH   7  21
HETATM   21  N   UNL     1     -10.803  12.484  67.021  1.00  0.00    -0.248 N  
HETATM   22  H   UNL     1     -11.060  11.907  66.221  1.00  0.00     0.000 HD 
HETATM   23  O   UNL     1     -12.653  13.648  66.438  1.00  0.00    -0.364 OA 
HETATM   24  C   UNL     1     -11.694  13.563  67.207  1.00  0.00    -0.383 C  
BRANCH  24  25
HETATM   25  C   UNL     1     -11.437  14.731  68.157  1.00  0.00    -0.323 C  
BRANCH  25  26
HETATM   26  C   UNL     1     -10.770  15.976  67.705  1.00  0.00    -0.323 A  
HETATM   27  H2  UNL     1     -10.248  20.202  67.557  1.00  0.00     0.000 HD 
HETATM   28  H1  UNL     1     -10.714  19.635  69.159  1.00  0.00     0.000 HD 
HETATM   29  C   UNL     1     -10.335  16.181  66.399  1.00  0.00    -0.315 A  
HETATM   30  N   UNL     1     -10.728  17.133  68.478  1.00  0.00    -0.349 NA 
HETATM   31  N   UNL     1     -10.465  19.433  68.191  1.00  0.00    -0.400 NA 
HETATM   32  S   UNL     1     -10.000  17.833  66.116  1.00  0.00    -0.231 SA 
HETATM   33  C   UNL     1     -10.417  18.173  67.739  1.00  0.00    -0.404 A  
ENDBRANCH  25  26
BRANCH  25  34
HETATM   34  N   UNL     1     -11.549  14.711  69.458  1.00  0.00    -0.292 NA 
HETATM   35  H   UNL     1     -10.896  15.286  69.991  1.00  0.00     0.000 HD 
BRANCH  34  36
HETATM   36  O   UNL     1     -12.488  13.969  70.186  1.00  0.00    -0.344 OA 
HETATM   37  C   UNL     1     -12.655  14.211  71.559  1.00  0.00    -0.354 C  
ENDBRANCH  34  36
ENDBRANCH  25  34
ENDBRANCH  24  25
ENDBRANCH   7  21
TORSDOF 8
ENDMDL
MODEL      226
REMARK 921   NORMALIZED FREE ENERGY PREDICTED BY IDOCK:   -4.45 KCAL/MOL
REMARK 922        TOTAL FREE ENERGY PREDICTED BY IDOCK:   -7.69 KCAL/MOL
REMARK 923 INTER-LIGAND FREE ENERGY PREDICTED BY IDOCK:   -6.45 KCAL/MOL
REMARK 924 INTRA-LIGAND FREE ENERGY PREDICTED BY IDOCK:   -1.24 KCAL/MOL
REMARK 927      BINDING AFFINITY PREDICTED BY RF-SCORE:    0.00 PKD
ROOT
HETATM    1  C   UNL     1      -9.477  11.227  68.517  1.00  0.00    -0.191 C  
HETATM    2  S   UNL     1     -11.061  10.442  68.400  1.00  0.00    -0.252 SA 
HETATM    3  C   UNL     1     -10.711   8.934  67.462  1.00  0.00    -0.152 C  
HETATM    4  C   UNL     1      -9.272   8.590  67.154  1.00  0.00    -0.173 C  
HETATM    5  O   UNL     1      -6.567  12.075  67.404  1.00  0.00    -0.105 OA 
HETATM    6  CA  UNL     1      -8.216   9.425  67.316  1.00  0.00    -0.117 C  
HETATM    7  CA  UNL     1      -8.996  12.671  68.011  1.00  0.00    -0.200 C  
HETATM    8  N   UNL     1      -8.406  10.705  67.723  1.00  0.00    -0.115 N  
HETATM    9  C   UNL     1      -6.835   8.943  66.963  1.00  0.00    -0.073 C  
HETATM   10  OXT UNL     1      -6.508   7.769  67.070  1.00  0.00    -0.052 OA 
HETATM   11  C   UNL     1      -7.690  11.853  67.747  1.00  0.00    -0.136 C  
HETATM   12  O   UNL     1      -5.944   9.847  66.528  1.00  0.00    -0.057 OA 
ENDROOT
BRANCH   4  13
HETATM   13  C   UNL     1      -9.175   7.223  66.461  1.00  0.00    -0.157 C  
BRANCH  13  14
HETATM   14  S   UNL     1     -10.346   6.087  67.257  1.00  0.00    -0.257 SA 
BRANCH  14  15
HETATM   15  C   UNL     1      -9.608   5.869  68.797  1.00  0.00    -0.128 A  
HETATM   16  N   UNL     1      -8.373   5.499  69.044  1.00  0.00    -0.101 NA 
HETATM   17  C   UNL     1     -11.644   6.346  70.222  1.00  0.00    -0.383 C  
HETATM   18  N   UNL     1      -8.307   5.317  70.410  1.00  0.00    -0.109 NA 
HETATM   19  N   UNL     1     -10.286   5.948  69.976  1.00  0.00    -0.206 NA 
HETATM   20  N   UNL     1      -9.474   5.584  70.986  1.00  0.00    -0.159 NA 
ENDBRANCH  14  15
ENDBRANCH  13  14
ENDBRANCH   4  13
BRANCH   7  21
HETATM   21  N   UNL     1      -9.316  13.546  66.791  1.00  0.00    -0.255 N  
HETATM   22  H   UNL     1      -9.745  13.010  66.037  1.00  0.00     0.000 HD 
HETATM   23  O   UNL     1      -9.582  15.275  65.358  1.00  0.00    -0.279 OA 
HETATM   24  C   UNL     1      -9.161  14.908  66.456  1.00  0.00    -0.285 C  
BRANCH  24  25
HETATM   25  C   UNL     1      -8.333  15.900  67.270  1.00  0.00    -0.186 C  
BRANCH  25  26
HETATM   26  C   UNL     1      -8.486  17.366  67.110  1.00  0.00    -0.211 A  
HETATM   27  H2  UNL     1     -10.469  20.883  65.750  1.00  0.00     0.000 HD 
HETATM   28  H1  UNL     1     -11.595  19.637  66.286  1.00  0.00     0.000 HD 
HETATM   29  C   UNL     1      -7.424  18.219  66.823  1.00  0.00    -0.219 A  
HETATM   30  N   UNL     1      -9.726  17.989  67.003  1.00  0.00    -0.291 NA 
HETATM   31  N   UNL     1     -10.637  19.963  66.158  1.00  0.00    -0.460 NA 
HETATM   32  S   UNL     1      -7.988  19.747  66.301  1.00  0.00    -0.330 SA 
HETATM   33  C   UNL     1      -9.594  19.201  66.516  1.00  0.00    -0.355 A  
ENDBRANCH  25  26
BRANCH  25  34
HETATM   34  N   UNL     1      -7.287  15.620  68.000  1.00  0.00    -0.120 NA 
HETATM   35  H   UNL     1      -6.404  15.471  67.512  1.00  0.00     0.000 HD 
BRANCH  34  36
HETATM   36  O   UNL     1      -7.272  15.506  69.397  1.00  0.00    -0.175 OA 
HETATM   37  C   UNL     1      -6.435  14.559  70.010  1.00  0.00    -0.160 C  
ENDBRANCH  34  36
ENDBRANCH  25  34
ENDBRANCH  24  25
ENDBRANCH   7  21
TORSDOF 8
ENDMDL
MODEL      227
REMARK 921   NORMALIZED FREE ENERGY PREDICTED BY IDOCK:   -4.44 KCAL/MOL
REMARK 922        TOTAL FREE ENERGY PREDICTED BY IDOCK:   -7.68 KCAL/MOL
REMARK 923 INTER-LIGAND FREE ENERGY PREDICTED BY IDOCK:   -6.29 KCAL/MOL
REMARK 924 INTRA-LIGAND FREE ENERGY PREDICTED BY IDOCK:   -1.39 KCAL/MOL
REMARK 927      BINDING AFFINITY PREDICTED BY RF-SCORE:    0.00 PKD
ROOT
HETATM    1  C   UNL     1      -9.867  11.427  66.437  1.00  0.00    -0.211 C  
HETATM    2  S   UNL     1     -11.080  12.148  65.364  1.00  0.00    -0.325 SA 
HETATM    3  C   UNL     1     -10.671  13.912  65.399  1.00  0.00    -0.325 C  
HETATM    4  C   UNL     1      -9.412  14.350  66.111  1.00  0.00    -0.271 C  
HETATM    5  O   UNL     1      -7.953  11.378  69.036  1.00  0.00    -0.115 OA 
HETATM    6  CA  UNL     1      -8.665  13.571  66.930  1.00  0.00    -0.145 C  
HETATM    7  CA  UNL     1     -10.051  10.573  67.781  1.00  0.00    -0.175 C  
HETATM    8  N   UNL     1      -9.059  12.306  67.227  1.00  0.00    -0.178 N  
HETATM    9  C   UNL     1      -7.434  14.147  67.573  1.00  0.00    -0.174 C  
HETATM   10  OXT UNL     1      -6.762  15.014  67.032  1.00  0.00    -0.211 OA 
HETATM   11  C   UNL     1      -8.754  11.366  68.150  1.00  0.00    -0.154 C  
HETATM   12  O   UNL     1      -7.070  13.675  68.776  1.00  0.00    -0.097 OA 
ENDROOT
BRANCH   4  13
HETATM   13  C   UNL     1      -9.180  15.857  65.927  1.00  0.00    -0.297 C  
BRANCH  13  14
HETATM   14  S   UNL     1     -10.609  16.749  66.603  1.00  0.00    -0.132 SA 
BRANCH  14  15
HETATM   15  C   UNL     1     -10.543  16.284  68.259  1.00  0.00    -0.300 A  
HETATM   16  N   UNL     1      -9.660  16.655  69.156  1.00  0.00    -0.243 NA 
HETATM   17  C   UNL     1     -12.502  14.682  68.242  1.00  0.00     0.270 C  
HETATM   18  N   UNL     1      -9.934  15.901  70.279  1.00  0.00     0.070 NA 
HETATM   19  N   UNL     1     -11.367  15.352  68.814  1.00  0.00    -0.300 NA 
HETATM   20  N   UNL     1     -10.972  15.099  70.076  1.00  0.00    -0.266 NA 
ENDBRANCH  14  15
ENDBRANCH  13  14
ENDBRANCH   4  13
BRANCH   7  21
HETATM   21  N   UNL     1     -11.035  10.615  68.958  1.00  0.00    -0.229 N  
HETATM   22  H   UNL     1     -11.577  11.479  68.974  1.00  0.00     0.000 HD 
HETATM   23  O   UNL     1     -12.274  10.116  70.784  1.00  0.00    -0.298 OA 
HETATM   24  C   UNL     1     -11.376   9.753  70.022  1.00  0.00    -0.220 C  
BRANCH  24  25
HETATM   25  C   UNL     1     -10.574   8.511  70.407  1.00  0.00    -0.223 C  
BRANCH  25  26
HETATM   26  C   UNL     1     -11.017   7.594  71.485  1.00  0.00    -0.233 A  
HETATM   27  H2  UNL     1     -10.421   5.185  74.948  1.00  0.00     0.000 HD 
HETATM   28  H1  UNL     1      -9.472   6.670  74.986  1.00  0.00     0.000 HD 
HETATM   29  C   UNL     1     -11.906   6.544  71.278  1.00  0.00    -0.329 A  
HETATM   30  N   UNL     1     -10.414   7.555  72.738  1.00  0.00    -0.264 NA 
HETATM   31  N   UNL     1     -10.160   6.077  74.524  1.00  0.00    -0.303 NA 
HETATM   32  S   UNL     1     -11.884   5.453  72.595  1.00  0.00     0.068 SA 
HETATM   33  C   UNL     1     -10.729   6.448  73.370  1.00  0.00    -0.262 A  
ENDBRANCH  25  26
BRANCH  25  34
HETATM   34  N   UNL     1      -9.357   8.227  70.028  1.00  0.00    -0.161 NA 
HETATM   35  H   UNL     1      -8.696   9.002  69.965  1.00  0.00     0.000 HD 
BRANCH  34  36
HETATM   36  O   UNL     1      -8.880   6.952  69.698  1.00  0.00    -0.140 OA 
HETATM   37  C   UNL     1      -8.026   6.790  68.595  1.00  0.00    -0.119 C  
ENDBRANCH  34  36
ENDBRANCH  25  34
ENDBRANCH  24  25
ENDBRANCH   7  21
TORSDOF 8
ENDMDL
MODEL      228
REMARK 921   NORMALIZED FREE ENERGY PREDICTED BY IDOCK:   -4.44 KCAL/MOL
REMARK 922        TOTAL FREE ENERGY PREDICTED BY IDOCK:   -7.67 KCAL/MOL
REMARK 923 INTER-LIGAND FREE ENERGY PREDICTED BY IDOCK:   -6.32 KCAL/MOL
REMARK 924 INTRA-LIGAND FREE ENERGY PREDICTED BY IDOCK:   -1.35 KCAL/MOL
REMARK 927      BINDING AFFINITY PREDICTED BY RF-SCORE:    0.00 PKD
ROOT
HETATM    1  C   UNL     1      -9.938  11.370  65.435  1.00  0.00    -0.245 C  
HETATM    2  S   UNL     1     -11.522  12.162  65.367  1.00  0.00    -0.311 SA 
HETATM    3  C   UNL     1     -11.540  13.186  66.859  1.00  0.00    -0.368 C  
HETATM    4  C   UNL     1     -10.277  13.292  67.681  1.00  0.00    -0.228 C  
HETATM    5  O   UNL     1      -7.454   9.972  66.951  1.00  0.00    -0.094 OA 
HETATM    6  CA  UNL     1      -9.181  12.507  67.536  1.00  0.00    -0.188 C  
HETATM    7  CA  UNL     1      -9.560   9.813  65.480  1.00  0.00    -0.282 C  
HETATM    8  N   UNL     1      -9.179  11.485  66.643  1.00  0.00    -0.181 N  
HETATM    9  C   UNL     1      -7.993  12.727  68.432  1.00  0.00    -0.137 C  
HETATM   10  OXT UNL     1      -7.707  13.832  68.874  1.00  0.00    -0.111 OA 
HETATM   11  C   UNL     1      -8.434  10.382  66.403  1.00  0.00    -0.138 C  
HETATM   12  O   UNL     1      -7.229  11.668  68.739  1.00  0.00    -0.103 OA 
ENDROOT
BRANCH   4  13
HETATM   13  C   UNL     1     -10.458  14.294  68.831  1.00  0.00    -0.238 C  
BRANCH  13  14
HETATM   14  S   UNL     1     -11.505  15.658  68.250  1.00  0.00    -0.314 SA 
BRANCH  14  15
HETATM   15  C   UNL     1     -10.325  16.740  67.615  1.00  0.00    -0.309 A  
HETATM   16  N   UNL     1      -9.590  17.598  68.283  1.00  0.00    -0.293 NA 
HETATM   17  C   UNL     1     -10.638  16.188  65.166  1.00  0.00    -0.343 C  
HETATM   18  N   UNL     1      -8.922  18.335  67.327  1.00  0.00    -0.256 NA 
HETATM   19  N   UNL     1     -10.099  16.912  66.283  1.00  0.00    -0.311 NA 
HETATM   20  N   UNL     1      -9.232  17.925  66.102  1.00  0.00    -0.501 NA 
ENDBRANCH  14  15
ENDBRANCH  13  14
ENDBRANCH   4  13
BRANCH   7  21
HETATM   21  N   UNL     1     -10.185   8.571  66.132  1.00  0.00    -0.393 N  
HETATM   22  H   UNL     1     -11.096   8.772  66.544  1.00  0.00     0.000 HD 
HETATM   23  O   UNL     1     -10.610   6.474  66.867  1.00  0.00    -0.263 OA 
HETATM   24  C   UNL     1      -9.809   7.221  66.302  1.00  0.00     0.041 C  
BRANCH  24  25
HETATM   25  C   UNL     1      -8.409   6.681  66.019  1.00  0.00    -0.134 C  
BRANCH  25  26
HETATM   26  C   UNL     1      -7.856   5.515  66.748  1.00  0.00    -0.101 A  
HETATM   27  H2  UNL     1      -5.347   3.647  69.642  1.00  0.00     0.000 HD 
HETATM   28  H1  UNL     1      -6.004   5.182  70.207  1.00  0.00     0.000 HD 
HETATM   29  C   UNL     1      -7.527   4.312  66.131  1.00  0.00    -0.085 A  
HETATM   30  N   UNL     1      -7.401   5.592  68.062  1.00  0.00    -0.072 NA 
HETATM   31  N   UNL     1      -5.947   4.459  69.490  1.00  0.00    -0.018 NA 
HETATM   32  S   UNL     1      -6.550   3.347  67.149  1.00  0.00    -0.038 SA 
HETATM   33  C   UNL     1      -6.646   4.558  68.352  1.00  0.00    -0.046 A  
ENDBRANCH  25  26
BRANCH  25  34
HETATM   34  N   UNL     1      -7.481   7.267  65.310  1.00  0.00    -0.083 NA 
HETATM   35  H   UNL     1      -6.620   7.524  65.793  1.00  0.00     0.000 HD 
BRANCH  34  36
HETATM   36  O   UNL     1      -7.566   7.575  63.946  1.00  0.00    -0.100 OA 
HETATM   37  C   UNL     1      -6.476   8.178  63.298  1.00  0.00    -0.080 C  
ENDBRANCH  34  36
ENDBRANCH  25  34
ENDBRANCH  24  25
ENDBRANCH   7  21
TORSDOF 8
ENDMDL
MODEL      229
REMARK 921   NORMALIZED FREE ENERGY PREDICTED BY IDOCK:   -4.42 KCAL/MOL
REMARK 922        TOTAL FREE ENERGY PREDICTED BY IDOCK:   -7.64 KCAL/MOL
REMARK 923 INTER-LIGAND FREE ENERGY PREDICTED BY IDOCK:   -6.33 KCAL/MOL
REMARK 924 INTRA-LIGAND FREE ENERGY PREDICTED BY IDOCK:   -1.32 KCAL/MOL
REMARK 927      BINDING AFFINITY PREDICTED BY RF-SCORE:    0.00 PKD
ROOT
HETATM    1  C   UNL     1     -10.590  11.979  68.635  1.00  0.00    -0.229 C  
HETATM    2  S   UNL     1     -11.865  10.917  69.258  1.00  0.00    -0.305 SA 
HETATM    3  C   UNL     1     -10.942   9.537  69.981  1.00  0.00    -0.251 C  
HETATM    4  C   UNL     1      -9.436   9.635  70.062  1.00  0.00    -0.277 C  
HETATM    5  O   UNL     1      -7.740  12.585  67.244  1.00  0.00    -0.159 OA 
HETATM    6  CA  UNL     1      -8.678  10.568  69.434  1.00  0.00    -0.078 C  
HETATM    7  CA  UNL     1     -10.310  12.496  67.144  1.00  0.00    -0.220 C  
HETATM    8  N   UNL     1      -9.250  11.474  68.602  1.00  0.00    -0.168 N  
HETATM    9  C   UNL     1      -7.184  10.539  69.606  1.00  0.00    -0.148 C  
HETATM   10  OXT UNL     1      -6.654  10.137  70.633  1.00  0.00    -0.213 OA 
HETATM   11  C   UNL     1      -8.838  12.337  67.645  1.00  0.00    -0.175 C  
HETATM   12  O   UNL     1      -6.424  10.982  68.592  1.00  0.00    -0.049 OA 
ENDROOT
BRANCH   4  13
HETATM   13  C   UNL     1      -8.851   8.428  70.809  1.00  0.00    -0.151 C  
BRANCH  13  14
HETATM   14  S   UNL     1      -9.658   8.306  72.431  1.00  0.00    -0.307 SA 
BRANCH  14  15
HETATM   15  C   UNL     1      -8.306   8.013  73.457  1.00  0.00    -0.233 A  
HETATM   16  N   UNL     1      -7.427   8.888  73.885  1.00  0.00    -0.385 NA 
HETATM   17  C   UNL     1      -8.576   5.506  73.668  1.00  0.00    -0.114 C  
HETATM   18  N   UNL     1      -6.461   8.151  74.539  1.00  0.00    -0.111 NA 
HETATM   19  N   UNL     1      -7.921   6.770  73.860  1.00  0.00    -0.108 NA 
HETATM   20  N   UNL     1      -6.753   6.855  74.523  1.00  0.00    -0.090 NA 
ENDBRANCH  14  15
ENDBRANCH  13  14
ENDBRANCH   4  13
BRANCH   7  21
HETATM   21  N   UNL     1     -10.450  11.879  65.745  1.00  0.00    -0.247 N  
HETATM   22  H   UNL     1     -11.202  12.310  65.209  1.00  0.00     0.000 HD 
HETATM   23  O   UNL     1     -10.170  10.655  63.864  1.00  0.00    -0.337 OA 
HETATM   24  C   UNL     1      -9.795  10.861  65.019  1.00  0.00    -0.281 C  
BRANCH  24  25
HETATM   25  C   UNL     1      -8.806   9.873  65.635  1.00  0.00    -0.158 C  
BRANCH  25  26
HETATM   26  C   UNL     1      -9.247   8.589  66.230  1.00  0.00    -0.207 A  
HETATM   27  H2  UNL     1      -9.841   4.370  66.226  1.00  0.00     0.000 HD 
HETATM   28  H1  UNL     1      -8.339   4.841  65.434  1.00  0.00     0.000 HD 
HETATM   29  C   UNL     1     -10.423   8.449  66.962  1.00  0.00    -0.305 A  
HETATM   30  N   UNL     1      -8.654   7.369  65.921  1.00  0.00    -0.153 NA 
HETATM   31  N   UNL     1      -9.180   5.097  65.952  1.00  0.00    -0.156 NA 
HETATM   32  S   UNL     1     -10.840   6.801  67.145  1.00  0.00    -0.376 SA 
HETATM   33  C   UNL     1      -9.430   6.372  66.277  1.00  0.00    -0.095 A  
ENDBRANCH  25  26
BRANCH  25  34
HETATM   34  N   UNL     1      -7.551  10.105  65.911  1.00  0.00    -0.121 NA 
HETATM   35  H   UNL     1      -7.353  10.704  66.713  1.00  0.00     0.000 HD 
BRANCH  34  36
HETATM   36  O   UNL     1      -6.451   9.604  65.201  1.00  0.00    -0.079 OA 
HETATM   37  C   UNL     1      -5.423   8.938  65.888  1.00  0.00    -0.041 C  
ENDBRANCH  34  36
ENDBRANCH  25  34
ENDBRANCH  24  25
ENDBRANCH   7  21
TORSDOF 8
ENDMDL
MODEL      230
REMARK 921   NORMALIZED FREE ENERGY PREDICTED BY IDOCK:   -4.41 KCAL/MOL
REMARK 922        TOTAL FREE ENERGY PREDICTED BY IDOCK:   -7.64 KCAL/MOL
REMARK 923 INTER-LIGAND FREE ENERGY PREDICTED BY IDOCK:   -6.58 KCAL/MOL
REMARK 924 INTRA-LIGAND FREE ENERGY PREDICTED BY IDOCK:   -1.05 KCAL/MOL
REMARK 927      BINDING AFFINITY PREDICTED BY RF-SCORE:    0.00 PKD
ROOT
HETATM    1  C   UNL     1     -10.294   9.976  69.940  1.00  0.00    -0.272 C  
HETATM    2  S   UNL     1     -11.315   8.612  70.427  1.00  0.00    -0.126 SA 
HETATM    3  C   UNL     1     -10.157   7.504  71.270  1.00  0.00    -0.187 C  
HETATM    4  C   UNL     1      -8.747   7.985  71.522  1.00  0.00    -0.168 C  
HETATM    5  O   UNL     1      -7.556  11.319  68.878  1.00  0.00    -0.122 OA 
HETATM    6  CA  UNL     1      -8.188   9.092  70.974  1.00  0.00    -0.176 C  
HETATM    7  CA  UNL     1      -9.987  10.572  68.484  1.00  0.00    -0.170 C  
HETATM    8  N   UNL     1      -8.874   9.834  70.068  1.00  0.00    -0.221 N  
HETATM    9  C   UNL     1      -6.767   9.446  71.317  1.00  0.00     0.002 C  
HETATM   10  OXT UNL     1      -6.273   9.178  72.403  1.00  0.00    -0.250 OA 
HETATM   11  C   UNL     1      -8.591  10.790  69.154  1.00  0.00    -0.088 C  
HETATM   12  O   UNL     1      -6.035  10.086  70.391  1.00  0.00    -0.065 OA 
ENDROOT
BRANCH   4  13
HETATM   13  C   UNL     1      -7.961   6.957  72.349  1.00  0.00    -0.096 C  
BRANCH  13  14
HETATM   14  S   UNL     1      -7.129   5.814  71.211  1.00  0.00    -0.075 SA 
BRANCH  14  15
HETATM   15  C   UNL     1      -8.128   4.418  71.347  1.00  0.00    -0.083 A  
HETATM   16  N   UNL     1      -9.119   4.067  70.562  1.00  0.00    -0.101 NA 
HETATM   17  C   UNL     1      -7.138   3.499  73.487  1.00  0.00    -0.050 C  
HETATM   18  N   UNL     1      -9.701   2.973  71.168  1.00  0.00    -0.156 NA 
HETATM   19  N   UNL     1      -8.069   3.549  72.395  1.00  0.00    -0.068 NA 
HETATM   20  N   UNL     1      -9.069   2.654  72.291  1.00  0.00    -0.082 NA 
ENDBRANCH  14  15
ENDBRANCH  13  14
ENDBRANCH   4  13
BRANCH   7  21
HETATM   21  N   UNL     1      -9.802   9.963  67.087  1.00  0.00    -0.178 N  
HETATM   22  H   UNL     1      -9.557   8.974  67.130  1.00  0.00     0.000 HD 
HETATM   23  O   UNL     1      -9.702   9.619  64.854  1.00  0.00    -0.267 OA 
HETATM   24  C   UNL     1      -9.887  10.433  65.759  1.00  0.00    -0.239 C  
BRANCH  24  25
HETATM   25  C   UNL     1      -9.988  11.910  65.380  1.00  0.00    -0.252 C  
BRANCH  25  26
HETATM   26  C   UNL     1     -10.340  12.952  66.374  1.00  0.00    -0.268 A  
HETATM   27  H2  UNL     1      -9.620  15.364  69.812  1.00  0.00     0.000 HD 
HETATM   28  H1  UNL     1      -8.163  15.097  68.857  1.00  0.00     0.000 HD 
HETATM   29  C   UNL     1     -11.615  13.094  66.916  1.00  0.00    -0.368 A  
HETATM   30  N   UNL     1      -9.386  13.729  67.025  1.00  0.00    -0.239 NA 
HETATM   31  N   UNL     1      -9.167  14.972  68.986  1.00  0.00    -0.208 NA 
HETATM   32  S   UNL     1     -11.584  14.091  68.304  1.00  0.00    -0.349 SA 
HETATM   33  C   UNL     1      -9.901  14.302  68.088  1.00  0.00    -0.226 A  
ENDBRANCH  25  26
BRANCH  25  34
HETATM   34  N   UNL     1     -10.004  12.399  64.170  1.00  0.00    -0.553 NA 
HETATM   35  H   UNL     1      -9.306  13.108  63.945  1.00  0.00     0.000 HD 
BRANCH  34  36
HETATM   36  O   UNL     1     -10.897  12.036  63.152  1.00  0.00    -0.356 OA 
HETATM   37  C   UNL     1     -12.276  12.227  63.333  1.00  0.00    -0.527 C  
ENDBRANCH  34  36
ENDBRANCH  25  34
ENDBRANCH  24  25
ENDBRANCH   7  21
TORSDOF 8
ENDMDL
MODEL      231
REMARK 921   NORMALIZED FREE ENERGY PREDICTED BY IDOCK:   -4.40 KCAL/MOL
REMARK 922        TOTAL FREE ENERGY PREDICTED BY IDOCK:   -7.62 KCAL/MOL
REMARK 923 INTER-LIGAND FREE ENERGY PREDICTED BY IDOCK:   -5.37 KCAL/MOL
REMARK 924 INTRA-LIGAND FREE ENERGY PREDICTED BY IDOCK:   -2.25 KCAL/MOL
REMARK 927      BINDING AFFINITY PREDICTED BY RF-SCORE:    0.00 PKD
ROOT
HETATM    1  C   UNL     1      -8.284   5.065  68.526  1.00  0.00    -0.085 C  
HETATM    2  S   UNL     1      -9.946   5.142  67.919  1.00  0.00    -0.134 SA 
HETATM    3  C   UNL     1     -10.360   6.899  68.059  1.00  0.00    -0.192 C  
HETATM    4  C   UNL     1      -9.272   7.871  68.453  1.00  0.00    -0.134 C  
HETATM    5  O   UNL     1      -5.866   5.925  70.486  1.00  0.00    -0.022 OA 
HETATM    6  CA  UNL     1      -8.053   7.527  68.937  1.00  0.00    -0.127 C  
HETATM    7  CA  UNL     1      -7.667   4.238  69.754  1.00  0.00    -0.053 C  
HETATM    8  N   UNL     1      -7.747   6.225  69.171  1.00  0.00    -0.099 N  
HETATM    9  C   UNL     1      -7.068   8.607  69.290  1.00  0.00    -0.062 C  
HETATM   10  OXT UNL     1      -7.038   9.678  68.699  1.00  0.00    -0.070 OA 
HETATM   11  C   UNL     1      -6.804   5.538  69.854  1.00  0.00    -0.060 C  
HETATM   12  O   UNL     1      -6.197   8.368  70.282  1.00  0.00    -0.034 OA 
ENDROOT
BRANCH   4  13
HETATM   13  C   UNL     1      -9.787   9.317  68.400  1.00  0.00    -0.155 C  
BRANCH  13  14
HETATM   14  S   UNL     1      -9.918   9.822  66.662  1.00  0.00    -0.241 SA 
BRANCH  14  15
HETATM   15  C   UNL     1     -10.599  11.395  66.819  1.00  0.00    -0.255 A  
HETATM   16  N   UNL     1     -11.838  11.754  66.581  1.00  0.00    -0.541 NA 
HETATM   17  C   UNL     1      -8.483  12.619  67.474  1.00  0.00    -0.176 C  
HETATM   18  N   UNL     1     -11.854  13.128  66.698  1.00  0.00    -0.381 NA 
HETATM   19  N   UNL     1      -9.868  12.507  67.110  1.00  0.00    -0.207 NA 
HETATM   20  N   UNL     1     -10.652  13.597  67.015  1.00  0.00    -0.272 NA 
ENDBRANCH  14  15
ENDBRANCH  13  14
ENDBRANCH   4  13
BRANCH   7  21
HETATM   21  N   UNL     1      -8.173   3.844  71.149  1.00  0.00    -0.070 N  
HETATM   22  H   UNL     1      -8.196   2.833  71.277  1.00  0.00     0.000 HD 
HETATM   23  O   UNL     1      -8.921   3.865  73.284  1.00  0.00    -0.105 OA 
HETATM   24  C   UNL     1      -8.614   4.536  72.297  1.00  0.00    -0.114 C  
BRANCH  24  25
HETATM   25  C   UNL     1      -8.926   6.031  72.327  1.00  0.00    -0.141 C  
BRANCH  25  26
HETATM   26  C   UNL     1     -10.210   6.574  71.821  1.00  0.00    -0.188 A  
HETATM   27  H2  UNL     1     -13.366   9.432  71.675  1.00  0.00     0.000 HD 
HETATM   28  H1  UNL     1     -11.788  10.180  71.914  1.00  0.00     0.000 HD 
HETATM   29  C   UNL     1     -11.321   5.782  71.549  1.00  0.00    -0.125 A  
HETATM   30  N   UNL     1     -10.495   7.936  71.792  1.00  0.00    -0.214 NA 
HETATM   31  N   UNL     1     -12.352   9.345  71.756  1.00  0.00    -0.374 NA 
HETATM   32  S   UNL     1     -12.730   6.737  71.387  1.00  0.00    -0.169 SA 
HETATM   33  C   UNL     1     -11.785   8.136  71.652  1.00  0.00    -0.287 A  
ENDBRANCH  25  26
BRANCH  25  34
HETATM   34  N   UNL     1      -8.080   6.994  72.572  1.00  0.00    -0.101 NA 
HETATM   35  H   UNL     1      -7.732   7.523  71.771  1.00  0.00     0.000 HD 
BRANCH  34  36
HETATM   36  O   UNL     1      -7.605   7.366  73.837  1.00  0.00    -0.103 OA 
HETATM   37  C   UNL     1      -6.513   6.686  74.399  1.00  0.00    -0.080 C  
ENDBRANCH  34  36
ENDBRANCH  25  34
ENDBRANCH  24  25
ENDBRANCH   7  21
TORSDOF 8
ENDMDL
MODEL      232
REMARK 921   NORMALIZED FREE ENERGY PREDICTED BY IDOCK:   -4.37 KCAL/MOL
REMARK 922        TOTAL FREE ENERGY PREDICTED BY IDOCK:   -7.57 KCAL/MOL
REMARK 923 INTER-LIGAND FREE ENERGY PREDICTED BY IDOCK:   -5.69 KCAL/MOL
REMARK 924 INTRA-LIGAND FREE ENERGY PREDICTED BY IDOCK:   -1.88 KCAL/MOL
REMARK 927      BINDING AFFINITY PREDICTED BY RF-SCORE:    0.00 PKD
ROOT
HETATM    1  C   UNL     1      -6.969   7.340  65.177  1.00  0.00    -0.055 C  
HETATM    2  S   UNL     1      -5.892   6.307  66.133  1.00  0.00    -0.025 SA 
HETATM    3  C   UNL     1      -6.893   5.893  67.584  1.00  0.00    -0.060 C  
HETATM    4  C   UNL     1      -8.344   6.313  67.608  1.00  0.00    -0.117 C  
HETATM    5  O   UNL     1      -9.239   9.605  64.800  1.00  0.00    -0.234 OA 
HETATM    6  CA  UNL     1      -8.922   7.178  66.739  1.00  0.00    -0.137 C  
HETATM    7  CA  UNL     1      -6.780   8.853  64.681  1.00  0.00    -0.073 C  
HETATM    8  N   UNL     1      -8.180   7.799  65.787  1.00  0.00    -0.124 N  
HETATM    9  C   UNL     1     -10.383   7.506  66.888  1.00  0.00    -0.309 C  
HETATM   10  OXT UNL     1     -11.189   6.700  67.333  1.00  0.00    -0.344 OA 
HETATM   11  C   UNL     1      -8.319   8.859  64.959  1.00  0.00    -0.165 C  
HETATM   12  O   UNL     1     -10.798   8.723  66.507  1.00  0.00     0.010 OA 
ENDROOT
BRANCH   4  13
HETATM   13  C   UNL     1      -9.048   5.769  68.860  1.00  0.00    -0.115 C  
BRANCH  13  14
HETATM   14  S   UNL     1      -8.662   6.858  70.260  1.00  0.00    -0.145 SA 
BRANCH  14  15
HETATM   15  C   UNL     1     -10.223   7.471  70.649  1.00  0.00    -0.202 A  
HETATM   16  N   UNL     1     -10.745   8.616  70.276  1.00  0.00    -0.223 NA 
HETATM   17  C   UNL     1     -10.966   5.580  72.158  1.00  0.00    -0.231 C  
HETATM   18  N   UNL     1     -11.937   8.719  70.963  1.00  0.00    -0.280 NA 
HETATM   19  N   UNL     1     -11.078   6.860  71.515  1.00  0.00    -0.238 NA 
HETATM   20  N   UNL     1     -12.146   7.652  71.726  1.00  0.00    -0.294 NA 
ENDBRANCH  14  15
ENDBRANCH  13  14
ENDBRANCH   4  13
BRANCH   7  21
HETATM   21  N   UNL     1      -6.141  10.112  65.283  1.00  0.00    -0.107 N  
HETATM   22  H   UNL     1      -5.273  10.365  64.811  1.00  0.00     0.000 HD 
HETATM   23  O   UNL     1      -5.701  11.961  66.509  1.00  0.00    -0.265 OA 
HETATM   24  C   UNL     1      -6.457  11.005  66.329  1.00  0.00    -0.112 C  
BRANCH  24  25
HETATM   25  C   UNL     1      -7.547  10.753  67.369  1.00  0.00    -0.099 C  
BRANCH  25  26
HETATM   26  C   UNL     1      -8.786  11.565  67.420  1.00  0.00    -0.147 A  
HETATM   27  H2  UNL     1     -12.969  12.137  67.994  1.00  0.00     0.000 HD 
HETATM   28  H1  UNL     1     -12.286  10.966  69.121  1.00  0.00     0.000 HD 
HETATM   29  C   UNL     1      -9.083  12.566  66.499  1.00  0.00    -0.177 A  
HETATM   30  N   UNL     1      -9.862  11.250  68.244  1.00  0.00    -0.190 NA 
HETATM   31  N   UNL     1     -12.158  11.640  68.366  1.00  0.00    -0.518 NA 
HETATM   32  S   UNL     1     -10.731  13.011  66.587  1.00  0.00    -0.276 SA 
HETATM   33  C   UNL     1     -10.945  11.882  67.853  1.00  0.00    -0.222 A  
ENDBRANCH  25  26
BRANCH  25  34
HETATM   34  N   UNL     1      -7.446   9.994  68.427  1.00  0.00    -0.081 NA 
HETATM   35  H   UNL     1      -8.272   9.456  68.694  1.00  0.00     0.000 HD 
BRANCH  34  36
HETATM   36  O   UNL     1      -6.305   9.853  69.228  1.00  0.00    -0.043 OA 
HETATM   37  C   UNL     1      -5.837  10.947  69.973  1.00  0.00    -0.089 C  
ENDBRANCH  34  36
ENDBRANCH  25  34
ENDBRANCH  24  25
ENDBRANCH   7  21
TORSDOF 8
ENDMDL
MODEL      233
REMARK 921   NORMALIZED FREE ENERGY PREDICTED BY IDOCK:   -4.36 KCAL/MOL
REMARK 922        TOTAL FREE ENERGY PREDICTED BY IDOCK:   -7.56 KCAL/MOL
REMARK 923 INTER-LIGAND FREE ENERGY PREDICTED BY IDOCK:   -6.81 KCAL/MOL
REMARK 924 INTRA-LIGAND FREE ENERGY PREDICTED BY IDOCK:   -0.75 KCAL/MOL
REMARK 927      BINDING AFFINITY PREDICTED BY RF-SCORE:    0.00 PKD
ROOT
HETATM    1  C   UNL     1     -10.733  12.204  69.826  1.00  0.00     0.554 C  
HETATM    2  S   UNL     1     -10.160  11.539  68.286  1.00  0.00    -0.204 SA 
HETATM    3  C   UNL     1     -10.743  12.746  67.068  1.00  0.00    -0.253 C  
HETATM    4  C   UNL     1     -11.375  14.027  67.562  1.00  0.00    -0.343 C  
HETATM    5  O   UNL     1     -12.855  13.738  71.715  1.00  0.00    -0.335 OA 
HETATM    6  CA  UNL     1     -11.759  14.268  68.840  1.00  0.00    -0.328 C  
HETATM    7  CA  UNL     1     -11.711  11.571  70.927  1.00  0.00     0.275 C  
HETATM    8  N   UNL     1     -11.654  13.300  69.785  1.00  0.00    -0.260 N  
HETATM    9  C   UNL     1     -12.380  15.594  69.185  1.00  0.00     0.010 C  
HETATM   10  OXT UNL     1     -12.081  16.625  68.597  1.00  0.00     0.289 OA 
HETATM   11  C   UNL     1     -12.142  13.071  71.025  1.00  0.00     0.018 C  
HETATM   12  O   UNL     1     -13.280  15.629  70.179  1.00  0.00    -0.168 OA 
ENDROOT
BRANCH   4  13
HETATM   13  C   UNL     1     -11.692  14.965  66.389  1.00  0.00    -0.190 C  
BRANCH  13  14
HETATM   14  S   UNL     1     -10.624  14.523  64.989  1.00  0.00    -0.433 SA 
BRANCH  14  15
HETATM   15  C   UNL     1     -11.598  13.357  64.179  1.00  0.00    -0.398 A  
HETATM   16  N   UNL     1     -12.908  13.287  64.161  1.00  0.00    -0.579 NA 
HETATM   17  C   UNL     1      -9.724  11.921  63.268  1.00  0.00    -0.252 C  
HETATM   18  N   UNL     1     -13.206  12.104  63.518  1.00  0.00    -0.614 NA 
HETATM   19  N   UNL     1     -11.091  12.268  63.537  1.00  0.00    -0.455 NA 
HETATM   20  N   UNL     1     -12.102  11.473  63.138  1.00  0.00    -0.094 NA 
ENDBRANCH  14  15
ENDBRANCH  13  14
ENDBRANCH   4  13
BRANCH   7  21
HETATM   21  N   UNL     1     -12.958  10.676  70.873  1.00  0.00    -0.368 N  
HETATM   22  H   UNL     1     -13.786  11.190  70.574  1.00  0.00     0.000 HD 
HETATM   23  O   UNL     1     -14.392   8.929  70.943  1.00  0.00    -0.064 OA 
HETATM   24  C   UNL     1     -13.240   9.319  71.137  1.00  0.00    -0.183 C  
BRANCH  24  25
HETATM   25  C   UNL     1     -12.272   8.364  71.833  1.00  0.00    -0.343 C  
BRANCH  25  26
HETATM   26  C   UNL     1     -10.808   8.427  71.605  1.00  0.00    -0.268 A  
HETATM   27  H2  UNL     1      -7.187   7.331  69.646  1.00  0.00     0.000 HD 
HETATM   28  H1  UNL     1      -8.553   7.428  68.536  1.00  0.00     0.000 HD 
HETATM   29  C   UNL     1      -9.875   8.493  72.636  1.00  0.00    -0.211 A  
HETATM   30  N   UNL     1     -10.226   8.195  70.362  1.00  0.00    -0.198 NA 
HETATM   31  N   UNL     1      -8.172   7.539  69.476  1.00  0.00    -0.128 NA 
HETATM   32  S   UNL     1      -8.303   8.139  72.065  1.00  0.00    -0.166 SA 
HETATM   33  C   UNL     1      -8.942   7.953  70.490  1.00  0.00    -0.145 A  
ENDBRANCH  25  26
BRANCH  25  34
HETATM   34  N   UNL     1     -12.591   7.288  72.500  1.00  0.00    -0.465 NA 
HETATM   35  H   UNL     1     -13.123   7.415  73.362  1.00  0.00     0.000 HD 
BRANCH  34  36
HETATM   36  O   UNL     1     -12.268   5.974  72.137  1.00  0.00    -0.288 OA 
HETATM   37  C   UNL     1     -11.630   5.131  73.061  1.00  0.00    -0.223 C  
ENDBRANCH  34  36
ENDBRANCH  25  34
ENDBRANCH  24  25
ENDBRANCH   7  21
TORSDOF 8
ENDMDL
MODEL      234
REMARK 921   NORMALIZED FREE ENERGY PREDICTED BY IDOCK:   -4.34 KCAL/MOL
REMARK 922        TOTAL FREE ENERGY PREDICTED BY IDOCK:   -7.53 KCAL/MOL
REMARK 923 INTER-LIGAND FREE ENERGY PREDICTED BY IDOCK:   -5.86 KCAL/MOL
REMARK 924 INTRA-LIGAND FREE ENERGY PREDICTED BY IDOCK:   -1.67 KCAL/MOL
REMARK 927      BINDING AFFINITY PREDICTED BY RF-SCORE:    0.00 PKD
ROOT
HETATM    1  C   UNL     1     -11.119   6.621  70.483  1.00  0.00    -0.307 C  
HETATM    2  S   UNL     1     -10.631   5.805  68.987  1.00  0.00    -0.274 SA 
HETATM    3  C   UNL     1      -9.885   4.264  69.578  1.00  0.00    -0.154 C  
HETATM    4  C   UNL     1      -9.975   3.933  71.049  1.00  0.00    -0.149 C  
HETATM    5  O   UNL     1     -10.758   7.471  73.576  1.00  0.00    -0.378 OA 
HETATM    6  CA  UNL     1     -10.366   4.791  72.022  1.00  0.00    -0.179 C  
HETATM    7  CA  UNL     1     -10.690   8.050  71.070  1.00  0.00    -0.220 C  
HETATM    8  N   UNL     1     -10.653   6.085  71.726  1.00  0.00    -0.221 N  
HETATM    9  C   UNL     1     -10.404   4.320  73.450  1.00  0.00    -0.171 C  
HETATM   10  OXT UNL     1     -10.645   3.156  73.745  1.00  0.00    -0.150 OA 
HETATM   11  C   UNL     1     -10.809   7.244  72.404  1.00  0.00    -0.255 C  
HETATM   12  O   UNL     1     -10.174   5.219  74.418  1.00  0.00    -0.231 OA 
ENDROOT
BRANCH   4  13
HETATM   13  C   UNL     1      -9.393   2.539  71.330  1.00  0.00    -0.135 C  
BRANCH  13  14
HETATM   14  S   UNL     1      -7.591   2.611  71.116  1.00  0.00    -0.036 SA 
BRANCH  14  15
HETATM   15  C   UNL     1      -7.117   3.456  72.539  1.00  0.00    -0.043 A  
HETATM   16  N   UNL     1      -7.100   2.998  73.769  1.00  0.00    -0.036 NA 
HETATM   17  C   UNL     1      -6.660   5.702  71.466  1.00  0.00    -0.049 C  
HETATM   18  N   UNL     1      -6.800   4.085  74.563  1.00  0.00    -0.057 NA 
HETATM   19  N   UNL     1      -6.804   4.781  72.560  1.00  0.00    -0.062 NA 
HETATM   20  N   UNL     1      -6.624   5.179  73.833  1.00  0.00    -0.071 NA 
ENDBRANCH  14  15
ENDBRANCH  13  14
ENDBRANCH   4  13
BRANCH   7  21
HETATM   21  N   UNL     1      -9.391   8.867  71.072  1.00  0.00    -0.226 N  
HETATM   22  H   UNL     1      -8.837   8.705  71.913  1.00  0.00     0.000 HD 
HETATM   23  O   UNL     1      -7.672  10.233  70.524  1.00  0.00    -0.163 OA 
HETATM   24  C   UNL     1      -8.774   9.788  70.198  1.00  0.00    -0.180 C  
BRANCH  24  25
HETATM   25  C   UNL     1      -9.467  10.417  68.991  1.00  0.00    -0.197 C  
BRANCH  25  26
HETATM   26  C   UNL     1      -9.393   9.810  67.640  1.00  0.00    -0.140 A  
HETATM   27  H2  UNL     1      -7.636   7.347  64.640  1.00  0.00     0.000 HD 
HETATM   28  H1  UNL     1      -7.510   6.643  66.251  1.00  0.00     0.000 HD 
HETATM   29  C   UNL     1      -9.677  10.510  66.471  1.00  0.00    -0.192 A  
HETATM   30  N   UNL     1      -8.814   8.567  67.401  1.00  0.00    -0.133 NA 
HETATM   31  N   UNL     1      -7.843   7.388  65.639  1.00  0.00    -0.104 NA 
HETATM   32  S   UNL     1      -9.106   9.667  65.097  1.00  0.00    -0.241 SA 
HETATM   33  C   UNL     1      -8.548   8.419  66.123  1.00  0.00    -0.141 A  
ENDBRANCH  25  26
BRANCH  25  34
HETATM   34  N   UNL     1      -9.992  11.611  68.935  1.00  0.00    -0.387 NA 
HETATM   35  H   UNL     1      -9.354  12.404  69.010  1.00  0.00     0.000 HD 
BRANCH  34  36
HETATM   36  O   UNL     1     -11.355  11.900  68.781  1.00  0.00    -0.227 OA 
HETATM   37  C   UNL     1     -11.757  13.196  68.420  1.00  0.00    -0.351 C  
ENDBRANCH  34  36
ENDBRANCH  25  34
ENDBRANCH  24  25
ENDBRANCH   7  21
TORSDOF 8
ENDMDL
MODEL      235
REMARK 921   NORMALIZED FREE ENERGY PREDICTED BY IDOCK:   -4.31 KCAL/MOL
REMARK 922        TOTAL FREE ENERGY PREDICTED BY IDOCK:   -7.49 KCAL/MOL
REMARK 923 INTER-LIGAND FREE ENERGY PREDICTED BY IDOCK:   -6.68 KCAL/MOL
REMARK 924 INTRA-LIGAND FREE ENERGY PREDICTED BY IDOCK:   -0.81 KCAL/MOL
REMARK 927      BINDING AFFINITY PREDICTED BY RF-SCORE:    0.00 PKD
ROOT
HETATM    1  C   UNL     1      -8.194   9.780  68.480  1.00  0.00    -0.106 C  
HETATM    2  S   UNL     1      -7.196   9.429  69.901  1.00  0.00    -0.097 SA 
HETATM    3  C   UNL     1      -7.681   7.742  70.346  1.00  0.00    -0.088 C  
HETATM    4  C   UNL     1      -8.604   6.986  69.419  1.00  0.00    -0.134 C  
HETATM    5  O   UNL     1     -10.899   9.629  66.723  1.00  0.00    -0.123 OA 
HETATM    6  CA  UNL     1      -9.294   7.530  68.387  1.00  0.00    -0.141 C  
HETATM    7  CA  UNL     1      -9.277  10.936  68.234  1.00  0.00    -0.161 C  
HETATM    8  N   UNL     1      -9.247   8.866  68.154  1.00  0.00    -0.139 N  
HETATM    9  C   UNL     1     -10.180   6.650  67.548  1.00  0.00    -0.181 C  
HETATM   10  OXT UNL     1      -9.929   5.468  67.356  1.00  0.00    -0.138 OA 
HETATM   11  C   UNL     1      -9.954   9.772  67.441  1.00  0.00    -0.191 C  
HETATM   12  O   UNL     1     -11.272   7.198  66.994  1.00  0.00    -0.277 OA 
ENDROOT
BRANCH   4  13
HETATM   13  C   UNL     1      -8.800   5.542  69.905  1.00  0.00    -0.127 C  
BRANCH  13  14
HETATM   14  S   UNL     1      -7.234   4.646  69.704  1.00  0.00    -0.051 SA 
BRANCH  14  15
HETATM   15  C   UNL     1      -7.297   4.230  68.034  1.00  0.00    -0.064 A  
HETATM   16  N   UNL     1      -7.675   3.087  67.512  1.00  0.00    -0.068 NA 
HETATM   17  C   UNL     1      -6.349   6.386  67.109  1.00  0.00    -0.037 C  
HETATM   18  N   UNL     1      -7.403   3.189  66.164  1.00  0.00    -0.070 NA 
HETATM   19  N   UNL     1      -6.833   5.036  67.039  1.00  0.00    -0.058 NA 
HETATM   20  N   UNL     1      -6.883   4.375  65.867  1.00  0.00    -0.056 NA 
ENDBRANCH  14  15
ENDBRANCH  13  14
ENDBRANCH   4  13
BRANCH   7  21
HETATM   21  N   UNL     1     -10.320  11.639  69.114  1.00  0.00    -0.412 N  
HETATM   22  H   UNL     1     -10.475  11.147  69.993  1.00  0.00     0.000 HD 
HETATM   23  O   UNL     1     -11.843  13.082  69.961  1.00  0.00    -0.322 OA 
HETATM   24  C   UNL     1     -11.119  12.798  69.006  1.00  0.00    -0.233 C  
BRANCH  24  25
HETATM   25  C   UNL     1     -11.294  13.597  67.716  1.00  0.00    -0.306 C  
BRANCH  25  26
HETATM   26  C   UNL     1     -10.587  14.880  67.486  1.00  0.00    -0.266 A  
HETATM   27  H2  UNL     1      -9.866  19.027  68.144  1.00  0.00     0.000 HD 
HETATM   28  H1  UNL     1     -10.296  18.173  69.625  1.00  0.00     0.000 HD 
HETATM   29  C   UNL     1     -10.194  15.321  66.226  1.00  0.00    -0.287 A  
HETATM   30  N   UNL     1     -10.458  15.858  68.467  1.00  0.00    -0.233 NA 
HETATM   31  N   UNL     1     -10.095  18.156  68.625  1.00  0.00    -0.387 NA 
HETATM   32  S   UNL     1      -9.790  16.982  66.256  1.00  0.00    -0.282 SA 
HETATM   33  C   UNL     1     -10.126  17.010  67.932  1.00  0.00    -0.306 A  
ENDBRANCH  25  26
BRANCH  25  34
HETATM   34  N   UNL     1     -12.202  13.397  66.798  1.00  0.00    -0.353 NA 
HETATM   35  H   UNL     1     -12.955  14.083  66.731  1.00  0.00     0.000 HD 
BRANCH  34  36
HETATM   36  O   UNL     1     -12.233  12.324  65.898  1.00  0.00    -0.634 OA 
HETATM   37  C   UNL     1     -12.748  12.511  64.606  1.00  0.00    -0.349 C  
ENDBRANCH  34  36
ENDBRANCH  25  34
ENDBRANCH  24  25
ENDBRANCH   7  21
TORSDOF 8
ENDMDL
MODEL      236
REMARK 921   NORMALIZED FREE ENERGY PREDICTED BY IDOCK:   -4.30 KCAL/MOL
REMARK 922        TOTAL FREE ENERGY PREDICTED BY IDOCK:   -7.46 KCAL/MOL
REMARK 923 INTER-LIGAND FREE ENERGY PREDICTED BY IDOCK:   -5.81 KCAL/MOL
REMARK 924 INTRA-LIGAND FREE ENERGY PREDICTED BY IDOCK:   -1.66 KCAL/MOL
REMARK 927      BINDING AFFINITY PREDICTED BY RF-SCORE:    0.00 PKD
ROOT
HETATM    1  C   UNL     1      -8.810   8.486  66.288  1.00  0.00    -0.156 C  
HETATM    2  S   UNL     1     -10.436   8.229  66.943  1.00  0.00    -0.217 SA 
HETATM    3  C   UNL     1     -10.730   9.720  67.927  1.00  0.00    -0.258 C  
HETATM    4  C   UNL     1      -9.722  10.843  67.859  1.00  0.00    -0.178 C  
HETATM    5  O   UNL     1      -5.756   9.526  66.424  1.00  0.00    -0.051 OA 
HETATM    6  CA  UNL     1      -8.488  10.755  67.303  1.00  0.00    -0.124 C  
HETATM    7  CA  UNL     1      -7.476   7.612  66.453  1.00  0.00    -0.084 C  
HETATM    8  N   UNL     1      -8.038   9.574  66.808  1.00  0.00    -0.109 N  
HETATM    9  C   UNL     1      -7.588  11.960  67.312  1.00  0.00    -0.154 C  
HETATM   10  OXT UNL     1      -8.028  13.101  67.266  1.00  0.00    -0.173 OA 
HETATM   11  C   UNL     1      -6.849   9.044  66.441  1.00  0.00    -0.079 C  
HETATM   12  O   UNL     1      -6.263  11.758  67.363  1.00  0.00    -0.079 OA 
ENDROOT
BRANCH   4  13
HETATM   13  C   UNL     1     -10.206  12.059  68.663  1.00  0.00    -0.177 C  
BRANCH  13  14
HETATM   14  S   UNL     1     -11.854  12.529  68.064  1.00  0.00    -0.246 SA 
BRANCH  14  15
HETATM   15  C   UNL     1     -11.480  13.139  66.498  1.00  0.00    -0.338 A  
HETATM   16  N   UNL     1     -11.540  12.494  65.357  1.00  0.00    -0.357 NA 
HETATM   17  C   UNL     1     -10.726  15.449  67.203  1.00  0.00    -0.314 C  
HETATM   18  N   UNL     1     -11.000  13.350  64.420  1.00  0.00    -0.388 NA 
HETATM   19  N   UNL     1     -10.951  14.375  66.277  1.00  0.00    -0.313 NA 
HETATM   20  N   UNL     1     -10.633  14.500  64.975  1.00  0.00    -0.413 NA 
ENDBRANCH  14  15
ENDBRANCH  13  14
ENDBRANCH   4  13
BRANCH   7  21
HETATM   21  N   UNL     1      -6.863   6.787  67.593  1.00  0.00    -0.077 N  
HETATM   22  H   UNL     1      -5.942   7.132  67.864  1.00  0.00     0.000 HD 
HETATM   23  O   UNL     1      -6.495   5.290  69.248  1.00  0.00    -0.033 OA 
HETATM   24  C   UNL     1      -7.259   5.670  68.359  1.00  0.00    -0.075 C  
BRANCH  24  25
HETATM   25  C   UNL     1      -8.461   4.789  68.027  1.00  0.00    -0.102 C  
BRANCH  25  26
HETATM   26  C   UNL     1      -8.615   4.139  66.703  1.00  0.00    -0.112 A  
HETATM   27  H2  UNL     1     -10.832   2.887  63.286  1.00  0.00     0.000 HD 
HETATM   28  H1  UNL     1     -11.352   4.459  63.890  1.00  0.00     0.000 HD 
HETATM   29  C   UNL     1      -7.991   2.943  66.360  1.00  0.00    -0.081 A  
HETATM   30  N   UNL     1      -9.569   4.539  65.772  1.00  0.00    -0.173 NA 
HETATM   31  N   UNL     1     -10.721   3.660  63.944  1.00  0.00    -0.279 NA 
HETATM   32  S   UNL     1      -8.689   2.268  64.953  1.00  0.00    -0.117 SA 
HETATM   33  C   UNL     1      -9.747   3.608  64.863  1.00  0.00    -0.172 A  
ENDBRANCH  25  26
BRANCH  25  34
HETATM   34  N   UNL     1      -9.557   4.676  68.728  1.00  0.00    -0.154 NA 
HETATM   35  H   UNL     1     -10.241   5.429  68.647  1.00  0.00     0.000 HD 
BRANCH  34  36
HETATM   36  O   UNL     1      -9.876   3.612  69.583  1.00  0.00    -0.139 OA 
HETATM   37  C   UNL     1      -8.849   2.828  70.133  1.00  0.00    -0.086 C  
ENDBRANCH  34  36
ENDBRANCH  25  34
ENDBRANCH  24  25
ENDBRANCH   7  21
TORSDOF 8
ENDMDL
MODEL      237
REMARK 921   NORMALIZED FREE ENERGY PREDICTED BY IDOCK:   -4.28 KCAL/MOL
REMARK 922        TOTAL FREE ENERGY PREDICTED BY IDOCK:   -7.44 KCAL/MOL
REMARK 923 INTER-LIGAND FREE ENERGY PREDICTED BY IDOCK:   -5.66 KCAL/MOL
REMARK 924 INTRA-LIGAND FREE ENERGY PREDICTED BY IDOCK:   -1.78 KCAL/MOL
REMARK 927      BINDING AFFINITY PREDICTED BY RF-SCORE:    0.00 PKD
ROOT
HETATM    1  C   UNL     1     -10.864   7.231  68.069  1.00  0.00    -0.095 C  
HETATM    2  S   UNL     1     -10.594   5.796  69.072  1.00  0.00    -0.274 SA 
HETATM    3  C   UNL     1     -10.580   6.461  70.756  1.00  0.00    -0.238 C  
HETATM    4  C   UNL     1     -10.939   7.913  70.965  1.00  0.00    -0.262 C  
HETATM    5  O   UNL     1     -10.505  10.347  67.303  1.00  0.00    -0.221 OA 
HETATM    6  CA  UNL     1     -11.054   8.840  69.982  1.00  0.00    -0.162 C  
HETATM    7  CA  UNL     1      -9.965   7.863  66.901  1.00  0.00    -0.262 C  
HETATM    8  N   UNL     1     -10.774   8.517  68.694  1.00  0.00    -0.107 N  
HETATM    9  C   UNL     1     -11.416  10.254  70.342  1.00  0.00    -0.335 C  
HETATM   10  OXT UNL     1     -12.125  10.520  71.303  1.00  0.00    -0.354 OA 
HETATM   11  C   UNL     1     -10.525   9.176  67.540  1.00  0.00    -0.270 C  
HETATM   12  O   UNL     1     -10.946  11.243  69.566  1.00  0.00    -0.236 OA 
ENDROOT
BRANCH   4  13
HETATM   13  C   UNL     1     -10.987   8.253  72.462  1.00  0.00    -0.354 C  
BRANCH  13  14
HETATM   14  S   UNL     1     -10.211   6.897  73.387  1.00  0.00    -0.320 SA 
BRANCH  14  15
HETATM   15  C   UNL     1      -8.581   7.445  73.482  1.00  0.00    -0.161 A  
HETATM   16  N   UNL     1      -8.156   8.610  73.912  1.00  0.00    -0.380 NA 
HETATM   17  C   UNL     1      -7.478   5.413  72.454  1.00  0.00    -0.096 C  
HETATM   18  N   UNL     1      -6.802   8.630  73.647  1.00  0.00    -0.314 NA 
HETATM   19  N   UNL     1      -7.521   6.743  72.994  1.00  0.00    -0.086 NA 
HETATM   20  N   UNL     1      -6.407   7.495  73.081  1.00  0.00    -0.059 NA 
ENDBRANCH  14  15
ENDBRANCH  13  14
ENDBRANCH   4  13
BRANCH   7  21
HETATM   21  N   UNL     1      -8.456   8.006  66.662  1.00  0.00    -0.128 N  
HETATM   22  H   UNL     1      -8.172   8.982  66.577  1.00  0.00     0.000 HD 
HETATM   23  O   UNL     1      -6.247   7.614  66.374  1.00  0.00    -0.043 OA 
HETATM   24  C   UNL     1      -7.365   7.120  66.529  1.00  0.00    -0.083 C  
BRANCH  24  25
HETATM   25  C   UNL     1      -7.507   5.609  66.361  1.00  0.00    -0.087 C  
BRANCH  25  26
HETATM   26  C   UNL     1      -7.018   4.656  67.387  1.00  0.00    -0.061 A  
HETATM   27  H2  UNL     1      -7.480   2.088  70.755  1.00  0.00     0.000 HD 
HETATM   28  H1  UNL     1      -8.868   2.035  69.670  1.00  0.00     0.000 HD 
HETATM   29  C   UNL     1      -5.799   4.797  68.043  1.00  0.00    -0.022 A  
HETATM   30  N   UNL     1      -7.827   3.674  67.951  1.00  0.00    -0.069 NA 
HETATM   31  N   UNL     1      -7.934   2.381  69.889  1.00  0.00    -0.042 NA 
HETATM   32  S   UNL     1      -5.727   3.795  69.427  1.00  0.00    -0.018 SA 
HETATM   33  C   UNL     1      -7.293   3.214  69.059  1.00  0.00    -0.048 A  
ENDBRANCH  25  26
BRANCH  25  34
HETATM   34  N   UNL     1      -7.844   4.980  65.267  1.00  0.00    -0.087 NA 
HETATM   35  H   UNL     1      -7.108   4.470  64.778  1.00  0.00     0.000 HD 
BRANCH  34  36
HETATM   36  O   UNL     1      -9.128   4.943  64.707  1.00  0.00    -0.154 OA 
HETATM   37  C   UNL     1     -10.190   4.379  65.431  1.00  0.00    -0.228 C  
ENDBRANCH  34  36
ENDBRANCH  25  34
ENDBRANCH  24  25
ENDBRANCH   7  21
TORSDOF 8
ENDMDL
MODEL      238
REMARK 921   NORMALIZED FREE ENERGY PREDICTED BY IDOCK:   -4.19 KCAL/MOL
REMARK 922        TOTAL FREE ENERGY PREDICTED BY IDOCK:   -7.30 KCAL/MOL
REMARK 923 INTER-LIGAND FREE ENERGY PREDICTED BY IDOCK:   -5.62 KCAL/MOL
REMARK 924 INTRA-LIGAND FREE ENERGY PREDICTED BY IDOCK:   -1.68 KCAL/MOL
REMARK 927      BINDING AFFINITY PREDICTED BY RF-SCORE:    0.00 PKD
ROOT
HETATM    1  C   UNL     1      -7.914  15.015  68.972  1.00  0.00    -0.180 C  
HETATM    2  S   UNL     1      -9.596  15.550  69.122  1.00  0.00    -0.268 SA 
HETATM    3  C   UNL     1     -10.539  14.153  68.461  1.00  0.00    -0.252 C  
HETATM    4  C   UNL     1      -9.803  12.879  68.117  1.00  0.00    -0.227 C  
HETATM    5  O   UNL     1      -5.471  13.497  67.506  1.00  0.00    -0.319 OA 
HETATM    6  CA  UNL     1      -8.455  12.751  68.041  1.00  0.00    -0.177 C  
HETATM    7  CA  UNL     1      -6.688  15.665  68.169  1.00  0.00    -0.125 C  
HETATM    8  N   UNL     1      -7.649  13.830  68.213  1.00  0.00    -0.118 N  
HETATM    9  C   UNL     1      -7.861  11.416  67.683  1.00  0.00    -0.122 C  
HETATM   10  OXT UNL     1      -8.403  10.361  67.985  1.00  0.00    -0.116 OA 
HETATM   11  C   UNL     1      -6.359  14.150  67.967  1.00  0.00    -0.149 C  
HETATM   12  O   UNL     1      -6.694  11.402  67.021  1.00  0.00    -0.108 OA 
ENDROOT
BRANCH   4  13
HETATM   13  C   UNL     1     -10.786  11.780  67.689  1.00  0.00    -0.214 C  
BRANCH  13  14
HETATM   14  S   UNL     1     -11.857  12.440  66.381  1.00  0.00    -0.279 SA 
BRANCH  14  15
HETATM   15  C   UNL     1     -11.065  11.854  64.969  1.00  0.00    -0.305 A  
HETATM   16  N   UNL     1     -10.033  11.045  64.913  1.00  0.00    -0.265 NA 
HETATM   17  C   UNL     1     -12.423  13.133  63.260  1.00  0.00    -0.162 C  
HETATM   18  N   UNL     1      -9.672  10.999  63.583  1.00  0.00    -0.291 NA 
HETATM   19  N   UNL     1     -11.362  12.275  63.708  1.00  0.00    -0.418 NA 
HETATM   20  N   UNL     1     -10.476  11.752  62.841  1.00  0.00    -0.132 NA 
ENDBRANCH  14  15
ENDBRANCH  13  14
ENDBRANCH   4  13
BRANCH   7  21
HETATM   21  N   UNL     1      -6.548  16.408  66.833  1.00  0.00    -0.180 N  
HETATM   22  H   UNL     1      -5.613  16.314  66.437  1.00  0.00     0.000 HD 
HETATM   23  O   UNL     1      -6.933  17.611  64.956  1.00  0.00     0.351 OA 
HETATM   24  C   UNL     1      -7.394  17.190  66.018  1.00  0.00    -0.135 C  
BRANCH  24  25
HETATM   25  C   UNL     1      -8.760  17.713  66.458  1.00  0.00    -0.263 C  
BRANCH  25  26
HETATM   26  C   UNL     1      -8.902  18.745  67.514  1.00  0.00    -0.274 A  
HETATM   27  H2  UNL     1      -7.743  20.744  71.094  1.00  0.00     0.000 HD 
HETATM   28  H1  UNL     1      -6.360  20.238  70.125  1.00  0.00     0.000 HD 
HETATM   29  C   UNL     1     -10.126  19.115  68.063  1.00  0.00    -0.397 A  
HETATM   30  N   UNL     1      -7.816  19.266  68.211  1.00  0.00    -0.306 NA 
HETATM   31  N   UNL     1      -7.370  20.317  70.245  1.00  0.00     0.311 NA 
HETATM   32  S   UNL     1      -9.908  20.000  69.510  1.00  0.00     0.314 SA 
HETATM   33  C   UNL     1      -8.215  19.869  69.308  1.00  0.00     0.196 A  
ENDBRANCH  25  26
BRANCH  25  34
HETATM   34  N   UNL     1      -9.921  17.200  66.154  1.00  0.00    -0.394 NA 
HETATM   35  H   UNL     1     -10.655  17.254  66.861  1.00  0.00     0.000 HD 
BRANCH  34  36
HETATM   36  O   UNL     1     -10.249  16.580  64.940  1.00  0.00    -0.486 OA 
HETATM   37  C   UNL     1     -11.578  16.204  64.685  1.00  0.00    -0.133 C  
ENDBRANCH  34  36
ENDBRANCH  25  34
ENDBRANCH  24  25
ENDBRANCH   7  21
TORSDOF 8
ENDMDL
MODEL      239
REMARK 921   NORMALIZED FREE ENERGY PREDICTED BY IDOCK:   -4.16 KCAL/MOL
REMARK 922        TOTAL FREE ENERGY PREDICTED BY IDOCK:   -7.27 KCAL/MOL
REMARK 923 INTER-LIGAND FREE ENERGY PREDICTED BY IDOCK:   -5.57 KCAL/MOL
REMARK 924 INTRA-LIGAND FREE ENERGY PREDICTED BY IDOCK:   -1.70 KCAL/MOL
REMARK 927      BINDING AFFINITY PREDICTED BY RF-SCORE:    0.00 PKD
ROOT
HETATM    1  C   UNL     1     -10.833   6.684  68.357  1.00  0.00    -0.255 C  
HETATM    2  S   UNL     1     -10.463   5.261  69.346  1.00  0.00    -0.137 SA 
HETATM    3  C   UNL     1     -10.465   5.915  71.034  1.00  0.00    -0.237 C  
HETATM    4  C   UNL     1     -10.908   7.342  71.258  1.00  0.00    -0.258 C  
HETATM    5  O   UNL     1     -10.673   9.820  67.607  1.00  0.00    -0.260 OA 
HETATM    6  CA  UNL     1     -11.092   8.266  70.283  1.00  0.00    -0.219 C  
HETATM    7  CA  UNL     1      -9.991   7.376  67.181  1.00  0.00    -0.215 C  
HETATM    8  N   UNL     1     -10.812   7.968  68.989  1.00  0.00    -0.074 N  
HETATM    9  C   UNL     1     -11.534   9.654  70.658  1.00  0.00    -0.306 C  
HETATM   10  OXT UNL     1     -12.243   9.871  71.631  1.00  0.00    -0.382 OA 
HETATM   11  C   UNL     1     -10.619   8.649  67.836  1.00  0.00    -0.161 C  
HETATM   12  O   UNL     1     -11.135  10.675  69.883  1.00  0.00    -0.270 OA 
ENDROOT
BRANCH   4  13
HETATM   13  C   UNL     1     -10.954   7.669  72.758  1.00  0.00    -0.377 C  
BRANCH  13  14
HETATM   14  S   UNL     1      -9.931   6.460  73.645  1.00  0.00    -0.246 SA 
BRANCH  14  15
HETATM   15  C   UNL     1      -8.397   7.241  73.629  1.00  0.00    -0.138 A  
HETATM   16  N   UNL     1      -8.155   8.518  73.446  1.00  0.00    -0.404 NA 
HETATM   17  C   UNL     1      -6.961   5.178  73.920  1.00  0.00    -0.081 C  
HETATM   18  N   UNL     1      -6.782   8.625  73.363  1.00  0.00    -0.292 NA 
HETATM   19  N   UNL     1      -7.211   6.574  73.693  1.00  0.00    -0.081 NA 
HETATM   20  N   UNL     1      -6.199   7.441  73.508  1.00  0.00    -0.060 NA 
ENDBRANCH  14  15
ENDBRANCH  13  14
ENDBRANCH   4  13
BRANCH   7  21
HETATM   21  N   UNL     1      -8.497   7.611  66.921  1.00  0.00    -0.123 N  
HETATM   22  H   UNL     1      -8.295   8.584  66.695  1.00  0.00     0.000 HD 
HETATM   23  O   UNL     1      -6.259   7.371  66.692  1.00  0.00    -0.041 OA 
HETATM   24  C   UNL     1      -7.333   6.812  66.918  1.00  0.00    -0.082 C  
BRANCH  24  25
HETATM   25  C   UNL     1      -7.344   5.286  66.973  1.00  0.00    -0.083 C  
BRANCH  25  26
HETATM   26  C   UNL     1      -7.962   4.467  65.901  1.00  0.00    -0.099 A  
HETATM   27  H2  UNL     1     -10.267   3.900  62.363  1.00  0.00     0.000 HD 
HETATM   28  H1  UNL     1      -9.290   5.366  62.305  1.00  0.00     0.000 HD 
HETATM   29  C   UNL     1      -8.573   3.238  66.133  1.00  0.00    -0.121 A  
HETATM   30  N   UNL     1      -8.190   4.952  64.617  1.00  0.00    -0.118 NA 
HETATM   31  N   UNL     1      -9.573   4.515  62.791  1.00  0.00    -0.087 NA 
HETATM   32  S   UNL     1      -9.527   2.766  64.795  1.00  0.00    -0.089 SA 
HETATM   33  C   UNL     1      -9.051   4.191  63.981  1.00  0.00    -0.144 A  
ENDBRANCH  25  26
BRANCH  25  34
HETATM   34  N   UNL     1      -7.039   4.545  68.004  1.00  0.00    -0.063 NA 
HETATM   35  H   UNL     1      -7.059   3.533  67.873  1.00  0.00     0.000 HD 
BRANCH  34  36
HETATM   36  O   UNL     1      -6.689   5.018  69.276  1.00  0.00    -0.048 OA 
HETATM   37  C   UNL     1      -6.104   4.146  70.208  1.00  0.00    -0.018 C  
ENDBRANCH  34  36
ENDBRANCH  25  34
ENDBRANCH  24  25
ENDBRANCH   7  21
TORSDOF 8
ENDMDL
MODEL      240
REMARK 921   NORMALIZED FREE ENERGY PREDICTED BY IDOCK:   -4.14 KCAL/MOL
REMARK 922        TOTAL FREE ENERGY PREDICTED BY IDOCK:   -7.23 KCAL/MOL
REMARK 923 INTER-LIGAND FREE ENERGY PREDICTED BY IDOCK:   -5.49 KCAL/MOL
REMARK 924 INTRA-LIGAND FREE ENERGY PREDICTED BY IDOCK:   -1.74 KCAL/MOL
REMARK 927      BINDING AFFINITY PREDICTED BY RF-SCORE:    0.00 PKD
ROOT
HETATM    1  C   UNL     1      -6.736   7.824  71.321  1.00  0.00    -0.045 C  
HETATM    2  S   UNL     1      -7.186   9.333  70.509  1.00  0.00    -0.123 SA 
HETATM    3  C   UNL     1      -8.973   9.436  70.781  1.00  0.00    -0.191 C  
HETATM    4  C   UNL     1      -9.627   8.425  71.694  1.00  0.00    -0.288 C  
HETATM    5  O   UNL     1      -7.214   4.763  72.231  1.00  0.00    -0.074 OA 
HETATM    6  CA  UNL     1      -9.038   7.295  72.159  1.00  0.00    -0.132 C  
HETATM    7  CA  UNL     1      -6.042   6.501  70.738  1.00  0.00    -0.031 C  
HETATM    8  N   UNL     1      -7.787   6.955  71.760  1.00  0.00    -0.099 N  
HETATM    9  C   UNL     1      -9.816   6.378  73.062  1.00  0.00    -0.165 C  
HETATM   10  OXT UNL     1     -10.676   6.793  73.828  1.00  0.00    -0.325 OA 
HETATM   11  C   UNL     1      -7.006   5.851  71.783  1.00  0.00    -0.073 C  
HETATM   12  O   UNL     1      -9.539   5.065  73.018  1.00  0.00    -0.141 OA 
ENDROOT
BRANCH   4  13
HETATM   13  C   UNL     1     -11.115   8.750  71.889  1.00  0.00    -0.364 C  
BRANCH  13  14
HETATM   14  S   UNL     1     -11.751   9.489  70.358  1.00  0.00    -0.111 SA 
BRANCH  14  15
HETATM   15  C   UNL     1     -12.369  10.987  70.940  1.00  0.00    -0.402 A  
HETATM   16  N   UNL     1     -13.207  11.172  71.932  1.00  0.00    -0.454 NA 
HETATM   17  C   UNL     1     -11.264  12.496  69.235  1.00  0.00    -0.194 C  
HETATM   18  N   UNL     1     -13.516  12.516  71.909  1.00  0.00    -0.386 NA 
HETATM   19  N   UNL     1     -12.134  12.185  70.334  1.00  0.00    -0.352 NA 
HETATM   20  N   UNL     1     -12.869  13.141  70.932  1.00  0.00    -0.214 NA 
ENDBRANCH  14  15
ENDBRANCH  13  14
ENDBRANCH   4  13
BRANCH   7  21
HETATM   21  N   UNL     1      -6.127   5.736  69.410  1.00  0.00    -0.030 N  
HETATM   22  H   UNL     1      -5.251   5.268  69.180  1.00  0.00     0.000 HD 
HETATM   23  O   UNL     1      -6.828   4.796  67.476  1.00  0.00    -0.057 OA 
HETATM   24  C   UNL     1      -7.118   5.522  68.428  1.00  0.00    -0.070 C  
BRANCH  24  25
HETATM   25  C   UNL     1      -8.437   6.289  68.364  1.00  0.00    -0.115 C  
BRANCH  25  26
HETATM   26  C   UNL     1      -8.527   7.649  67.780  1.00  0.00    -0.122 A  
HETATM   27  H2  UNL     1     -10.310  10.665  65.355  1.00  0.00     0.000 HD 
HETATM   28  H1  UNL     1     -11.506   9.653  66.164  1.00  0.00     0.000 HD 
HETATM   29  C   UNL     1      -7.422   8.358  67.319  1.00  0.00    -0.093 A  
HETATM   30  N   UNL     1      -9.736   8.242  67.429  1.00  0.00    -0.162 NA 
HETATM   31  N   UNL     1     -10.531   9.906  66.001  1.00  0.00    -0.115 NA 
HETATM   32  S   UNL     1      -7.902   9.681  66.348  1.00  0.00    -0.101 SA 
HETATM   33  C   UNL     1      -9.536   9.258  66.621  1.00  0.00    -0.204 A  
ENDBRANCH  25  26
BRANCH  25  34
HETATM   34  N   UNL     1      -9.546   5.974  68.977  1.00  0.00    -0.129 NA 
HETATM   35  H   UNL     1     -10.336   6.611  68.868  1.00  0.00     0.000 HD 
BRANCH  34  36
HETATM   36  O   UNL     1      -9.747   4.838  69.774  1.00  0.00    -0.163 OA 
HETATM   37  C   UNL     1      -9.713   3.562  69.190  1.00  0.00     0.037 C  
ENDBRANCH  34  36
ENDBRANCH  25  34
ENDBRANCH  24  25
ENDBRANCH   7  21
TORSDOF 8
ENDMDL
MODEL      241
REMARK 921   NORMALIZED FREE ENERGY PREDICTED BY IDOCK:   -4.13 KCAL/MOL
REMARK 922        TOTAL FREE ENERGY PREDICTED BY IDOCK:   -7.22 KCAL/MOL
REMARK 923 INTER-LIGAND FREE ENERGY PREDICTED BY IDOCK:   -6.06 KCAL/MOL
REMARK 924 INTRA-LIGAND FREE ENERGY PREDICTED BY IDOCK:   -1.16 KCAL/MOL
REMARK 927      BINDING AFFINITY PREDICTED BY RF-SCORE:    0.00 PKD
ROOT
HETATM    1  C   UNL     1      -9.524   7.352  68.612  1.00  0.00    -0.139 C  
HETATM    2  S   UNL     1      -9.751   8.459  69.977  1.00  0.00    -0.178 SA 
HETATM    3  C   UNL     1      -9.420  10.086  69.254  1.00  0.00    -0.217 C  
HETATM    4  C   UNL     1      -9.215  10.188  67.761  1.00  0.00    -0.146 C  
HETATM    5  O   UNL     1      -8.088   6.341  65.903  1.00  0.00    -0.111 OA 
HETATM    6  CA  UNL     1      -9.027   9.138  66.924  1.00  0.00    -0.123 C  
HETATM    7  CA  UNL     1      -8.510   6.123  68.432  1.00  0.00    -0.114 C  
HETATM    8  N   UNL     1      -8.943   7.874  67.411  1.00  0.00    -0.126 N  
HETATM    9  C   UNL     1      -8.833   9.393  65.454  1.00  0.00    -0.184 C  
HETATM   10  OXT UNL     1      -9.352  10.343  64.884  1.00  0.00    -0.201 OA 
HETATM   11  C   UNL     1      -8.523   6.668  66.967  1.00  0.00    -0.113 C  
HETATM   12  O   UNL     1      -8.069   8.535  64.760  1.00  0.00    -0.135 OA 
ENDROOT
BRANCH   4  13
HETATM   13  C   UNL     1      -9.068  11.654  67.330  1.00  0.00    -0.169 C  
BRANCH  13  14
HETATM   14  S   UNL     1     -10.386  12.623  68.117  1.00  0.00    -0.238 SA 
BRANCH  14  15
HETATM   15  C   UNL     1     -11.415  12.943  66.774  1.00  0.00    -0.340 A  
HETATM   16  N   UNL     1     -12.224  12.103  66.172  1.00  0.00    -0.514 NA 
HETATM   17  C   UNL     1     -10.724  15.345  66.379  1.00  0.00    -0.311 C  
HETATM   18  N   UNL     1     -12.706  12.778  65.071  1.00  0.00    -0.760 NA 
HETATM   19  N   UNL     1     -11.417  14.120  66.089  1.00  0.00    -0.337 NA 
HETATM   20  N   UNL     1     -12.213  14.010  65.010  1.00  0.00    -0.412 NA 
ENDBRANCH  14  15
ENDBRANCH  13  14
ENDBRANCH   4  13
BRANCH   7  21
HETATM   21  N   UNL     1      -7.065   5.847  68.869  1.00  0.00    -0.071 N  
HETATM   22  H   UNL     1      -6.437   5.742  68.073  1.00  0.00     0.000 HD 
HETATM   23  O   UNL     1      -5.174   5.513  70.066  1.00  0.00    -0.004 OA 
HETATM   24  C   UNL     1      -6.392   5.701  70.101  1.00  0.00    -0.031 C  
BRANCH  24  25
HETATM   25  C   UNL     1      -7.096   5.557  71.449  1.00  0.00    -0.071 C  
BRANCH  25  26
HETATM   26  C   UNL     1      -8.267   4.665  71.630  1.00  0.00    -0.104 A  
HETATM   27  H2  UNL     1     -11.455   2.939  73.868  1.00  0.00     0.000 HD 
HETATM   28  H1  UNL     1     -11.207   4.642  74.249  1.00  0.00     0.000 HD 
HETATM   29  C   UNL     1      -8.331   3.373  71.117  1.00  0.00    -0.066 A  
HETATM   30  N   UNL     1      -9.302   4.948  72.516  1.00  0.00    -0.134 NA 
HETATM   31  N   UNL     1     -10.964   3.818  73.699  1.00  0.00    -0.240 NA 
HETATM   32  S   UNL     1      -9.602   2.487  71.840  1.00  0.00    -0.147 SA 
HETATM   33  C   UNL     1     -10.010   3.869  72.760  1.00  0.00    -0.151 A  
ENDBRANCH  25  26
BRANCH  25  34
HETATM   34  N   UNL     1      -6.925   6.316  72.497  1.00  0.00    -0.074 NA 
HETATM   35  H   UNL     1      -7.089   7.317  72.379  1.00  0.00     0.000 HD 
BRANCH  34  36
HETATM   36  O   UNL     1      -6.536   5.878  73.770  1.00  0.00    -0.072 OA 
HETATM   37  C   UNL     1      -5.187   5.951  74.150  1.00  0.00    -0.028 C  
ENDBRANCH  34  36
ENDBRANCH  25  34
ENDBRANCH  24  25
ENDBRANCH   7  21
TORSDOF 8
ENDMDL
MODEL      242
REMARK 921   NORMALIZED FREE ENERGY PREDICTED BY IDOCK:   -4.13 KCAL/MOL
REMARK 922        TOTAL FREE ENERGY PREDICTED BY IDOCK:   -7.22 KCAL/MOL
REMARK 923 INTER-LIGAND FREE ENERGY PREDICTED BY IDOCK:   -5.78 KCAL/MOL
REMARK 924 INTRA-LIGAND FREE ENERGY PREDICTED BY IDOCK:   -1.44 KCAL/MOL
REMARK 927      BINDING AFFINITY PREDICTED BY RF-SCORE:    0.00 PKD
ROOT
HETATM    1  C   UNL     1      -9.287   5.019  68.126  1.00  0.00    -0.126 C  
HETATM    2  S   UNL     1      -9.934   5.060  66.477  1.00  0.00    -0.251 SA 
HETATM    3  C   UNL     1      -9.031   6.428  65.708  1.00  0.00    -0.052 C  
HETATM    4  C   UNL     1      -7.905   7.076  66.478  1.00  0.00    -0.106 C  
HETATM    5  O   UNL     1      -8.149   6.364  70.832  1.00  0.00    -0.119 OA 
HETATM    6  CA  UNL     1      -7.644   6.884  67.795  1.00  0.00    -0.107 C  
HETATM    7  CA  UNL     1     -10.032   5.182  69.536  1.00  0.00    -0.231 C  
HETATM    8  N   UNL     1      -8.461   6.109  68.553  1.00  0.00    -0.114 N  
HETATM    9  C   UNL     1      -6.485   7.602  68.430  1.00  0.00    -0.052 C  
HETATM   10  OXT UNL     1      -5.474   7.888  67.802  1.00  0.00    -0.031 OA 
HETATM   11  C   UNL     1      -8.683   5.898  69.870  1.00  0.00    -0.129 C  
HETATM   12  O   UNL     1      -6.577   7.924  69.729  1.00  0.00    -0.034 OA 
ENDROOT
BRANCH   4  13
HETATM   13  C   UNL     1      -7.190   8.128  65.616  1.00  0.00    -0.071 C  
BRANCH  13  14
HETATM   14  S   UNL     1      -8.418   8.931  64.548  1.00  0.00    -0.129 SA 
BRANCH  14  15
HETATM   15  C   UNL     1      -8.714  10.390  65.413  1.00  0.00    -0.180 A  
HETATM   16  N   UNL     1      -8.251  10.723  66.595  1.00  0.00    -0.134 NA 
HETATM   17  C   UNL     1     -10.316  11.446  63.764  1.00  0.00    -0.393 C  
HETATM   18  N   UNL     1      -8.888  11.901  66.922  1.00  0.00    -0.192 NA 
HETATM   19  N   UNL     1      -9.589  11.348  64.998  1.00  0.00    -0.232 NA 
HETATM   20  N   UNL     1      -9.711  12.287  65.954  1.00  0.00    -0.248 NA 
ENDBRANCH  14  15
ENDBRANCH  13  14
ENDBRANCH   4  13
BRANCH   7  21
HETATM   21  N   UNL     1     -11.207   6.031  70.041  1.00  0.00    -0.382 N  
HETATM   22  H   UNL     1     -11.716   6.475  69.277  1.00  0.00     0.000 HD 
HETATM   23  O   UNL     1     -12.763   7.059  71.322  1.00  0.00    -0.377 OA 
HETATM   24  C   UNL     1     -11.757   6.348  71.302  1.00  0.00    -0.300 C  
BRANCH  24  25
HETATM   25  C   UNL     1     -11.075   6.042  72.634  1.00  0.00    -0.275 C  
BRANCH  25  26
HETATM   26  C   UNL     1     -10.731   4.658  73.038  1.00  0.00    -0.233 A  
HETATM   27  H2  UNL     1      -8.402   1.093  72.894  1.00  0.00     0.000 HD 
HETATM   28  H1  UNL     1      -7.420   2.548  72.738  1.00  0.00     0.000 HD 
HETATM   29  C   UNL     1     -11.683   3.666  73.259  1.00  0.00     0.193 A  
HETATM   30  N   UNL     1      -9.430   4.163  73.010  1.00  0.00    -0.116 NA 
HETATM   31  N   UNL     1      -8.330   2.111  72.883  1.00  0.00    -0.058 NA 
HETATM   32  S   UNL     1     -10.958   2.118  73.300  1.00  0.00    -0.162 SA 
HETATM   33  C   UNL     1      -9.433   2.851  73.058  1.00  0.00    -0.091 A  
ENDBRANCH  25  26
BRANCH  25  34
HETATM   34  N   UNL     1     -10.917   6.869  73.632  1.00  0.00    -0.528 NA 
HETATM   35  H   UNL     1     -11.763   7.229  74.076  1.00  0.00     0.000 HD 
BRANCH  34  36
HETATM   36  O   UNL     1      -9.690   7.307  74.146  1.00  0.00    -0.268 OA 
HETATM   37  C   UNL     1      -8.894   8.189  73.397  1.00  0.00    -0.253 C  
ENDBRANCH  34  36
ENDBRANCH  25  34
ENDBRANCH  24  25
ENDBRANCH   7  21
TORSDOF 8
ENDMDL
MODEL      243
REMARK 921   NORMALIZED FREE ENERGY PREDICTED BY IDOCK:   -4.10 KCAL/MOL
REMARK 922        TOTAL FREE ENERGY PREDICTED BY IDOCK:   -7.17 KCAL/MOL
REMARK 923 INTER-LIGAND FREE ENERGY PREDICTED BY IDOCK:   -5.89 KCAL/MOL
REMARK 924 INTRA-LIGAND FREE ENERGY PREDICTED BY IDOCK:   -1.28 KCAL/MOL
REMARK 927      BINDING AFFINITY PREDICTED BY RF-SCORE:    0.00 PKD
ROOT
HETATM    1  C   UNL     1     -10.704   7.856  70.514  1.00  0.00    -0.233 C  
HETATM    2  S   UNL     1     -11.152   6.175  70.178  1.00  0.00    -0.376 SA 
HETATM    3  C   UNL     1      -9.684   5.243  70.686  1.00  0.00    -0.186 C  
HETATM    4  C   UNL     1      -8.564   5.979  71.383  1.00  0.00    -0.129 C  
HETATM    5  O   UNL     1      -8.644  10.338  70.661  1.00  0.00     0.303 OA 
HETATM    6  CA  UNL     1      -8.447   7.327  71.467  1.00  0.00    -0.113 C  
HETATM    7  CA  UNL     1     -10.608   9.118  69.531  1.00  0.00    -0.223 C  
HETATM    8  N   UNL     1      -9.339   8.137  70.842  1.00  0.00    -0.148 N  
HETATM    9  C   UNL     1      -7.271   7.921  72.193  1.00  0.00    -0.081 C  
HETATM   10  OXT UNL     1      -6.739   7.357  73.140  1.00  0.00    -0.063 OA 
HETATM   11  C   UNL     1      -9.412   9.439  70.485  1.00  0.00    -0.269 C  
HETATM   12  O   UNL     1      -6.810   9.112  71.781  1.00  0.00    -0.273 OA 
ENDROOT
BRANCH   4  13
HETATM   13  C   UNL     1      -7.470   5.002  71.837  1.00  0.00    -0.090 C  
BRANCH  13  14
HETATM   14  S   UNL     1      -6.095   5.082  70.655  1.00  0.00    -0.019 SA 
BRANCH  14  15
HETATM   15  C   UNL     1      -6.654   4.026  69.416  1.00  0.00    -0.034 A  
HETATM   16  N   UNL     1      -6.731   2.717  69.460  1.00  0.00    -0.033 NA 
HETATM   17  C   UNL     1      -7.082   5.778  67.642  1.00  0.00    -0.074 C  
HETATM   18  N   UNL     1      -7.086   2.325  68.186  1.00  0.00    -0.047 NA 
HETATM   19  N   UNL     1      -6.985   4.443  68.162  1.00  0.00    -0.055 NA 
HETATM   20  N   UNL     1      -7.237   3.373  67.386  1.00  0.00    -0.058 NA 
ENDBRANCH  14  15
ENDBRANCH  13  14
ENDBRANCH   4  13
BRANCH   7  21
HETATM   21  N   UNL     1     -10.174   9.317  68.072  1.00  0.00    -0.198 N  
HETATM   22  H   UNL     1     -10.005   8.430  67.598  1.00  0.00     0.000 HD 
HETATM   23  O   UNL     1      -9.633  10.192  66.057  1.00  0.00    -0.183 OA 
HETATM   24  C   UNL     1      -9.952  10.423  67.225  1.00  0.00    -0.188 C  
BRANCH  24  25
HETATM   25  C   UNL     1      -9.880  11.870  67.709  1.00  0.00    -0.184 C  
BRANCH  25  26
HETATM   26  C   UNL     1     -10.573  12.971  66.997  1.00  0.00    -0.257 A  
HETATM   27  H2  UNL     1     -13.683  14.617  64.595  1.00  0.00     0.000 HD 
HETATM   28  H1  UNL     1     -14.272  13.388  65.713  1.00  0.00     0.000 HD 
HETATM   29  C   UNL     1      -9.905  13.951  66.270  1.00  0.00    -0.306 A  
HETATM   30  N   UNL     1     -11.950  12.993  66.800  1.00  0.00    -0.390 NA 
HETATM   31  N   UNL     1     -13.505  13.957  65.353  1.00  0.00    -0.512 NA 
HETATM   32  S   UNL     1     -10.984  14.803  65.253  1.00  0.00    -0.399 SA 
HETATM   33  C   UNL     1     -12.269  13.851  65.858  1.00  0.00    -0.467 A  
ENDBRANCH  25  26
BRANCH  25  34
HETATM   34  N   UNL     1      -9.070  12.343  68.618  1.00  0.00    -0.392 NA 
HETATM   35  H   UNL     1      -9.453  12.488  69.553  1.00  0.00     0.000 HD 
BRANCH  34  36
HETATM   36  O   UNL     1      -7.722  12.670  68.423  1.00  0.00    -0.126 OA 
HETATM   37  C   UNL     1      -6.865  11.752  67.796  1.00  0.00    -0.090 C  
ENDBRANCH  34  36
ENDBRANCH  25  34
ENDBRANCH  24  25
ENDBRANCH   7  21
TORSDOF 8
ENDMDL
MODEL      244
REMARK 921   NORMALIZED FREE ENERGY PREDICTED BY IDOCK:   -4.09 KCAL/MOL
REMARK 922        TOTAL FREE ENERGY PREDICTED BY IDOCK:   -7.15 KCAL/MOL
REMARK 923 INTER-LIGAND FREE ENERGY PREDICTED BY IDOCK:   -6.06 KCAL/MOL
REMARK 924 INTRA-LIGAND FREE ENERGY PREDICTED BY IDOCK:   -1.09 KCAL/MOL
REMARK 927      BINDING AFFINITY PREDICTED BY RF-SCORE:    0.00 PKD
ROOT
HETATM    1  C   UNL     1     -10.171   7.278  67.868  1.00  0.00    -0.191 C  
HETATM    2  S   UNL     1     -10.736   8.081  69.343  1.00  0.00    -0.101 SA 
HETATM    3  C   UNL     1     -10.755   9.833  68.882  1.00  0.00    -0.217 C  
HETATM    4  C   UNL     1     -10.488  10.207  67.443  1.00  0.00    -0.310 C  
HETATM    5  O   UNL     1      -8.372   7.045  65.197  1.00  0.00    -0.134 OA 
HETATM    6  CA  UNL     1     -10.007   9.368  66.493  1.00  0.00    -0.269 C  
HETATM    7  CA  UNL     1      -8.886   6.351  67.621  1.00  0.00    -0.112 C  
HETATM    8  N   UNL     1      -9.657   8.095  66.810  1.00  0.00    -0.199 N  
HETATM    9  C   UNL     1      -9.788   9.883  65.097  1.00  0.00    -0.278 C  
HETATM   10  OXT UNL     1     -10.481  10.769  64.614  1.00  0.00    -0.344 OA 
HETATM   11  C   UNL     1      -8.937   7.098  66.249  1.00  0.00    -0.155 C  
HETATM   12  O   UNL     1      -8.803   9.336  64.369  1.00  0.00    -0.204 OA 
ENDROOT
BRANCH   4  13
HETATM   13  C   UNL     1     -10.666  11.717  67.231  1.00  0.00    -0.237 C  
BRANCH  13  14
HETATM   14  S   UNL     1     -11.718  12.368  68.560  1.00  0.00    -0.316 SA 
BRANCH  14  15
HETATM   15  C   UNL     1     -11.471  14.063  68.384  1.00  0.00    -0.306 A  
HETATM   16  N   UNL     1     -11.168  14.714  67.286  1.00  0.00    -0.325 NA 
HETATM   17  C   UNL     1     -11.747  14.702  70.817  1.00  0.00    -0.279 C  
HETATM   18  N   UNL     1     -10.922  16.012  67.682  1.00  0.00    -0.313 NA 
HETATM   19  N   UNL     1     -11.449  14.934  69.431  1.00  0.00    -0.281 NA 
HETATM   20  N   UNL     1     -11.086  16.153  68.992  1.00  0.00    -0.316 NA 
ENDBRANCH  14  15
ENDBRANCH  13  14
ENDBRANCH   4  13
BRANCH   7  21
HETATM   21  N   UNL     1      -7.446   6.342  68.153  1.00  0.00    -0.092 N  
HETATM   22  H   UNL     1      -6.809   6.854  67.543  1.00  0.00     0.000 HD 
HETATM   23  O   UNL     1      -5.584   6.035  69.399  1.00  0.00    -0.011 OA 
HETATM   24  C   UNL     1      -6.787   5.801  69.277  1.00  0.00    -0.062 C  
BRANCH  24  25
HETATM   25  C   UNL     1      -7.415   4.785  70.229  1.00  0.00    -0.051 C  
BRANCH  25  26
HETATM   26  C   UNL     1      -7.970   5.183  71.546  1.00  0.00    -0.113 A  
HETATM   27  H2  UNL     1      -9.301   8.008  74.444  1.00  0.00     0.000 HD 
HETATM   28  H1  UNL     1      -9.732   8.473  72.800  1.00  0.00     0.000 HD 
HETATM   29  C   UNL     1      -7.601   4.581  72.745  1.00  0.00    -0.086 A  
HETATM   30  N   UNL     1      -8.728   6.335  71.728  1.00  0.00    -0.133 NA 
HETATM   31  N   UNL     1      -9.316   7.801  73.444  1.00  0.00    -0.265 NA 
HETATM   32  S   UNL     1      -8.092   5.526  74.082  1.00  0.00    -0.105 SA 
HETATM   33  C   UNL     1      -8.790   6.652  73.001  1.00  0.00    -0.127 A  
ENDBRANCH  25  26
BRANCH  25  34
HETATM   34  N   UNL     1      -7.350   3.485  70.128  1.00  0.00    -0.041 NA 
HETATM   35  H   UNL     1      -7.777   2.937  70.876  1.00  0.00     0.000 HD 
BRANCH  34  36
HETATM   36  O   UNL     1      -6.746   2.775  69.081  1.00  0.00    -0.033 OA 
HETATM   37  C   UNL     1      -7.446   2.568  67.882  1.00  0.00    -0.056 C  
ENDBRANCH  34  36
ENDBRANCH  25  34
ENDBRANCH  24  25
ENDBRANCH   7  21
TORSDOF 8
ENDMDL
MODEL      245
REMARK 921   NORMALIZED FREE ENERGY PREDICTED BY IDOCK:   -4.06 KCAL/MOL
REMARK 922        TOTAL FREE ENERGY PREDICTED BY IDOCK:   -7.12 KCAL/MOL
REMARK 923 INTER-LIGAND FREE ENERGY PREDICTED BY IDOCK:   -5.66 KCAL/MOL
REMARK 924 INTRA-LIGAND FREE ENERGY PREDICTED BY IDOCK:   -1.46 KCAL/MOL
REMARK 927      BINDING AFFINITY PREDICTED BY RF-SCORE:    0.00 PKD
ROOT
HETATM    1  C   UNL     1     -10.670   9.426  68.935  1.00  0.00    -0.178 C  
HETATM    2  S   UNL     1     -10.955   9.145  67.208  1.00  0.00     0.312 SA 
HETATM    3  C   UNL     1     -10.580   7.385  67.005  1.00  0.00    -0.344 C  
HETATM    4  C   UNL     1     -10.304   6.556  68.237  1.00  0.00    -0.223 C  
HETATM    5  O   UNL     1      -9.115   8.986  71.730  1.00  0.00    -0.340 OA 
HETATM    6  CA  UNL     1     -10.084   7.050  69.480  1.00  0.00    -0.173 C  
HETATM    7  CA  UNL     1      -9.657  10.428  69.668  1.00  0.00    -0.109 C  
HETATM    8  N   UNL     1     -10.031   8.390  69.689  1.00  0.00    -0.189 N  
HETATM    9  C   UNL     1      -9.819   6.099  70.615  1.00  0.00    -0.179 C  
HETATM   10  OXT UNL     1     -10.305   4.977  70.650  1.00  0.00    -0.247 OA 
HETATM   11  C   UNL     1      -9.597   9.223  70.662  1.00  0.00    -0.273 C  
HETATM   12  O   UNL     1      -9.029   6.516  71.616  1.00  0.00    -0.142 OA 
ENDROOT
BRANCH   4  13
HETATM   13  C   UNL     1     -10.128   5.075  67.868  1.00  0.00    -0.113 C  
BRANCH  13  14
HETATM   14  S   UNL     1      -8.658   4.912  66.817  1.00  0.00    -0.107 SA 
BRANCH  14  15
HETATM   15  C   UNL     1      -9.369   4.480  65.309  1.00  0.00    -0.160 A  
HETATM   16  N   UNL     1     -10.636   4.239  65.066  1.00  0.00    -0.213 NA 
HETATM   17  C   UNL     1      -7.240   4.368  63.947  1.00  0.00    -0.054 C  
HETATM   18  N   UNL     1     -10.682   3.786  63.764  1.00  0.00    -0.268 NA 
HETATM   19  N   UNL     1      -8.648   4.219  64.183  1.00  0.00    -0.110 NA 
HETATM   20  N   UNL     1      -9.471   3.766  63.219  1.00  0.00    -0.122 NA 
ENDBRANCH  14  15
ENDBRANCH  13  14
ENDBRANCH   4  13
BRANCH   7  21
HETATM   21  N   UNL     1      -8.235  10.928  69.375  1.00  0.00    -0.376 N  
HETATM   22  H   UNL     1      -7.656  10.952  70.214  1.00  0.00     0.000 HD 
HETATM   23  O   UNL     1      -6.347  11.666  68.372  1.00  0.00    -0.049 OA 
HETATM   24  C   UNL     1      -7.533  11.362  68.230  1.00  0.00    -0.101 C  
BRANCH  24  25
HETATM   25  C   UNL     1      -8.193  11.672  66.888  1.00  0.00    -0.169 C  
BRANCH  25  26
HETATM   26  C   UNL     1      -8.338  10.644  65.830  1.00  0.00    -0.162 A  
HETATM   27  H2  UNL     1      -6.894   7.587  63.237  1.00  0.00     0.000 HD 
HETATM   28  H1  UNL     1      -6.140   7.534  64.830  1.00  0.00     0.000 HD 
HETATM   29  C   UNL     1      -9.113  10.825  64.688  1.00  0.00    -0.201 A  
HETATM   30  N   UNL     1      -7.538   9.507  65.767  1.00  0.00    -0.099 NA 
HETATM   31  N   UNL     1      -6.817   7.948  64.189  1.00  0.00    -0.060 NA 
HETATM   32  S   UNL     1      -8.743   9.651  63.502  1.00  0.00    -0.222 SA 
HETATM   33  C   UNL     1      -7.608   8.957  64.576  1.00  0.00    -0.109 A  
ENDBRANCH  25  26
BRANCH  25  34
HETATM   34  N   UNL     1      -8.493  12.857  66.428  1.00  0.00    -0.379 NA 
HETATM   35  H   UNL     1      -7.890  13.240  65.699  1.00  0.00     0.000 HD 
BRANCH  34  36
HETATM   36  O   UNL     1      -9.570  13.649  66.848  1.00  0.00    -0.245 OA 
HETATM   37  C   UNL     1     -10.819  13.056  67.093  1.00  0.00    -0.260 C  
ENDBRANCH  34  36
ENDBRANCH  25  34
ENDBRANCH  24  25
ENDBRANCH   7  21
TORSDOF 8
ENDMDL
MODEL      246
REMARK 921   NORMALIZED FREE ENERGY PREDICTED BY IDOCK:   -4.06 KCAL/MOL
REMARK 922        TOTAL FREE ENERGY PREDICTED BY IDOCK:   -7.11 KCAL/MOL
REMARK 923 INTER-LIGAND FREE ENERGY PREDICTED BY IDOCK:   -5.96 KCAL/MOL
REMARK 924 INTRA-LIGAND FREE ENERGY PREDICTED BY IDOCK:   -1.15 KCAL/MOL
REMARK 927      BINDING AFFINITY PREDICTED BY RF-SCORE:    0.00 PKD
ROOT
HETATM    1  C   UNL     1     -10.475  12.145  67.285  1.00  0.00    -0.218 C  
HETATM    2  S   UNL     1     -11.479  13.421  66.575  1.00  0.00    -0.357 SA 
HETATM    3  C   UNL     1     -10.577  14.937  66.983  1.00  0.00    -0.289 C  
HETATM    4  C   UNL     1      -9.212  14.819  67.618  1.00  0.00    -0.191 C  
HETATM    5  O   UNL     1      -8.528  10.900  69.540  1.00  0.00     0.001 OA 
HETATM    6  CA  UNL     1      -8.681  13.680  68.127  1.00  0.00    -0.177 C  
HETATM    7  CA  UNL     1     -10.829  11.046  68.397  1.00  0.00    -0.220 C  
HETATM    8  N   UNL     1      -9.408  12.535  68.158  1.00  0.00    -0.207 N  
HETATM    9  C   UNL     1      -7.305  13.716  68.733  1.00  0.00    -0.093 C  
HETATM   10  OXT UNL     1      -6.439  14.485  68.338  1.00  0.00    -0.087 OA 
HETATM   11  C   UNL     1      -9.342  11.337  68.782  1.00  0.00    -0.128 C  
HETATM   12  O   UNL     1      -7.034  12.862  69.733  1.00  0.00     0.158 OA 
ENDROOT
BRANCH   4  13
HETATM   13  C   UNL     1      -8.563  16.203  67.775  1.00  0.00    -0.167 C  
BRANCH  13  14
HETATM   14  S   UNL     1      -8.610  17.049  66.170  1.00  0.00    -0.149 SA 
BRANCH  14  15
HETATM   15  C   UNL     1      -7.521  18.354  66.446  1.00  0.00    -0.247 A  
HETATM   16  N   UNL     1      -7.820  19.623  66.595  1.00  0.00    -0.272 NA 
HETATM   17  C   UNL     1      -5.366  17.032  66.322  1.00  0.00     0.096 C  
HETATM   18  N   UNL     1      -6.611  20.285  66.632  1.00  0.00    -0.215 NA 
HETATM   19  N   UNL     1      -6.165  18.221  66.425  1.00  0.00    -0.174 NA 
HETATM   20  N   UNL     1      -5.595  19.437  66.524  1.00  0.00    -0.162 NA 
ENDBRANCH  14  15
ENDBRANCH  13  14
ENDBRANCH   4  13
BRANCH   7  21
HETATM   21  N   UNL     1     -11.699  11.034  69.661  1.00  0.00    -0.298 N  
HETATM   22  H   UNL     1     -12.174  11.924  69.808  1.00  0.00     0.000 HD 
HETATM   23  O   UNL     1     -12.802  10.438  71.544  1.00  0.00    -0.389 OA 
HETATM   24  C   UNL     1     -12.004  10.095  70.670  1.00  0.00    -0.332 C  
BRANCH  24  25
HETATM   25  C   UNL     1     -11.262   8.774  70.861  1.00  0.00    -0.270 C  
BRANCH  25  26
HETATM   26  C   UNL     1     -10.830   8.304  72.199  1.00  0.00    -0.320 A  
HETATM   27  H2  UNL     1      -7.940   7.480  75.219  1.00  0.00     0.000 HD 
HETATM   28  H1  UNL     1      -7.574   8.949  74.317  1.00  0.00     0.000 HD 
HETATM   29  C   UNL     1     -11.356   7.174  72.819  1.00  0.00    -0.245 A  
HETATM   30  N   UNL     1      -9.708   8.807  72.851  1.00  0.00    -0.017 NA 
HETATM   31  N   UNL     1      -8.194   8.160  74.502  1.00  0.00    -0.215 NA 
HETATM   32  S   UNL     1     -10.374   6.681  74.129  1.00  0.00    -0.208 SA 
HETATM   33  C   UNL     1      -9.335   8.003  73.820  1.00  0.00    -0.038 A  
ENDBRANCH  25  26
BRANCH  25  34
HETATM   34  N   UNL     1     -10.737   8.037  69.919  1.00  0.00    -0.247 NA 
HETATM   35  H   UNL     1     -11.309   7.863  69.092  1.00  0.00     0.000 HD 
BRANCH  34  36
HETATM   36  O   UNL     1      -9.459   7.464  69.945  1.00  0.00    -0.155 OA 
HETATM   37  C   UNL     1      -8.632   7.551  68.813  1.00  0.00    -0.129 C  
ENDBRANCH  34  36
ENDBRANCH  25  34
ENDBRANCH  24  25
ENDBRANCH   7  21
TORSDOF 8
ENDMDL
MODEL      247
REMARK 921   NORMALIZED FREE ENERGY PREDICTED BY IDOCK:   -4.03 KCAL/MOL
REMARK 922        TOTAL FREE ENERGY PREDICTED BY IDOCK:   -7.08 KCAL/MOL
REMARK 923 INTER-LIGAND FREE ENERGY PREDICTED BY IDOCK:   -6.01 KCAL/MOL
REMARK 924 INTRA-LIGAND FREE ENERGY PREDICTED BY IDOCK:   -1.07 KCAL/MOL
REMARK 927      BINDING AFFINITY PREDICTED BY RF-SCORE:    0.00 PKD
ROOT
HETATM    1  C   UNL     1      -7.953  10.516  67.717  1.00  0.00    -0.106 C  
HETATM    2  S   UNL     1      -8.120  10.497  69.481  1.00  0.00    -0.032 SA 
HETATM    3  C   UNL     1      -8.371   8.744  69.857  1.00  0.00    -0.125 C  
HETATM    4  C   UNL     1      -8.226   7.735  68.741  1.00  0.00    -0.128 C  
HETATM    5  O   UNL     1      -8.650   9.525  64.724  1.00  0.00    -0.153 OA 
HETATM    6  CA  UNL     1      -8.148   8.035  67.421  1.00  0.00    -0.122 C  
HETATM    7  CA  UNL     1      -8.819  11.276  66.602  1.00  0.00    -0.175 C  
HETATM    8  N   UNL     1      -8.267   9.318  66.997  1.00  0.00    -0.115 N  
HETATM    9  C   UNL     1      -8.008   6.921  66.420  1.00  0.00    -0.106 C  
HETATM   10  OXT UNL     1      -7.429   5.876  66.686  1.00  0.00    -0.084 OA 
HETATM   11  C   UNL     1      -8.497   9.957  65.828  1.00  0.00    -0.135 C  
HETATM   12  O   UNL     1      -8.534   7.100  65.199  1.00  0.00    -0.111 OA 
ENDROOT
BRANCH   4  13
HETATM   13  C   UNL     1      -8.357   6.303  69.281  1.00  0.00    -0.117 C  
BRANCH  13  14
HETATM   14  S   UNL     1      -9.123   6.373  70.925  1.00  0.00    -0.150 SA 
BRANCH  14  15
HETATM   15  C   UNL     1      -8.249   5.144  71.755  1.00  0.00    -0.117 A  
HETATM   16  N   UNL     1      -7.063   5.245  72.309  1.00  0.00    -0.083 NA 
HETATM   17  C   UNL     1      -9.895   3.256  71.401  1.00  0.00    -0.124 C  
HETATM   18  N   UNL     1      -6.729   3.966  72.704  1.00  0.00    -0.039 NA 
HETATM   19  N   UNL     1      -8.659   3.848  71.831  1.00  0.00    -0.097 NA 
HETATM   20  N   UNL     1      -7.697   3.106  72.410  1.00  0.00    -0.057 NA 
ENDBRANCH  14  15
ENDBRANCH  13  14
ENDBRANCH   4  13
BRANCH   7  21
HETATM   21  N   UNL     1     -10.307  11.619  66.444  1.00  0.00    -0.223 N  
HETATM   22  H   UNL     1     -10.763  11.037  65.742  1.00  0.00     0.000 HD 
HETATM   23  O   UNL     1     -12.376  12.506  66.667  1.00  0.00    -0.483 OA 
HETATM   24  C   UNL     1     -11.200  12.542  67.030  1.00  0.00    -0.302 C  
BRANCH  24  25
HETATM   25  C   UNL     1     -10.765  13.704  67.922  1.00  0.00    -0.247 C  
BRANCH  25  26
HETATM   26  C   UNL     1     -11.443  14.003  69.206  1.00  0.00    -0.295 A  
HETATM   27  H2  UNL     1     -13.930  13.059  72.534  1.00  0.00     0.000 HD 
HETATM   28  H1  UNL     1     -12.943  11.692  72.019  1.00  0.00     0.000 HD 
HETATM   29  C   UNL     1     -12.053  15.223  69.482  1.00  0.00    -0.290 A  
HETATM   30  N   UNL     1     -11.732  13.026  70.154  1.00  0.00    -0.231 NA 
HETATM   31  N   UNL     1     -13.210  12.672  71.923  1.00  0.00    -0.448 NA 
HETATM   32  S   UNL     1     -13.079  15.102  70.845  1.00  0.00    -0.429 SA 
HETATM   33  C   UNL     1     -12.631  13.460  71.007  1.00  0.00    -0.343 A  
ENDBRANCH  25  26
BRANCH  25  34
HETATM   34  N   UNL     1      -9.945  14.666  67.595  1.00  0.00    -0.226 NA 
HETATM   35  H   UNL     1     -10.010  15.030  66.644  1.00  0.00     0.000 HD 
BRANCH  34  36
HETATM   36  O   UNL     1      -8.984  15.244  68.436  1.00  0.00    -0.174 OA 
HETATM   37  C   UNL     1      -7.806  14.541  68.735  1.00  0.00    -0.145 C  
ENDBRANCH  34  36
ENDBRANCH  25  34
ENDBRANCH  24  25
ENDBRANCH   7  21
TORSDOF 8
ENDMDL
MODEL      248
REMARK 921   NORMALIZED FREE ENERGY PREDICTED BY IDOCK:   -3.93 KCAL/MOL
REMARK 922        TOTAL FREE ENERGY PREDICTED BY IDOCK:   -6.93 KCAL/MOL
REMARK 923 INTER-LIGAND FREE ENERGY PREDICTED BY IDOCK:   -6.56 KCAL/MOL
REMARK 924 INTRA-LIGAND FREE ENERGY PREDICTED BY IDOCK:   -0.37 KCAL/MOL
REMARK 927      BINDING AFFINITY PREDICTED BY RF-SCORE:    0.00 PKD
ROOT
HETATM    1  C   UNL     1     -10.586  18.115  67.053  1.00  0.00    -0.328 C  
HETATM    2  S   UNL     1     -10.933  19.583  67.982  1.00  0.00     0.357 SA 
HETATM    3  C   UNL     1      -9.314  20.382  68.121  1.00  0.00    -0.019 C  
HETATM    4  C   UNL     1      -8.150  19.800  67.352  1.00  0.00    -0.332 C  
HETATM    5  O   UNL     1      -8.777  15.581  66.197  1.00  0.00    -0.304 OA 
HETATM    6  CA  UNL     1      -8.145  18.591  66.739  1.00  0.00    -0.254 C  
HETATM    7  CA  UNL     1     -10.805  16.573  67.432  1.00  0.00    -0.202 C  
HETATM    8  N   UNL     1      -9.215  17.762  66.839  1.00  0.00    -0.251 N  
HETATM    9  C   UNL     1      -6.908  18.140  66.011  1.00  0.00    -0.282 C  
HETATM   10  OXT UNL     1      -6.148  18.930  65.467  1.00  0.00    -0.196 OA 
HETATM   11  C   UNL     1      -9.478  16.455  66.614  1.00  0.00    -0.256 C  
HETATM   12  O   UNL     1      -6.651  16.824  65.958  1.00  0.00    -0.033 OA 
ENDROOT
BRANCH   4  13
HETATM   13  C   UNL     1      -6.902  20.681  67.503  1.00  0.00    -0.340 C  
BRANCH  13  14
HETATM   14  S   UNL     1      -6.550  20.888  69.272  1.00  0.00     0.877 SA 
BRANCH  14  15
HETATM   15  C   UNL     1      -5.853  19.361  69.656  1.00  0.00    -0.251 A  
HETATM   16  N   UNL     1      -5.549  18.392  68.825  1.00  0.00    -0.185 NA 
HETATM   17  C   UNL     1      -5.788  19.639  72.170  1.00  0.00     0.122 C  
HETATM   18  N   UNL     1      -5.170  17.330  69.619  1.00  0.00    -0.161 NA 
HETATM   19  N   UNL     1      -5.638  18.930  70.930  1.00  0.00    -0.199 NA 
HETATM   20  N   UNL     1      -5.227  17.649  70.907  1.00  0.00    -0.267 NA 
ENDBRANCH  14  15
ENDBRANCH  13  14
ENDBRANCH   4  13
BRANCH   7  21
HETATM   21  N   UNL     1     -10.690  15.756  68.727  1.00  0.00    -0.240 N  
HETATM   22  H   UNL     1     -10.296  16.302  69.492  1.00  0.00     0.000 HD 
HETATM   23  O   UNL     1     -10.794  14.128  70.295  1.00  0.00     0.148 OA 
HETATM   24  C   UNL     1     -10.995  14.434  69.118  1.00  0.00    -0.265 C  
BRANCH  24  25
HETATM   25  C   UNL     1     -11.359  13.316  68.143  1.00  0.00    -0.288 C  
BRANCH  25  26
HETATM   26  C   UNL     1     -11.084  13.423  66.690  1.00  0.00    -0.295 A  
HETATM   27  H2  UNL     1     -12.207  13.855  62.603  1.00  0.00     0.000 HD 
HETATM   28  H1  UNL     1     -13.203  14.829  63.683  1.00  0.00     0.000 HD 
HETATM   29  C   UNL     1     -10.134  12.648  66.033  1.00  0.00    -0.262 A  
HETATM   30  N   UNL     1     -11.903  14.133  65.817  1.00  0.00    -0.367 NA 
HETATM   31  N   UNL     1     -12.420  14.191  63.543  1.00  0.00    -0.763 NA 
HETATM   32  S   UNL     1     -10.353  12.714  64.338  1.00  0.00    -0.345 SA 
HETATM   33  C   UNL     1     -11.665  13.785  64.573  1.00  0.00    -0.407 A  
ENDBRANCH  25  26
BRANCH  25  34
HETATM   34  N   UNL     1     -12.116  12.283  68.398  1.00  0.00    -0.313 NA 
HETATM   35  H   UNL     1     -13.075  12.312  68.050  1.00  0.00     0.000 HD 
BRANCH  34  36
HETATM   36  O   UNL     1     -11.727  11.138  69.107  1.00  0.00    -0.284 OA 
HETATM   37  C   UNL     1     -12.054  11.016  70.466  1.00  0.00    -0.377 C  
ENDBRANCH  34  36
ENDBRANCH  25  34
ENDBRANCH  24  25
ENDBRANCH   7  21
TORSDOF 8
ENDMDL
MODEL      249
REMARK 921   NORMALIZED FREE ENERGY PREDICTED BY IDOCK:   -3.92 KCAL/MOL
REMARK 922        TOTAL FREE ENERGY PREDICTED BY IDOCK:   -6.91 KCAL/MOL
REMARK 923 INTER-LIGAND FREE ENERGY PREDICTED BY IDOCK:   -6.04 KCAL/MOL
REMARK 924 INTRA-LIGAND FREE ENERGY PREDICTED BY IDOCK:   -0.87 KCAL/MOL
REMARK 927      BINDING AFFINITY PREDICTED BY RF-SCORE:    0.00 PKD
ROOT
HETATM    1  C   UNL     1      -8.673  12.543  68.490  1.00  0.00    -0.051 C  
HETATM    2  S   UNL     1     -10.113  11.519  68.630  1.00  0.00    -0.182 SA 
HETATM    3  C   UNL     1      -9.611   9.981  67.817  1.00  0.00    -0.148 C  
HETATM    4  C   UNL     1      -8.171   9.825  67.387  1.00  0.00    -0.114 C  
HETATM    5  O   UNL     1      -6.058  13.683  66.978  1.00  0.00    -0.082 OA 
HETATM    6  CA  UNL     1      -7.255  10.823  67.344  1.00  0.00    -0.093 C  
HETATM    7  CA  UNL     1      -8.483  13.973  67.789  1.00  0.00    -0.184 C  
HETATM    8  N   UNL     1      -7.611  12.099  67.638  1.00  0.00    -0.129 N  
HETATM    9  C   UNL     1      -5.854  10.517  66.890  1.00  0.00    -0.058 C  
HETATM   10  OXT UNL     1      -5.331   9.427  67.079  1.00  0.00    -0.038 OA 
HETATM   11  C   UNL     1      -7.092  13.336  67.465  1.00  0.00    -0.149 C  
HETATM   12  O   UNL     1      -5.166  11.487  66.268  1.00  0.00    -0.234 OA 
ENDROOT
BRANCH   4  13
HETATM   13  C   UNL     1      -7.919   8.416  66.830  1.00  0.00    -0.099 C  
BRANCH  13  14
HETATM   14  S   UNL     1      -9.342   7.933  65.812  1.00  0.00     0.212 SA 
BRANCH  14  15
HETATM   15  C   UNL     1      -9.310   9.147  64.592  1.00  0.00     0.164 A  
HETATM   16  N   UNL     1     -10.139  10.154  64.447  1.00  0.00    -0.191 NA 
HETATM   17  C   UNL     1      -7.352   8.246  63.266  1.00  0.00    -0.105 C  
HETATM   18  N   UNL     1      -9.798  10.745  63.249  1.00  0.00    -0.337 NA 
HETATM   19  N   UNL     1      -8.453   9.129  63.533  1.00  0.00    -0.197 NA 
HETATM   20  N   UNL     1      -8.771  10.122  62.682  1.00  0.00    -0.181 NA 
ENDBRANCH  14  15
ENDBRANCH  13  14
ENDBRANCH   4  13
BRANCH   7  21
HETATM   21  N   UNL     1      -9.054  14.639  66.530  1.00  0.00    -0.372 N  
HETATM   22  H   UNL     1      -8.565  14.345  65.685  1.00  0.00     0.000 HD 
HETATM   23  O   UNL     1     -10.291  15.850  65.073  1.00  0.00    -0.508 OA 
HETATM   24  C   UNL     1     -10.088  15.558  66.253  1.00  0.00    -0.295 C  
BRANCH  24  25
HETATM   25  C   UNL     1     -10.827  16.362  67.322  1.00  0.00    -0.194 C  
BRANCH  25  26
HETATM   26  C   UNL     1     -11.373  15.724  68.544  1.00  0.00    -0.374 A  
HETATM   27  H2  UNL     1     -11.261  14.596  72.651  1.00  0.00     0.000 HD 
HETATM   28  H1  UNL     1     -10.567  16.191  72.370  1.00  0.00     0.000 HD 
HETATM   29  C   UNL     1     -12.032  14.498  68.538  1.00  0.00    -0.286 A  
HETATM   30  N   UNL     1     -11.078  16.174  69.828  1.00  0.00    -0.334 NA 
HETATM   31  N   UNL     1     -11.039  15.360  72.013  1.00  0.00    -0.278 NA 
HETATM   32  S   UNL     1     -12.161  13.863  70.121  1.00  0.00    -0.351 SA 
HETATM   33  C   UNL     1     -11.371  15.256  70.720  1.00  0.00    -0.331 A  
ENDBRANCH  25  26
BRANCH  25  34
HETATM   34  N   UNL     1     -11.252  17.591  67.211  1.00  0.00     0.160 NA 
HETATM   35  H   UNL     1     -12.243  17.725  67.006  1.00  0.00     0.000 HD 
BRANCH  34  36
HETATM   36  O   UNL     1     -10.467  18.744  67.348  1.00  0.00    -0.387 OA 
HETATM   37  C   UNL     1      -9.183  18.651  67.907  1.00  0.00    -0.294 C  
ENDBRANCH  34  36
ENDBRANCH  25  34
ENDBRANCH  24  25
ENDBRANCH   7  21
TORSDOF 8
ENDMDL
MODEL      250
REMARK 921   NORMALIZED FREE ENERGY PREDICTED BY IDOCK:   -3.91 KCAL/MOL
REMARK 922        TOTAL FREE ENERGY PREDICTED BY IDOCK:   -6.90 KCAL/MOL
REMARK 923 INTER-LIGAND FREE ENERGY PREDICTED BY IDOCK:   -5.43 KCAL/MOL
REMARK 924 INTRA-LIGAND FREE ENERGY PREDICTED BY IDOCK:   -1.47 KCAL/MOL
REMARK 927      BINDING AFFINITY PREDICTED BY RF-SCORE:    0.00 PKD
ROOT
HETATM    1  C   UNL     1      -8.649   7.108  67.789  1.00  0.00    -0.126 C  
HETATM    2  S   UNL     1      -7.422   7.552  68.989  1.00  0.00    -0.097 SA 
HETATM    3  C   UNL     1      -6.495   6.015  69.225  1.00  0.00    -0.043 C  
HETATM    4  C   UNL     1      -6.798   4.840  68.326  1.00  0.00    -0.055 C  
HETATM    5  O   UNL     1     -10.774   5.102  66.416  1.00  0.00    -0.308 OA 
HETATM    6  CA  UNL     1      -7.866   4.745  67.496  1.00  0.00    -0.094 C  
HETATM    7  CA  UNL     1     -10.249   7.154  67.878  1.00  0.00    -0.187 C  
HETATM    8  N   UNL     1      -8.808   5.721  67.471  1.00  0.00    -0.107 N  
HETATM    9  C   UNL     1      -8.040   3.508  66.658  1.00  0.00    -0.092 C  
HETATM   10  OXT UNL     1      -7.086   2.858  66.250  1.00  0.00    -0.055 OA 
HETATM   11  C   UNL     1     -10.072   5.865  67.011  1.00  0.00    -0.183 C  
HETATM   12  O   UNL     1      -9.289   3.125  66.351  1.00  0.00    -0.157 OA 
ENDROOT
BRANCH   4  13
HETATM   13  C   UNL     1      -5.831   3.679  68.602  1.00  0.00    -0.023 C  
BRANCH  13  14
HETATM   14  S   UNL     1      -6.653   2.491  69.701  1.00  0.00    -0.033 SA 
BRANCH  14  15
HETATM   15  C   UNL     1      -6.463   3.260  71.230  1.00  0.00    -0.019 A  
HETATM   16  N   UNL     1      -5.396   3.262  71.994  1.00  0.00     0.000 NA 
HETATM   17  C   UNL     1      -8.818   4.157  71.456  1.00  0.00    -0.112 C  
HETATM   18  N   UNL     1      -5.783   3.871  73.169  1.00  0.00    -0.003 NA 
HETATM   19  N   UNL     1      -7.478   3.881  71.893  1.00  0.00    -0.059 NA 
HETATM   20  N   UNL     1      -7.056   4.248  73.117  1.00  0.00    -0.066 NA 
ENDBRANCH  14  15
ENDBRANCH  13  14
ENDBRANCH   4  13
BRANCH   7  21
HETATM   21  N   UNL     1     -11.274   6.894  68.990  1.00  0.00    -0.505 N  
HETATM   22  H   UNL     1     -11.864   6.088  68.788  1.00  0.00     0.000 HD 
HETATM   23  O   UNL     1     -12.493   6.973  70.894  1.00  0.00    -0.366 OA 
HETATM   24  C   UNL     1     -11.601   7.496  70.224  1.00  0.00    -0.091 C  
BRANCH  24  25
HETATM   25  C   UNL     1     -11.070   8.854  70.680  1.00  0.00    -0.262 C  
BRANCH  25  26
HETATM   26  C   UNL     1     -11.004  10.018  69.764  1.00  0.00    -0.276 A  
HETATM   27  H2  UNL     1      -9.033  13.268  67.838  1.00  0.00     0.000 HD 
HETATM   28  H1  UNL     1      -7.990  11.859  68.022  1.00  0.00     0.000 HD 
HETATM   29  C   UNL     1     -12.019  10.965  69.655  1.00  0.00    -0.343 A  
HETATM   30  N   UNL     1      -9.837  10.397  69.107  1.00  0.00    -0.214 NA 
HETATM   31  N   UNL     1      -8.903  12.299  68.133  1.00  0.00    -0.184 NA 
HETATM   32  S   UNL     1     -11.467  12.366  68.846  1.00  0.00    -0.329 SA 
HETATM   33  C   UNL     1      -9.936  11.628  68.660  1.00  0.00    -0.184 A  
ENDBRANCH  25  26
BRANCH  25  34
HETATM   34  N   UNL     1     -10.432   9.102  71.792  1.00  0.00    -0.350 NA 
HETATM   35  H   UNL     1     -10.982   9.450  72.577  1.00  0.00     0.000 HD 
BRANCH  34  36
HETATM   36  O   UNL     1      -9.056   8.933  72.001  1.00  0.00    -0.353 OA 
HETATM   37  C   UNL     1      -8.594   7.838  72.749  1.00  0.00    -0.153 C  
ENDBRANCH  34  36
ENDBRANCH  25  34
ENDBRANCH  24  25
ENDBRANCH   7  21
TORSDOF 8
ENDMDL
MODEL      251
REMARK 921   NORMALIZED FREE ENERGY PREDICTED BY IDOCK:   -3.79 KCAL/MOL
REMARK 922        TOTAL FREE ENERGY PREDICTED BY IDOCK:   -6.72 KCAL/MOL
REMARK 923 INTER-LIGAND FREE ENERGY PREDICTED BY IDOCK:   -6.56 KCAL/MOL
REMARK 924 INTRA-LIGAND FREE ENERGY PREDICTED BY IDOCK:   -0.16 KCAL/MOL
REMARK 927      BINDING AFFINITY PREDICTED BY RF-SCORE:    0.00 PKD
ROOT
HETATM    1  C   UNL     1      -9.261  13.166  66.481  1.00  0.00    -0.177 C  
HETATM    2  S   UNL     1     -10.025  14.364  65.422  1.00  0.00    -0.245 SA 
HETATM    3  C   UNL     1      -9.017  15.846  65.673  1.00  0.00     0.168 C  
HETATM    4  C   UNL     1      -7.759  15.735  66.503  1.00  0.00    -0.018 C  
HETATM    5  O   UNL     1      -7.752  12.213  69.171  1.00  0.00     0.055 OA 
HETATM    6  CA  UNL     1      -7.424  14.674  67.277  1.00  0.00    -0.117 C  
HETATM    7  CA  UNL     1      -9.867  12.335  67.711  1.00  0.00    -0.201 C  
HETATM    8  N   UNL     1      -8.272  13.622  67.410  1.00  0.00    -0.177 N  
HETATM    9  C   UNL     1      -6.136  14.706  68.053  1.00  0.00    -0.156 C  
HETATM   10  OXT UNL     1      -5.148  15.307  67.651  1.00  0.00    -0.267 OA 
HETATM   11  C   UNL     1      -8.415  12.566  68.242  1.00  0.00    -0.165 C  
HETATM   12  O   UNL     1      -6.083  14.040  69.217  1.00  0.00    -0.089 OA 
ENDROOT
BRANCH   4  13
HETATM   13  C   UNL     1      -6.985  17.062  66.500  1.00  0.00    -0.256 C  
BRANCH  13  14
HETATM   14  S   UNL     1      -7.269  17.902  68.084  1.00  0.00    -0.239 SA 
BRANCH  14  15
HETATM   15  C   UNL     1      -8.983  17.798  68.216  1.00  0.00    -0.277 A  
HETATM   16  N   UNL     1      -9.674  17.074  69.065  1.00  0.00    -0.245 NA 
HETATM   17  C   UNL     1      -9.568  19.303  66.268  1.00  0.00    -0.362 C  
HETATM   18  N   UNL     1     -10.991  17.206  68.677  1.00  0.00    -0.246 NA 
HETATM   19  N   UNL     1      -9.844  18.393  67.344  1.00  0.00    -0.303 NA 
HETATM   20  N   UNL     1     -11.102  18.006  67.623  1.00  0.00    -0.077 NA 
ENDBRANCH  14  15
ENDBRANCH  13  14
ENDBRANCH   4  13
BRANCH   7  21
HETATM   21  N   UNL     1     -10.880  12.641  68.823  1.00  0.00    -0.266 N  
HETATM   22  H   UNL     1     -11.165  13.620  68.823  1.00  0.00     0.000 HD 
HETATM   23  O   UNL     1     -12.327  12.494  70.556  1.00  0.00    -0.332 OA 
HETATM   24  C   UNL     1     -11.513  11.902  69.845  1.00  0.00    -0.186 C  
BRANCH  24  25
HETATM   25  C   UNL     1     -11.108  10.487  70.254  1.00  0.00    -0.285 C  
BRANCH  25  26
HETATM   26  C   UNL     1     -10.431   9.562  69.313  1.00  0.00    -0.212 A  
HETATM   27  H2  UNL     1     -10.287   6.244  66.644  1.00  0.00     0.000 HD 
HETATM   28  H1  UNL     1     -11.799   7.142  66.524  1.00  0.00     0.000 HD 
HETATM   29  C   UNL     1      -9.147   9.065  69.518  1.00  0.00    -0.151 A  
HETATM   30  N   UNL     1     -11.096   8.930  68.266  1.00  0.00     0.142 NA 
HETATM   31  N   UNL     1     -10.868   7.035  66.926  1.00  0.00    -0.346 NA 
HETATM   32  S   UNL     1      -8.833   7.734  68.492  1.00  0.00    -0.129 SA 
HETATM   33  C   UNL     1     -10.394   7.915  67.818  1.00  0.00    -0.226 A  
ENDBRANCH  25  26
BRANCH  25  34
HETATM   34  N   UNL     1     -11.478   9.858  71.336  1.00  0.00    -0.361 NA 
HETATM   35  H   UNL     1     -10.792   9.241  71.774  1.00  0.00     0.000 HD 
BRANCH  34  36
HETATM   36  O   UNL     1     -12.734   9.954  71.950  1.00  0.00    -0.394 OA 
HETATM   37  C   UNL     1     -13.476   8.791  72.207  1.00  0.00    -0.420 C  
ENDBRANCH  34  36
ENDBRANCH  25  34
ENDBRANCH  24  25
ENDBRANCH   7  21
TORSDOF 8
ENDMDL
MODEL      252
REMARK 921   NORMALIZED FREE ENERGY PREDICTED BY IDOCK:   -3.79 KCAL/MOL
REMARK 922        TOTAL FREE ENERGY PREDICTED BY IDOCK:   -6.72 KCAL/MOL
REMARK 923 INTER-LIGAND FREE ENERGY PREDICTED BY IDOCK:   -5.44 KCAL/MOL
REMARK 924 INTRA-LIGAND FREE ENERGY PREDICTED BY IDOCK:   -1.28 KCAL/MOL
REMARK 927      BINDING AFFINITY PREDICTED BY RF-SCORE:    0.00 PKD
ROOT
HETATM    1  C   UNL     1      -8.767  11.057  66.356  1.00  0.00    -0.173 C  
HETATM    2  S   UNL     1      -9.934  12.227  65.714  1.00  0.00    -0.247 SA 
HETATM    3  C   UNL     1      -9.580  13.730  66.659  1.00  0.00    -0.288 C  
HETATM    4  C   UNL     1      -8.379  13.744  67.577  1.00  0.00    -0.197 C  
HETATM    5  O   UNL     1      -7.012   9.695  68.698  1.00  0.00    -0.062 OA 
HETATM    6  CA  UNL     1      -7.660  12.654  67.940  1.00  0.00    -0.132 C  
HETATM    7  CA  UNL     1      -9.005   9.643  67.072  1.00  0.00    -0.134 C  
HETATM    8  N   UNL     1      -8.034  11.414  67.533  1.00  0.00    -0.121 N  
HETATM    9  C   UNL     1      -6.487  12.821  68.866  1.00  0.00    -0.091 C  
HETATM   10  OXT UNL     1      -5.809  13.840  68.882  1.00  0.00    -0.078 OA 
HETATM   11  C   UNL     1      -7.758  10.135  67.875  1.00  0.00    -0.089 C  
HETATM   12  O   UNL     1      -6.183  11.805  69.689  1.00  0.00    -0.102 OA 
ENDROOT
BRANCH   4  13
HETATM   13  C   UNL     1      -8.181  15.136  68.193  1.00  0.00    -0.145 C  
BRANCH  13  14
HETATM   14  S   UNL     1      -7.778  16.305  66.863  1.00  0.00    -0.260 SA 
BRANCH  14  15
HETATM   15  C   UNL     1      -8.222  17.803  67.586  1.00  0.00    -0.230 A  
HETATM   16  N   UNL     1      -7.497  18.545  68.390  1.00  0.00    -0.287 NA 
HETATM   17  C   UNL     1     -10.591  17.918  66.706  1.00  0.00    -0.247 C  
HETATM   18  N   UNL     1      -8.337  19.551  68.822  1.00  0.00    -0.349 NA 
HETATM   19  N   UNL     1      -9.467  18.346  67.491  1.00  0.00    -0.268 NA 
HETATM   20  N   UNL     1      -9.544  19.433  68.281  1.00  0.00    -0.355 NA 
ENDBRANCH  14  15
ENDBRANCH  13  14
ENDBRANCH   4  13
BRANCH   7  21
HETATM   21  N   UNL     1     -10.060   9.090  68.041  1.00  0.00    -0.181 N  
HETATM   22  H   UNL     1     -10.917   9.643  68.030  1.00  0.00     0.000 HD 
HETATM   23  O   UNL     1     -11.195   7.845  69.550  1.00  0.00    -0.052 OA 
HETATM   24  C   UNL     1     -10.136   8.007  68.942  1.00  0.00    -0.201 C  
BRANCH  24  25
HETATM   25  C   UNL     1      -8.937   7.158  69.361  1.00  0.00    -0.136 C  
BRANCH  25  26
HETATM   26  C   UNL     1      -8.544   5.936  68.617  1.00  0.00    -0.110 A  
HETATM   27  H2  UNL     1      -6.625   3.836  65.445  1.00  0.00     0.000 HD 
HETATM   28  H1  UNL     1      -5.692   5.227  65.996  1.00  0.00     0.000 HD 
HETATM   29  C   UNL     1      -9.400   4.859  68.407  1.00  0.00    -0.131 A  
HETATM   30  N   UNL     1      -7.373   5.852  67.870  1.00  0.00    -0.076 NA 
HETATM   31  N   UNL     1      -6.507   4.621  66.088  1.00  0.00    -0.040 NA 
HETATM   32  S   UNL     1      -8.794   3.823  67.190  1.00  0.00    -0.134 SA 
HETATM   33  C   UNL     1      -7.427   4.838  67.037  1.00  0.00    -0.086 A  
ENDBRANCH  25  26
BRANCH  25  34
HETATM   34  N   UNL     1      -8.277   7.250  70.483  1.00  0.00    -0.122 NA 
HETATM   35  H   UNL     1      -7.327   7.618  70.436  1.00  0.00     0.000 HD 
BRANCH  34  36
HETATM   36  O   UNL     1      -8.759   6.886  71.748  1.00  0.00    -0.121 OA 
HETATM   37  C   UNL     1      -9.150   7.881  72.658  1.00  0.00    -0.197 C  
ENDBRANCH  34  36
ENDBRANCH  25  34
ENDBRANCH  24  25
ENDBRANCH   7  21
TORSDOF 8
ENDMDL
MODEL      253
REMARK 921   NORMALIZED FREE ENERGY PREDICTED BY IDOCK:   -3.69 KCAL/MOL
REMARK 922        TOTAL FREE ENERGY PREDICTED BY IDOCK:   -6.57 KCAL/MOL
REMARK 923 INTER-LIGAND FREE ENERGY PREDICTED BY IDOCK:   -4.95 KCAL/MOL
REMARK 924 INTRA-LIGAND FREE ENERGY PREDICTED BY IDOCK:   -1.63 KCAL/MOL
REMARK 927      BINDING AFFINITY PREDICTED BY RF-SCORE:    0.00 PKD
ROOT
HETATM    1  C   UNL     1     -10.068   6.985  72.206  1.00  0.00    -0.177 C  
HETATM    2  S   UNL     1     -10.824   6.524  70.671  1.00  0.00    -0.286 SA 
HETATM    3  C   UNL     1     -10.267   4.819  70.426  1.00  0.00    -0.191 C  
HETATM    4  C   UNL     1      -9.502   4.140  71.538  1.00  0.00    -0.221 C  
HETATM    5  O   UNL     1      -7.679   6.993  74.377  1.00  0.00    -0.111 OA 
HETATM    6  CA  UNL     1      -8.987   4.763  72.627  1.00  0.00    -0.124 C  
HETATM    7  CA  UNL     1      -9.043   8.171  72.541  1.00  0.00    -0.235 C  
HETATM    8  N   UNL     1      -9.077   6.111  72.757  1.00  0.00    -0.130 N  
HETATM    9  C   UNL     1      -8.244   3.955  73.655  1.00  0.00    -0.088 C  
HETATM   10  OXT UNL     1      -8.518   2.784  73.886  1.00  0.00    -0.071 OA 
HETATM   11  C   UNL     1      -8.497   7.073  73.510  1.00  0.00    -0.130 C  
HETATM   12  O   UNL     1      -7.257   4.556  74.337  1.00  0.00    -0.070 OA 
ENDROOT
BRANCH   4  13
HETATM   13  C   UNL     1      -9.224   2.670  71.190  1.00  0.00    -0.126 C  
BRANCH  13  14
HETATM   14  S   UNL     1      -9.398   2.458  69.396  1.00  0.00    -0.058 SA 
BRANCH  14  15
HETATM   15  C   UNL     1      -7.787   2.749  68.865  1.00  0.00    -0.049 A  
HETATM   16  N   UNL     1      -6.677   2.525  69.529  1.00  0.00    -0.033 NA 
HETATM   17  C   UNL     1      -8.346   3.786  66.626  1.00  0.00    -0.104 C  
HETATM   18  N   UNL     1      -5.669   3.061  68.755  1.00  0.00    -0.022 NA 
HETATM   19  N   UNL     1      -7.480   3.375  67.695  1.00  0.00    -0.058 NA 
HETATM   20  N   UNL     1      -6.152   3.587  67.635  1.00  0.00    -0.027 NA 
ENDBRANCH  14  15
ENDBRANCH  13  14
ENDBRANCH   4  13
BRANCH   7  21
HETATM   21  N   UNL     1      -7.875   8.829  71.792  1.00  0.00    -0.089 N  
HETATM   22  H   UNL     1      -7.069   8.980  72.397  1.00  0.00     0.000 HD 
HETATM   23  O   UNL     1      -6.529   9.737  70.217  1.00  0.00    -0.068 OA 
HETATM   24  C   UNL     1      -7.643   9.275  70.474  1.00  0.00    -0.139 C  
BRANCH  24  25
HETATM   25  C   UNL     1      -8.733   9.412  69.413  1.00  0.00    -0.157 C  
BRANCH  25  26
HETATM   26  C   UNL     1      -9.898  10.311  69.597  1.00  0.00    -0.198 A  
HETATM   27  H2  UNL     1     -13.858  11.235  70.869  1.00  0.00     0.000 HD 
HETATM   28  H1  UNL     1     -13.029  10.146  71.979  1.00  0.00     0.000 HD 
HETATM   29  C   UNL     1     -10.317  11.227  68.637  1.00  0.00    -0.201 A  
HETATM   30  N   UNL     1     -10.809  10.163  70.639  1.00  0.00    -0.293 NA 
HETATM   31  N   UNL     1     -13.017  10.724  71.140  1.00  0.00    -0.384 NA 
HETATM   32  S   UNL     1     -11.894  11.794  68.977  1.00  0.00    -0.300 SA 
HETATM   33  C   UNL     1     -11.914  10.825  70.385  1.00  0.00    -0.357 A  
ENDBRANCH  25  26
BRANCH  25  34
HETATM   34  N   UNL     1      -8.902   8.643  68.372  1.00  0.00    -0.142 NA 
HETATM   35  H   UNL     1      -9.530   7.846  68.479  1.00  0.00     0.000 HD 
BRANCH  34  36
HETATM   36  O   UNL     1      -8.295   8.814  67.120  1.00  0.00    -0.103 OA 
HETATM   37  C   UNL     1      -9.065   8.709  65.951  1.00  0.00    -0.205 C  
ENDBRANCH  34  36
ENDBRANCH  25  34
ENDBRANCH  24  25
ENDBRANCH   7  21
TORSDOF 8
ENDMDL
MODEL      254
REMARK 921   NORMALIZED FREE ENERGY PREDICTED BY IDOCK:   -3.68 KCAL/MOL
REMARK 922        TOTAL FREE ENERGY PREDICTED BY IDOCK:   -6.55 KCAL/MOL
REMARK 923 INTER-LIGAND FREE ENERGY PREDICTED BY IDOCK:   -4.58 KCAL/MOL
REMARK 924 INTRA-LIGAND FREE ENERGY PREDICTED BY IDOCK:   -1.97 KCAL/MOL
REMARK 927      BINDING AFFINITY PREDICTED BY RF-SCORE:    0.00 PKD
ROOT
HETATM    1  C   UNL     1      -7.135   7.430  64.740  1.00  0.00    -0.061 C  
HETATM    2  S   UNL     1      -5.981   6.294  65.460  1.00  0.00    -0.026 SA 
HETATM    3  C   UNL     1      -6.823   5.743  66.965  1.00  0.00    -0.063 C  
HETATM    4  C   UNL     1      -8.253   6.172  67.194  1.00  0.00    -0.106 C  
HETATM    5  O   UNL     1      -9.386   9.742  64.851  1.00  0.00    -0.241 OA 
HETATM    6  CA  UNL     1      -8.907   7.126  66.487  1.00  0.00    -0.141 C  
HETATM    7  CA  UNL     1      -6.972   8.984  64.381  1.00  0.00    -0.089 C  
HETATM    8  N   UNL     1      -8.261   7.835  65.526  1.00  0.00    -0.132 N  
HETATM    9  C   UNL     1     -10.334   7.450  66.831  1.00  0.00    -0.296 C  
HETATM   10  OXT UNL     1     -11.102   6.610  67.280  1.00  0.00    -0.370 OA 
HETATM   11  C   UNL     1      -8.470   8.975  64.830  1.00  0.00    -0.180 C  
HETATM   12  O   UNL     1     -10.764   8.705  66.624  1.00  0.00    -0.180 OA 
ENDROOT
BRANCH   4  13
HETATM   13  C   UNL     1      -8.825   5.508  68.455  1.00  0.00    -0.104 C  
BRANCH  13  14
HETATM   14  S   UNL     1      -7.456   4.773  69.394  1.00  0.00    -0.052 SA 
BRANCH  14  15
HETATM   15  C   UNL     1      -7.907   5.164  71.008  1.00  0.00    -0.097 A  
HETATM   16  N   UNL     1      -7.426   6.127  71.759  1.00  0.00    -0.093 NA 
HETATM   17  C   UNL     1      -9.561   3.282  71.366  1.00  0.00    -0.160 C  
HETATM   18  N   UNL     1      -7.984   5.936  73.006  1.00  0.00    -0.106 NA 
HETATM   19  N   UNL     1      -8.766   4.414  71.754  1.00  0.00    -0.113 NA 
HETATM   20  N   UNL     1      -8.799   4.888  73.013  1.00  0.00    -0.113 NA 
ENDBRANCH  14  15
ENDBRANCH  13  14
ENDBRANCH   4  13
BRANCH   7  21
HETATM   21  N   UNL     1      -6.244  10.169  65.032  1.00  0.00    -0.115 N  
HETATM   22  H   UNL     1      -5.633  10.652  64.373  1.00  0.00     0.000 HD 
HETATM   23  O   UNL     1      -5.510  11.756  66.467  1.00  0.00    -0.265 OA 
HETATM   24  C   UNL     1      -6.210  10.754  66.316  1.00  0.00    -0.130 C  
BRANCH  24  25
HETATM   25  C   UNL     1      -6.816  10.112  67.563  1.00  0.00    -0.077 C  
BRANCH  25  26
HETATM   26  C   UNL     1      -8.056  10.632  68.188  1.00  0.00    -0.114 A  
HETATM   27  H2  UNL     1     -11.842  10.222  70.099  1.00  0.00     0.000 HD 
HETATM   28  H1  UNL     1     -10.684   9.001  70.625  1.00  0.00     0.000 HD 
HETATM   29  C   UNL     1      -8.763  11.723  67.693  1.00  0.00    -0.159 A  
HETATM   30  N   UNL     1      -8.747   9.942  69.180  1.00  0.00    -0.148 NA 
HETATM   31  N   UNL     1     -10.900   9.830  70.071  1.00  0.00    -0.258 NA 
HETATM   32  S   UNL     1     -10.328  11.801  68.377  1.00  0.00    -0.218 SA 
HETATM   33  C   UNL     1      -9.967  10.412  69.306  1.00  0.00    -0.228 A  
ENDBRANCH  25  26
BRANCH  25  34
HETATM   34  N   UNL     1      -6.244   9.226  68.333  1.00  0.00    -0.052 NA 
HETATM   35  H   UNL     1      -6.502   8.249  68.189  1.00  0.00     0.000 HD 
BRANCH  34  36
HETATM   36  O   UNL     1      -5.309   9.498  69.340  1.00  0.00    -0.035 OA 
HETATM   37  C   UNL     1      -5.729   9.587  70.677  1.00  0.00    -0.057 C  
ENDBRANCH  34  36
ENDBRANCH  25  34
ENDBRANCH  24  25
ENDBRANCH   7  21
TORSDOF 8
ENDMDL
MODEL      255
REMARK 921   NORMALIZED FREE ENERGY PREDICTED BY IDOCK:   -3.64 KCAL/MOL
REMARK 922        TOTAL FREE ENERGY PREDICTED BY IDOCK:   -6.50 KCAL/MOL
REMARK 923 INTER-LIGAND FREE ENERGY PREDICTED BY IDOCK:   -5.32 KCAL/MOL
REMARK 924 INTRA-LIGAND FREE ENERGY PREDICTED BY IDOCK:   -1.18 KCAL/MOL
REMARK 927      BINDING AFFINITY PREDICTED BY RF-SCORE:    0.00 PKD
ROOT
HETATM    1  C   UNL     1      -6.207   6.476  72.103  1.00  0.00    -0.042 C  
HETATM    2  S   UNL     1      -6.914   7.987  72.700  1.00  0.00    -0.092 SA 
HETATM    3  C   UNL     1      -8.695   7.660  72.657  1.00  0.00    -0.136 C  
HETATM    4  C   UNL     1      -9.167   6.263  72.330  1.00  0.00    -0.138 C  
HETATM    5  O   UNL     1      -6.123   3.856  70.217  1.00  0.00    -0.018 OA 
HETATM    6  CA  UNL     1      -8.388   5.269  71.837  1.00  0.00    -0.122 C  
HETATM    7  CA  UNL     1      -5.265   6.203  70.835  1.00  0.00    -0.014 C  
HETATM    8  N   UNL     1      -7.086   5.500  71.531  1.00  0.00    -0.070 N  
HETATM    9  C   UNL     1      -9.000   3.924  71.555  1.00  0.00    -0.107 C  
HETATM   10  OXT UNL     1      -9.939   3.486  72.208  1.00  0.00    -0.154 OA 
HETATM   11  C   UNL     1      -6.114   4.889  70.818  1.00  0.00    -0.018 C  
HETATM   12  O   UNL     1      -8.481   3.190  70.559  1.00  0.00    -0.058 OA 
ENDROOT
BRANCH   4  13
HETATM   13  C   UNL     1     -10.694   6.160  72.461  1.00  0.00    -0.224 C  
BRANCH  13  14
HETATM   14  S   UNL     1     -11.450   6.820  70.949  1.00  0.00    -0.354 SA 
BRANCH  14  15
HETATM   15  C   UNL     1     -12.393   8.114  71.582  1.00  0.00    -0.314 A  
HETATM   16  N   UNL     1     -13.482   8.025  72.308  1.00  0.00    -0.146 NA 
HETATM   17  C   UNL     1     -11.084  10.022  70.559  1.00  0.00    -0.331 C  
HETATM   18  N   UNL     1     -13.950   9.316  72.433  1.00  0.00    -0.429 NA 
HETATM   19  N   UNL     1     -12.166   9.425  71.290  1.00  0.00    -0.327 NA 
HETATM   20  N   UNL     1     -13.154  10.177  71.809  1.00  0.00    -0.436 NA 
ENDBRANCH  14  15
ENDBRANCH  13  14
ENDBRANCH   4  13
BRANCH   7  21
HETATM   21  N   UNL     1      -5.176   6.780  69.416  1.00  0.00    -0.013 N  
HETATM   22  H   UNL     1      -4.334   6.475  68.929  1.00  0.00     0.000 HD 
HETATM   23  O   UNL     1      -5.589   7.856  67.469  1.00  0.00    -0.035 OA 
HETATM   24  C   UNL     1      -5.972   7.630  68.618  1.00  0.00    -0.031 C  
BRANCH  24  25
HETATM   25  C   UNL     1      -7.153   8.440  69.148  1.00  0.00    -0.064 C  
BRANCH  25  26
HETATM   26  C   UNL     1      -8.454   8.486  68.438  1.00  0.00    -0.138 A  
HETATM   27  H2  UNL     1     -11.725   6.758  66.324  1.00  0.00     0.000 HD 
HETATM   28  H1  UNL     1     -11.127   5.715  67.612  1.00  0.00     0.000 HD 
HETATM   29  C   UNL     1      -8.805   9.496  67.546  1.00  0.00    -0.125 A  
HETATM   30  N   UNL     1      -9.343   7.414  68.419  1.00  0.00    -0.144 NA 
HETATM   31  N   UNL     1     -11.091   6.600  67.107  1.00  0.00    -0.400 NA 
HETATM   32  S   UNL     1     -10.160   9.043  66.608  1.00  0.00    -0.273 SA 
HETATM   33  C   UNL     1     -10.222   7.559  67.455  1.00  0.00    -0.249 A  
ENDBRANCH  25  26
BRANCH  25  34
HETATM   34  N   UNL     1      -7.117   9.327  70.106  1.00  0.00    -0.061 NA 
HETATM   35  H   UNL     1      -7.237   8.986  71.060  1.00  0.00     0.000 HD 
BRANCH  34  36
HETATM   36  O   UNL     1      -6.928  10.705  69.939  1.00  0.00    -0.143 OA 
HETATM   37  C   UNL     1      -5.665  11.270  70.177  1.00  0.00    -0.120 C  
ENDBRANCH  34  36
ENDBRANCH  25  34
ENDBRANCH  24  25
ENDBRANCH   7  21
TORSDOF 8
ENDMDL
MODEL      256
REMARK 921   NORMALIZED FREE ENERGY PREDICTED BY IDOCK:   -3.62 KCAL/MOL
REMARK 922        TOTAL FREE ENERGY PREDICTED BY IDOCK:   -6.47 KCAL/MOL
REMARK 923 INTER-LIGAND FREE ENERGY PREDICTED BY IDOCK:   -4.71 KCAL/MOL
REMARK 924 INTRA-LIGAND FREE ENERGY PREDICTED BY IDOCK:   -1.77 KCAL/MOL
REMARK 927      BINDING AFFINITY PREDICTED BY RF-SCORE:    0.00 PKD
ROOT
HETATM    1  C   UNL     1      -7.918   3.741  69.768  1.00  0.00    -0.050 C  
HETATM    2  S   UNL     1      -9.331   3.972  68.724  1.00  0.00    -0.162 SA 
HETATM    3  C   UNL     1      -9.411   5.770  68.523  1.00  0.00    -0.123 C  
HETATM    4  C   UNL     1      -8.284   6.612  69.073  1.00  0.00    -0.117 C  
HETATM    5  O   UNL     1      -5.936   4.537  72.189  1.00  0.00    -0.014 OA 
HETATM    6  CA  UNL     1      -7.315   6.170  69.912  1.00  0.00    -0.079 C  
HETATM    7  CA  UNL     1      -7.798   3.054  71.212  1.00  0.00    -0.051 C  
HETATM    8  N   UNL     1      -7.338   4.897  70.383  1.00  0.00    -0.053 N  
HETATM    9  C   UNL     1      -6.254   7.127  70.382  1.00  0.00    -0.034 C  
HETATM   10  OXT UNL     1      -5.868   8.061  69.691  1.00  0.00    -0.026 OA 
HETATM   11  C   UNL     1      -6.747   4.199  71.379  1.00  0.00    -0.030 C  
HETATM   12  O   UNL     1      -5.718   6.929  71.596  1.00  0.00    -0.035 OA 
ENDROOT
BRANCH   4  13
HETATM   13  C   UNL     1      -8.475   8.089  68.700  1.00  0.00    -0.128 C  
BRANCH  13  14
HETATM   14  S   UNL     1     -10.133   8.296  67.990  1.00  0.00    -0.207 SA 
BRANCH  14  15
HETATM   15  C   UNL     1      -9.785   9.244  66.596  1.00  0.00    -0.219 A  
HETATM   16  N   UNL     1     -10.221  10.452  66.324  1.00  0.00    -0.230 NA 
HETATM   17  C   UNL     1      -8.386   7.535  65.361  1.00  0.00    -0.124 C  
HETATM   18  N   UNL     1      -9.799  10.716  65.038  1.00  0.00    -0.268 NA 
HETATM   19  N   UNL     1      -9.082   8.780  65.525  1.00  0.00    -0.192 NA 
HETATM   20  N   UNL     1      -9.108   9.697  64.540  1.00  0.00    -0.243 NA 
ENDBRANCH  14  15
ENDBRANCH  13  14
ENDBRANCH   4  13
BRANCH   7  21
HETATM   21  N   UNL     1      -8.699   2.992  72.453  1.00  0.00    -0.078 N  
HETATM   22  H   UNL     1      -9.022   2.045  72.646  1.00  0.00     0.000 HD 
HETATM   23  O   UNL     1      -9.886   3.491  74.313  1.00  0.00    -0.104 OA 
HETATM   24  C   UNL     1      -9.190   3.924  73.393  1.00  0.00    -0.104 C  
BRANCH  24  25
HETATM   25  C   UNL     1      -9.087   5.439  73.229  1.00  0.00    -0.126 C  
BRANCH  25  26
HETATM   26  C   UNL     1      -9.973   6.190  72.307  1.00  0.00    -0.166 A  
HETATM   27  H2  UNL     1     -12.209   9.601  71.076  1.00  0.00     0.000 HD 
HETATM   28  H1  UNL     1     -10.691  10.035  71.859  1.00  0.00     0.000 HD 
HETATM   29  C   UNL     1     -11.063   5.618  71.658  1.00  0.00    -0.181 A  
HETATM   30  N   UNL     1      -9.937   7.576  72.187  1.00  0.00    -0.173 NA 
HETATM   31  N   UNL     1     -11.328   9.320  71.507  1.00  0.00    -0.361 NA 
HETATM   32  S   UNL     1     -12.095   6.820  71.016  1.00  0.00    -0.329 SA 
HETATM   33  C   UNL     1     -11.027   8.019  71.604  1.00  0.00    -0.239 A  
ENDBRANCH  25  26
BRANCH  25  34
HETATM   34  N   UNL     1      -8.124   6.202  73.671  1.00  0.00    -0.105 NA 
HETATM   35  H   UNL     1      -7.173   5.963  73.388  1.00  0.00     0.000 HD 
BRANCH  34  36
HETATM   36  O   UNL     1      -8.282   7.320  74.501  1.00  0.00    -0.159 OA 
HETATM   37  C   UNL     1      -7.425   8.423  74.355  1.00  0.00    -0.197 C  
ENDBRANCH  34  36
ENDBRANCH  25  34
ENDBRANCH  24  25
ENDBRANCH   7  21
TORSDOF 8
ENDMDL
MODEL      257
REMARK 921   NORMALIZED FREE ENERGY PREDICTED BY IDOCK:   -3.50 KCAL/MOL
REMARK 922        TOTAL FREE ENERGY PREDICTED BY IDOCK:   -6.30 KCAL/MOL
REMARK 923 INTER-LIGAND FREE ENERGY PREDICTED BY IDOCK:   -4.76 KCAL/MOL
REMARK 924 INTRA-LIGAND FREE ENERGY PREDICTED BY IDOCK:   -1.54 KCAL/MOL
REMARK 927      BINDING AFFINITY PREDICTED BY RF-SCORE:    0.00 PKD
ROOT
HETATM    1  C   UNL     1      -6.736   6.401  72.461  1.00  0.00    -0.065 C  
HETATM    2  S   UNL     1      -7.565   7.939  72.166  1.00  0.00    -0.097 SA 
HETATM    3  C   UNL     1      -9.293   7.446  71.948  1.00  0.00    -0.136 C  
HETATM    4  C   UNL     1      -9.676   6.008  72.208  1.00  0.00    -0.172 C  
HETATM    5  O   UNL     1      -6.235   3.242  72.019  1.00  0.00    -0.013 OA 
HETATM    6  CA  UNL     1      -8.802   4.984  72.372  1.00  0.00    -0.127 C  
HETATM    7  CA  UNL     1      -5.545   5.694  71.653  1.00  0.00    -0.020 C  
HETATM    8  N   UNL     1      -7.467   5.189  72.242  1.00  0.00    -0.092 N  
HETATM    9  C   UNL     1      -9.331   3.598  72.623  1.00  0.00    -0.110 C  
HETATM   10  OXT UNL     1     -10.383   3.400  73.216  1.00  0.00    -0.140 OA 
HETATM   11  C   UNL     1      -6.361   4.429  72.076  1.00  0.00    -0.022 C  
HETATM   12  O   UNL     1      -8.607   2.558  72.182  1.00  0.00    -0.064 OA 
ENDROOT
BRANCH   4  13
HETATM   13  C   UNL     1     -11.195   5.818  72.086  1.00  0.00    -0.269 C  
BRANCH  13  14
HETATM   14  S   UNL     1     -11.789   6.793  70.675  1.00  0.00    -0.345 SA 
BRANCH  14  15
HETATM   15  C   UNL     1     -12.789   7.950  71.464  1.00  0.00    -0.317 A  
HETATM   16  N   UNL     1     -13.886   7.721  72.148  1.00  0.00    -0.173 NA 
HETATM   17  C   UNL     1     -11.538  10.029  70.747  1.00  0.00    -0.360 C  
HETATM   18  N   UNL     1     -14.404   8.965  72.443  1.00  0.00    -0.551 NA 
HETATM   19  N   UNL     1     -12.608   9.296  71.364  1.00  0.00    -0.325 NA 
HETATM   20  N   UNL     1     -13.631   9.933  71.963  1.00  0.00    -0.359 NA 
ENDBRANCH  14  15
ENDBRANCH  13  14
ENDBRANCH   4  13
BRANCH   7  21
HETATM   21  N   UNL     1      -5.162   5.591  70.170  1.00  0.00    -0.004 N  
HETATM   22  H   UNL     1      -4.199   5.881  70.002  1.00  0.00     0.000 HD 
HETATM   23  O   UNL     1      -5.158   5.210  67.941  1.00  0.00    -0.003 OA 
HETATM   24  C   UNL     1      -5.815   5.196  68.983  1.00  0.00    -0.020 C  
BRANCH  24  25
HETATM   25  C   UNL     1      -7.319   4.953  68.874  1.00  0.00    -0.057 C  
BRANCH  25  26
HETATM   26  C   UNL     1      -7.871   3.683  68.344  1.00  0.00    -0.063 A  
HETATM   27  H2  UNL     1      -9.834   1.287  65.418  1.00  0.00     0.000 HD 
HETATM   28  H1  UNL     1      -8.770   2.495  64.699  1.00  0.00     0.000 HD 
HETATM   29  C   UNL     1      -8.575   2.770  69.124  1.00  0.00    -0.073 A  
HETATM   30  N   UNL     1      -7.939   3.398  66.983  1.00  0.00    -0.079 NA 
HETATM   31  N   UNL     1      -9.152   2.039  65.527  1.00  0.00    -0.115 NA 
HETATM   32  S   UNL     1      -9.415   1.646  68.146  1.00  0.00    -0.109 SA 
HETATM   33  C   UNL     1      -8.774   2.410  66.757  1.00  0.00    -0.124 A  
ENDBRANCH  25  26
BRANCH  25  34
HETATM   34  N   UNL     1      -8.260   5.849  69.006  1.00  0.00    -0.102 NA 
HETATM   35  H   UNL     1      -8.715   5.915  69.916  1.00  0.00     0.000 HD 
BRANCH  34  36
HETATM   36  O   UNL     1      -8.699   6.727  68.006  1.00  0.00    -0.119 OA 
HETATM   37  C   UNL     1      -8.951   8.072  68.320  1.00  0.00    -0.132 C  
ENDBRANCH  34  36
ENDBRANCH  25  34
ENDBRANCH  24  25
ENDBRANCH   7  21
TORSDOF 8
ENDMDL
MODEL      258
REMARK 921   NORMALIZED FREE ENERGY PREDICTED BY IDOCK:   -3.46 KCAL/MOL
REMARK 922        TOTAL FREE ENERGY PREDICTED BY IDOCK:   -6.24 KCAL/MOL
REMARK 923 INTER-LIGAND FREE ENERGY PREDICTED BY IDOCK:   -4.55 KCAL/MOL
REMARK 924 INTRA-LIGAND FREE ENERGY PREDICTED BY IDOCK:   -1.69 KCAL/MOL
REMARK 927      BINDING AFFINITY PREDICTED BY RF-SCORE:    0.00 PKD
ROOT
HETATM    1  C   UNL     1     -10.421   5.844  67.785  1.00  0.00    -0.238 C  
HETATM    2  S   UNL     1      -9.626   4.501  68.623  1.00  0.00    -0.140 SA 
HETATM    3  C   UNL     1      -9.368   5.147  70.295  1.00  0.00    -0.156 C  
HETATM    4  C   UNL     1      -9.972   6.483  70.657  1.00  0.00    -0.206 C  
HETATM    5  O   UNL     1     -10.924   8.965  67.127  1.00  0.00    -0.110 OA 
HETATM    6  CA  UNL     1     -10.505   7.365  69.776  1.00  0.00    -0.229 C  
HETATM    7  CA  UNL     1      -9.972   6.663  66.481  1.00  0.00    -0.084 C  
HETATM    8  N   UNL     1     -10.467   7.116  68.442  1.00  0.00    -0.194 N  
HETATM    9  C   UNL     1     -11.070   8.663  70.283  1.00  0.00    -0.217 C  
HETATM   10  OXT UNL     1     -11.579   8.762  71.392  1.00  0.00    -0.265 OA 
HETATM   11  C   UNL     1     -10.637   7.818  67.299  1.00  0.00    -0.306 C  
HETATM   12  O   UNL     1     -11.014   9.734  69.477  1.00  0.00    -0.232 OA 
ENDROOT
BRANCH   4  13
HETATM   13  C   UNL     1      -9.746   6.799  72.142  1.00  0.00    -0.149 C  
BRANCH  13  14
HETATM   14  S   UNL     1     -10.806   5.709  73.133  1.00  0.00    -0.290 SA 
BRANCH  14  15
HETATM   15  C   UNL     1      -9.663   4.554  73.702  1.00  0.00    -0.131 A  
HETATM   16  N   UNL     1      -8.492   4.792  74.245  1.00  0.00    -0.105 NA 
HETATM   17  C   UNL     1     -10.922   2.466  73.026  1.00  0.00    -0.078 C  
HETATM   18  N   UNL     1      -7.892   3.559  74.385  1.00  0.00    -0.065 NA 
HETATM   19  N   UNL     1      -9.806   3.209  73.539  1.00  0.00    -0.103 NA 
HETATM   20  N   UNL     1      -8.686   2.586  73.951  1.00  0.00    -0.071 NA 
ENDBRANCH  14  15
ENDBRANCH  13  14
ENDBRANCH   4  13
BRANCH   7  21
HETATM   21  N   UNL     1      -8.625   7.137  65.918  1.00  0.00    -0.150 N  
HETATM   22  H   UNL     1      -8.644   8.122  65.654  1.00  0.00     0.000 HD 
HETATM   23  O   UNL     1      -6.473   7.270  65.232  1.00  0.00    -0.043 OA 
HETATM   24  C   UNL     1      -7.366   6.546  65.677  1.00  0.00    -0.076 C  
BRANCH  24  25
HETATM   25  C   UNL     1      -7.102   5.043  65.734  1.00  0.00    -0.068 C  
BRANCH  25  26
HETATM   26  C   UNL     1      -7.893   4.077  64.935  1.00  0.00    -0.089 A  
HETATM   27  H2  UNL     1     -11.268   2.870  62.631  1.00  0.00     0.000 HD 
HETATM   28  H1  UNL     1     -10.808   4.544  62.329  1.00  0.00     0.000 HD 
HETATM   29  C   UNL     1      -8.019   2.731  65.267  1.00  0.00    -0.082 A  
HETATM   30  N   UNL     1      -8.761   4.468  63.920  1.00  0.00    -0.136 NA 
HETATM   31  N   UNL     1     -10.635   3.654  62.796  1.00  0.00    -0.202 NA 
HETATM   32  S   UNL     1      -9.303   2.003  64.403  1.00  0.00    -0.124 SA 
HETATM   33  C   UNL     1      -9.592   3.496  63.621  1.00  0.00    -0.135 A  
ENDBRANCH  25  26
BRANCH  25  34
HETATM   34  N   UNL     1      -6.353   4.421  66.605  1.00  0.00    -0.036 NA 
HETATM   35  H   UNL     1      -6.071   3.467  66.379  1.00  0.00     0.000 HD 
BRANCH  34  36
HETATM   36  O   UNL     1      -5.902   4.949  67.822  1.00  0.00    -0.020 OA 
HETATM   37  C   UNL     1      -5.831   4.125  68.956  1.00  0.00    -0.022 C  
ENDBRANCH  34  36
ENDBRANCH  25  34
ENDBRANCH  24  25
ENDBRANCH   7  21
TORSDOF 8
ENDMDL
MODEL      259
REMARK 921   NORMALIZED FREE ENERGY PREDICTED BY IDOCK:   -3.41 KCAL/MOL
REMARK 922        TOTAL FREE ENERGY PREDICTED BY IDOCK:   -6.16 KCAL/MOL
REMARK 923 INTER-LIGAND FREE ENERGY PREDICTED BY IDOCK:   -5.55 KCAL/MOL
REMARK 924 INTRA-LIGAND FREE ENERGY PREDICTED BY IDOCK:   -0.60 KCAL/MOL
REMARK 927      BINDING AFFINITY PREDICTED BY RF-SCORE:    0.00 PKD
ROOT
HETATM    1  C   UNL     1      -8.746   5.172  69.780  1.00  0.00    -0.099 C  
HETATM    2  S   UNL     1     -10.392   5.638  69.318  1.00  0.00    -0.284 SA 
HETATM    3  C   UNL     1     -10.154   6.500  67.743  1.00  0.00    -0.148 C  
HETATM    4  C   UNL     1      -8.780   6.497  67.116  1.00  0.00    -0.111 C  
HETATM    5  O   UNL     1      -5.557   5.624  70.009  1.00  0.00    -0.008 OA 
HETATM    6  CA  UNL     1      -7.639   6.101  67.732  1.00  0.00    -0.097 C  
HETATM    7  CA  UNL     1      -7.893   5.543  71.086  1.00  0.00    -0.109 C  
HETATM    8  N   UNL     1      -7.655   5.726  69.036  1.00  0.00    -0.087 N  
HETATM    9  C   UNL     1      -6.338   6.156  66.979  1.00  0.00    -0.038 C  
HETATM   10  OXT UNL     1      -6.280   5.998  65.767  1.00  0.00    -0.035 OA 
HETATM   11  C   UNL     1      -6.749   5.533  70.021  1.00  0.00    -0.048 C  
HETATM   12  O   UNL     1      -5.214   6.378  67.678  1.00  0.00    -0.004 OA 
ENDROOT
BRANCH   4  13
HETATM   13  C   UNL     1      -8.810   7.173  65.737  1.00  0.00    -0.064 C  
BRANCH  13  14
HETATM   14  S   UNL     1      -9.270   8.915  65.955  1.00  0.00    -0.239 SA 
BRANCH  14  15
HETATM   15  C   UNL     1      -8.724   9.207  67.562  1.00  0.00    -0.119 A  
HETATM   16  N   UNL     1      -7.501   9.087  68.022  1.00  0.00    -0.084 NA 
HETATM   17  C   UNL     1     -10.970   9.754  68.591  1.00  0.00    -0.147 C  
HETATM   18  N   UNL     1      -7.599   9.276  69.385  1.00  0.00    -0.077 NA 
HETATM   19  N   UNL     1      -9.557   9.496  68.600  1.00  0.00    -0.145 NA 
HETATM   20  N   UNL     1      -8.853   9.521  69.747  1.00  0.00    -0.181 NA 
ENDBRANCH  14  15
ENDBRANCH  13  14
ENDBRANCH   4  13
BRANCH   7  21
HETATM   21  N   UNL     1      -7.766   6.791  71.971  1.00  0.00    -0.095 N  
HETATM   22  H   UNL     1      -6.802   7.115  72.041  1.00  0.00     0.000 HD 
HETATM   23  O   UNL     1      -8.183   8.577  73.295  1.00  0.00    -0.374 OA 
HETATM   24  C   UNL     1      -8.655   7.599  72.713  1.00  0.00    -0.131 C  
BRANCH  24  25
HETATM   25  C   UNL     1     -10.107   7.227  73.005  1.00  0.00    -0.248 C  
BRANCH  25  26
HETATM   26  C   UNL     1     -11.241   7.913  72.340  1.00  0.00    -0.350 A  
HETATM   27  H2  UNL     1     -13.988  11.124  71.799  1.00  0.00     0.000 HD 
HETATM   28  H1  UNL     1     -12.376  11.682  72.242  1.00  0.00     0.000 HD 
HETATM   29  C   UNL     1     -12.396   7.255  71.926  1.00  0.00    -0.312 A  
HETATM   30  N   UNL     1     -11.355   9.298  72.279  1.00  0.00    -0.023 NA 
HETATM   31  N   UNL     1     -13.011  10.918  72.009  1.00  0.00    -0.414 NA 
HETATM   32  S   UNL     1     -13.648   8.369  71.587  1.00  0.00    -0.327 SA 
HETATM   33  C   UNL     1     -12.583   9.649  71.976  1.00  0.00    -0.361 A  
ENDBRANCH  25  26
BRANCH  25  34
HETATM   34  N   UNL     1     -10.531   6.468  73.980  1.00  0.00    -0.417 NA 
HETATM   35  H   UNL     1     -11.107   6.910  74.697  1.00  0.00     0.000 HD 
BRANCH  34  36
HETATM   36  O   UNL     1     -10.263   5.101  74.128  1.00  0.00    -0.202 OA 
HETATM   37  C   UNL     1     -11.244   4.157  73.785  1.00  0.00    -0.177 C  
ENDBRANCH  34  36
ENDBRANCH  25  34
ENDBRANCH  24  25
ENDBRANCH   7  21
TORSDOF 8
ENDMDL
MODEL      260
REMARK 921   NORMALIZED FREE ENERGY PREDICTED BY IDOCK:   -3.39 KCAL/MOL
REMARK 922        TOTAL FREE ENERGY PREDICTED BY IDOCK:   -6.13 KCAL/MOL
REMARK 923 INTER-LIGAND FREE ENERGY PREDICTED BY IDOCK:   -5.45 KCAL/MOL
REMARK 924 INTRA-LIGAND FREE ENERGY PREDICTED BY IDOCK:   -0.68 KCAL/MOL
REMARK 927      BINDING AFFINITY PREDICTED BY RF-SCORE:    0.00 PKD
ROOT
HETATM    1  C   UNL     1     -10.638  10.722  68.734  1.00  0.00    -0.200 C  
HETATM    2  S   UNL     1      -9.214  11.728  68.413  1.00  0.00    -0.145 SA 
HETATM    3  C   UNL     1      -7.841  10.708  69.007  1.00  0.00    -0.137 C  
HETATM    4  C   UNL     1      -8.127   9.291  69.444  1.00  0.00    -0.108 C  
HETATM    5  O   UNL     1     -12.374   8.614  70.456  1.00  0.00     0.050 OA 
HETATM    6  CA  UNL     1      -9.361   8.770  69.652  1.00  0.00    -0.158 C  
HETATM    7  CA  UNL     1     -11.929  11.013  69.638  1.00  0.00    -0.353 C  
HETATM    8  N   UNL     1     -10.466   9.549  69.537  1.00  0.00    -0.210 N  
HETATM    9  C   UNL     1      -9.492   7.337  70.090  1.00  0.00    -0.165 C  
HETATM   10  OXT UNL     1      -8.685   6.479  69.759  1.00  0.00    -0.140 OA 
HETATM   11  C   UNL     1     -11.767   9.480  69.900  1.00  0.00     0.098 C  
HETATM   12  O   UNL     1     -10.538   7.006  70.862  1.00  0.00    -0.214 OA 
ENDROOT
BRANCH   4  13
HETATM   13  C   UNL     1      -6.825   8.557  69.797  1.00  0.00    -0.043 C  
BRANCH  13  14
HETATM   14  S   UNL     1      -5.475   9.266  68.811  1.00  0.00    -0.037 SA 
BRANCH  14  15
HETATM   15  C   UNL     1      -5.659   8.412  67.328  1.00  0.00    -0.038 A  
HETATM   16  N   UNL     1      -5.470   7.130  67.118  1.00  0.00    -0.020 NA 
HETATM   17  C   UNL     1      -6.228  10.393  65.861  1.00  0.00    -0.118 C  
HETATM   18  N   UNL     1      -5.586   6.958  65.754  1.00  0.00    -0.029 NA 
HETATM   19  N   UNL     1      -5.919   9.018  66.136  1.00  0.00    -0.054 NA 
HETATM   20  N   UNL     1      -5.855   8.108  65.147  1.00  0.00    -0.044 NA 
ENDBRANCH  14  15
ENDBRANCH  13  14
ENDBRANCH   4  13
BRANCH   7  21
HETATM   21  N   UNL     1     -12.172  11.743  70.966  1.00  0.00    -0.328 N  
HETATM   22  H   UNL     1     -12.263  11.095  71.748  1.00  0.00     0.000 HD 
HETATM   23  O   UNL     1     -12.459  13.309  72.573  1.00  0.00     0.163 OA 
HETATM   24  C   UNL     1     -12.299  13.089  71.372  1.00  0.00    -0.012 C  
BRANCH  24  25
HETATM   25  C   UNL     1     -12.457  14.261  70.406  1.00  0.00    -0.362 C  
BRANCH  25  26
HETATM   26  C   UNL     1     -11.353  14.700  69.518  1.00  0.00    -0.280 A  
HETATM   27  H2  UNL     1      -8.275  17.367  68.269  1.00  0.00     0.000 HD 
HETATM   28  H1  UNL     1      -8.393  17.247  70.023  1.00  0.00     0.000 HD 
HETATM   29  C   UNL     1     -11.390  14.575  68.132  1.00  0.00    -0.298 A  
HETATM   30  N   UNL     1     -10.290  15.480  69.964  1.00  0.00    -0.310 NA 
HETATM   31  N   UNL     1      -8.702  16.951  69.097  1.00  0.00    -0.136 NA 
HETATM   32  S   UNL     1     -10.179  15.533  67.398  1.00  0.00    -0.260 SA 
HETATM   33  C   UNL     1      -9.660  16.027  68.950  1.00  0.00    -0.236 A  
ENDBRANCH  25  26
BRANCH  25  34
HETATM   34  N   UNL     1     -13.436  15.125  70.390  1.00  0.00    -0.647 NA 
HETATM   35  H   UNL     1     -13.935  15.248  69.508  1.00  0.00     0.000 HD 
BRANCH  34  36
HETATM   36  O   UNL     1     -13.861  15.900  71.477  1.00  0.00    -0.418 OA 
HETATM   37  C   UNL     1     -12.985  16.141  72.547  1.00  0.00    -0.259 C  
ENDBRANCH  34  36
ENDBRANCH  25  34
ENDBRANCH  24  25
ENDBRANCH   7  21
TORSDOF 8
ENDMDL
MODEL      261
REMARK 921   NORMALIZED FREE ENERGY PREDICTED BY IDOCK:   -3.28 KCAL/MOL
REMARK 922        TOTAL FREE ENERGY PREDICTED BY IDOCK:   -5.97 KCAL/MOL
REMARK 923 INTER-LIGAND FREE ENERGY PREDICTED BY IDOCK:   -5.32 KCAL/MOL
REMARK 924 INTRA-LIGAND FREE ENERGY PREDICTED BY IDOCK:   -0.66 KCAL/MOL
REMARK 927      BINDING AFFINITY PREDICTED BY RF-SCORE:    0.00 PKD
ROOT
HETATM    1  C   UNL     1      -6.715   6.971  66.181  1.00  0.00    -0.053 C  
HETATM    2  S   UNL     1      -5.798   6.279  67.530  1.00  0.00    -0.017 SA 
HETATM    3  C   UNL     1      -7.032   6.147  68.849  1.00  0.00    -0.072 C  
HETATM    4  C   UNL     1      -8.476   6.449  68.524  1.00  0.00    -0.119 C  
HETATM    5  O   UNL     1      -8.953   8.901  64.879  1.00  0.00    -0.176 OA 
HETATM    6  CA  UNL     1      -8.914   7.035  67.383  1.00  0.00    -0.117 C  
HETATM    7  CA  UNL     1      -6.490   8.333  65.366  1.00  0.00    -0.052 C  
HETATM    8  N   UNL     1      -8.032   7.468  66.447  1.00  0.00    -0.104 N  
HETATM    9  C   UNL     1     -10.387   7.277  67.198  1.00  0.00    -0.297 C  
HETATM   10  OXT UNL     1     -11.234   6.541  67.686  1.00  0.00    -0.324 OA 
HETATM   11  C   UNL     1      -8.053   8.287  65.371  1.00  0.00    -0.135 C  
HETATM   12  O   UNL     1     -10.767   8.334  66.463  1.00  0.00    -0.090 OA 
ENDROOT
BRANCH   4  13
HETATM   13  C   UNL     1      -9.378   6.166  69.734  1.00  0.00    -0.151 C  
BRANCH  13  14
HETATM   14  S   UNL     1      -9.037   4.485  70.328  1.00  0.00    -0.111 SA 
BRANCH  14  15
HETATM   15  C   UNL     1     -10.097   4.385  71.681  1.00  0.00    -0.160 A  
HETATM   16  N   UNL     1     -10.658   5.379  72.328  1.00  0.00    -0.219 NA 
HETATM   17  C   UNL     1     -10.036   1.873  71.978  1.00  0.00    -0.150 C  
HETATM   18  N   UNL     1     -11.283   4.806  73.416  1.00  0.00    -0.338 NA 
HETATM   19  N   UNL     1     -10.390   3.221  72.325  1.00  0.00    -0.096 NA 
HETATM   20  N   UNL     1     -11.119   3.488  73.424  1.00  0.00    -0.210 NA 
ENDBRANCH  14  15
ENDBRANCH  13  14
ENDBRANCH   4  13
BRANCH   7  21
HETATM   21  N   UNL     1      -6.012   9.744  65.736  1.00  0.00    -0.060 N  
HETATM   22  H   UNL     1      -5.081   9.941  65.372  1.00  0.00     0.000 HD 
HETATM   23  O   UNL     1      -5.865  11.860  66.521  1.00  0.00    -0.234 OA 
HETATM   24  C   UNL     1      -6.544  10.834  66.457  1.00  0.00    -0.119 C  
BRANCH  24  25
HETATM   25  C   UNL     1      -7.799  10.755  67.324  1.00  0.00    -0.113 C  
BRANCH  25  26
HETATM   26  C   UNL     1      -8.874  11.774  67.243  1.00  0.00    -0.167 A  
HETATM   27  H2  UNL     1     -11.433  14.777  68.852  1.00  0.00     0.000 HD 
HETATM   28  H1  UNL     1      -9.809  14.835  69.536  1.00  0.00     0.000 HD 
HETATM   29  C   UNL     1     -10.046  11.593  66.515  1.00  0.00    -0.207 A  
HETATM   30  N   UNL     1      -8.914  12.897  68.065  1.00  0.00    -0.190 NA 
HETATM   31  N   UNL     1     -10.475  14.426  68.881  1.00  0.00    -0.245 NA 
HETATM   32  S   UNL     1     -11.227  12.747  66.958  1.00  0.00    -0.309 SA 
HETATM   33  C   UNL     1     -10.112  13.434  68.056  1.00  0.00    -0.241 A  
ENDBRANCH  25  26
BRANCH  25  34
HETATM   34  N   UNL     1      -7.984   9.967  68.348  1.00  0.00    -0.095 NA 
HETATM   35  H   UNL     1      -7.806   8.972  68.208  1.00  0.00     0.000 HD 
BRANCH  34  36
HETATM   36  O   UNL     1      -8.408  10.366  69.623  1.00  0.00    -0.152 OA 
HETATM   37  C   UNL     1      -9.522   9.749  70.213  1.00  0.00    -0.195 C  
ENDBRANCH  34  36
ENDBRANCH  25  34
ENDBRANCH  24  25
ENDBRANCH   7  21
TORSDOF 8
ENDMDL
MODEL      262
REMARK 921   NORMALIZED FREE ENERGY PREDICTED BY IDOCK:   -3.14 KCAL/MOL
REMARK 922        TOTAL FREE ENERGY PREDICTED BY IDOCK:   -5.76 KCAL/MOL
REMARK 923 INTER-LIGAND FREE ENERGY PREDICTED BY IDOCK:   -4.86 KCAL/MOL
REMARK 924 INTRA-LIGAND FREE ENERGY PREDICTED BY IDOCK:   -0.90 KCAL/MOL
REMARK 927      BINDING AFFINITY PREDICTED BY RF-SCORE:    0.00 PKD
ROOT
HETATM    1  C   UNL     1      -8.867   8.435  66.189  1.00  0.00    -0.165 C  
HETATM    2  S   UNL     1     -10.420   8.065  66.959  1.00  0.00    -0.293 SA 
HETATM    3  C   UNL     1     -10.797   9.577  67.883  1.00  0.00    -0.180 C  
HETATM    4  C   UNL     1      -9.906  10.782  67.695  1.00  0.00    -0.193 C  
HETATM    5  O   UNL     1      -5.924   9.758  66.077  1.00  0.00    -0.060 OA 
HETATM    6  CA  UNL     1      -8.705  10.777  67.066  1.00  0.00    -0.136 C  
HETATM    7  CA  UNL     1      -7.449   7.698  66.313  1.00  0.00    -0.083 C  
HETATM    8  N   UNL     1      -8.174   9.617  66.604  1.00  0.00    -0.119 N  
HETATM    9  C   UNL     1      -7.926  12.059  66.957  1.00  0.00    -0.150 C  
HETATM   10  OXT UNL     1      -8.474  13.150  66.882  1.00  0.00    -0.170 OA 
HETATM   11  C   UNL     1      -6.964   9.179  66.189  1.00  0.00    -0.086 C  
HETATM   12  O   UNL     1      -6.586  11.983  66.933  1.00  0.00    -0.134 OA 
ENDROOT
BRANCH   4  13
HETATM   13  C   UNL     1     -10.457  11.991  68.466  1.00  0.00    -0.229 C  
BRANCH  13  14
HETATM   14  S   UNL     1     -11.822  12.713  67.512  1.00  0.00    -0.263 SA 
BRANCH  14  15
HETATM   15  C   UNL     1     -11.699  14.373  67.952  1.00  0.00    -0.356 A  
HETATM   16  N   UNL     1     -11.233  15.358  67.221  1.00  0.00    -0.308 NA 
HETATM   17  C   UNL     1     -12.538  14.159  70.329  1.00  0.00    -0.306 C  
HETATM   18  N   UNL     1     -11.195  16.453  68.058  1.00  0.00    -0.289 NA 
HETATM   19  N   UNL     1     -11.977  14.845  69.199  1.00  0.00    -0.297 NA 
HETATM   20  N   UNL     1     -11.643  16.147  69.270  1.00  0.00    -0.309 NA 
ENDBRANCH  14  15
ENDBRANCH  13  14
ENDBRANCH   4  13
BRANCH   7  21
HETATM   21  N   UNL     1      -6.694   6.999  67.452  1.00  0.00    -0.065 N  
HETATM   22  H   UNL     1      -6.072   7.637  67.948  1.00  0.00     0.000 HD 
HETATM   23  O   UNL     1      -5.924   5.500  68.960  1.00  0.00    -0.021 OA 
HETATM   24  C   UNL     1      -6.647   5.692  67.982  1.00  0.00    -0.053 C  
BRANCH  24  25
HETATM   25  C   UNL     1      -7.268   4.472  67.304  1.00  0.00    -0.069 C  
BRANCH  25  26
HETATM   26  C   UNL     1      -6.577   3.746  66.211  1.00  0.00    -0.038 A  
HETATM   27  H2  UNL     1      -6.200   2.279  62.229  1.00  0.00     0.000 HD 
HETATM   28  H1  UNL     1      -6.937   3.878  62.292  1.00  0.00     0.000 HD 
HETATM   29  C   UNL     1      -5.913   2.538  66.397  1.00  0.00    -0.023 A  
HETATM   30  N   UNL     1      -6.725   4.082  64.869  1.00  0.00    -0.047 NA 
HETATM   31  N   UNL     1      -6.502   3.089  62.770  1.00  0.00    -0.018 NA 
HETATM   32  S   UNL     1      -5.594   1.776  64.899  1.00  0.00    -0.009 SA 
HETATM   33  C   UNL     1      -6.322   3.099  64.098  1.00  0.00    -0.023 A  
ENDBRANCH  25  26
BRANCH  25  34
HETATM   34  N   UNL     1      -8.503   4.065  67.422  1.00  0.00    -0.098 NA 
HETATM   35  H   UNL     1      -9.149   4.677  67.923  1.00  0.00     0.000 HD 
BRANCH  34  36
HETATM   36  O   UNL     1      -9.020   2.862  66.923  1.00  0.00    -0.138 OA 
HETATM   37  C   UNL     1      -9.406   1.846  67.812  1.00  0.00    -0.139 C  
ENDBRANCH  34  36
ENDBRANCH  25  34
ENDBRANCH  24  25
ENDBRANCH   7  21
TORSDOF 8
ENDMDL
MODEL      263
REMARK 921   NORMALIZED FREE ENERGY PREDICTED BY IDOCK:   -3.13 KCAL/MOL
REMARK 922        TOTAL FREE ENERGY PREDICTED BY IDOCK:   -5.75 KCAL/MOL
REMARK 923 INTER-LIGAND FREE ENERGY PREDICTED BY IDOCK:   -4.49 KCAL/MOL
REMARK 924 INTRA-LIGAND FREE ENERGY PREDICTED BY IDOCK:   -1.26 KCAL/MOL
REMARK 927      BINDING AFFINITY PREDICTED BY RF-SCORE:    0.00 PKD
ROOT
HETATM    1  C   UNL     1     -10.126  11.856  67.284  1.00  0.00    -0.196 C  
HETATM    2  S   UNL     1     -11.349  12.816  66.435  1.00  0.00    -0.342 SA 
HETATM    3  C   UNL     1     -10.634  14.479  66.413  1.00  0.00    -0.302 C  
HETATM    4  C   UNL     1      -9.218  14.665  66.907  1.00  0.00    -0.267 C  
HETATM    5  O   UNL     1      -7.852  11.380  69.527  1.00  0.00     0.103 OA 
HETATM    6  CA  UNL     1      -8.497  13.738  67.584  1.00  0.00    -0.183 C  
HETATM    7  CA  UNL     1     -10.236  10.999  68.635  1.00  0.00    -0.199 C  
HETATM    8  N   UNL     1      -9.056  12.552  67.934  1.00  0.00    -0.191 N  
HETATM    9  C   UNL     1      -7.094  14.067  68.017  1.00  0.00    -0.145 C  
HETATM   10  OXT UNL     1      -6.377  14.824  67.376  1.00  0.00    -0.320 OA 
HETATM   11  C   UNL     1      -8.776  11.540  68.787  1.00  0.00    -0.044 C  
HETATM   12  O   UNL     1      -6.629  13.496  69.138  1.00  0.00    -0.103 OA 
ENDROOT
BRANCH   4  13
HETATM   13  C   UNL     1      -8.754  16.115  66.698  1.00  0.00    -0.265 C  
BRANCH  13  14
HETATM   14  S   UNL     1      -9.452  17.142  68.021  1.00  0.00    -0.270 SA 
BRANCH  14  15
HETATM   15  C   UNL     1      -8.031  17.866  68.670  1.00  0.00    -0.281 A  
HETATM   16  N   UNL     1      -7.175  17.330  69.507  1.00  0.00    -0.010 NA 
HETATM   17  C   UNL     1      -8.295  20.148  67.608  1.00  0.00    -0.298 C  
HETATM   18  N   UNL     1      -6.306  18.345  69.847  1.00  0.00    -0.133 NA 
HETATM   19  N   UNL     1      -7.688  19.168  68.465  1.00  0.00    -0.328 NA 
HETATM   20  N   UNL     1      -6.616  19.473  69.219  1.00  0.00    -0.326 NA 
ENDBRANCH  14  15
ENDBRANCH  13  14
ENDBRANCH   4  13
BRANCH   7  21
HETATM   21  N   UNL     1     -10.992  11.169  69.960  1.00  0.00    -0.471 N  
HETATM   22  H   UNL     1     -11.175  12.149  70.174  1.00  0.00     0.000 HD 
HETATM   23  O   UNL     1     -12.102  10.812  71.898  1.00  0.00     0.021 OA 
HETATM   24  C   UNL     1     -11.495  10.303  70.954  1.00  0.00    -0.339 C  
BRANCH  24  25
HETATM   25  C   UNL     1     -11.162   8.815  71.041  1.00  0.00    -0.273 C  
BRANCH  25  26
HETATM   26  C   UNL     1      -9.872   8.271  70.554  1.00  0.00    -0.183 A  
HETATM   27  H2  UNL     1      -7.360   5.219  68.963  1.00  0.00     0.000 HD 
HETATM   28  H1  UNL     1      -8.983   5.183  68.277  1.00  0.00     0.000 HD 
HETATM   29  C   UNL     1      -8.649   8.538  71.163  1.00  0.00    -0.169 A  
HETATM   30  N   UNL     1      -9.790   7.267  69.593  1.00  0.00    -0.163 NA 
HETATM   31  N   UNL     1      -8.295   5.621  68.889  1.00  0.00    -0.103 NA 
HETATM   32  S   UNL     1      -7.444   7.451  70.624  1.00  0.00    -0.079 SA 
HETATM   33  C   UNL     1      -8.598   6.717  69.597  1.00  0.00    -0.133 A  
ENDBRANCH  25  26
BRANCH  25  34
HETATM   34  N   UNL     1     -11.995   7.850  71.324  1.00  0.00    -0.296 NA 
HETATM   35  H   UNL     1     -12.419   7.356  70.539  1.00  0.00     0.000 HD 
BRANCH  34  36
HETATM   36  O   UNL     1     -12.358   7.434  72.612  1.00  0.00    -0.031 OA 
HETATM   37  C   UNL     1     -13.514   7.956  73.214  1.00  0.00     1.825 C  
ENDBRANCH  34  36
ENDBRANCH  25  34
ENDBRANCH  24  25
ENDBRANCH   7  21
TORSDOF 8
ENDMDL
MODEL      264
REMARK 921   NORMALIZED FREE ENERGY PREDICTED BY IDOCK:   -3.05 KCAL/MOL
REMARK 922        TOTAL FREE ENERGY PREDICTED BY IDOCK:   -5.64 KCAL/MOL
REMARK 923 INTER-LIGAND FREE ENERGY PREDICTED BY IDOCK:   -4.82 KCAL/MOL
REMARK 924 INTRA-LIGAND FREE ENERGY PREDICTED BY IDOCK:   -0.83 KCAL/MOL
REMARK 927      BINDING AFFINITY PREDICTED BY RF-SCORE:    0.00 PKD
ROOT
HETATM    1  C   UNL     1      -6.328   7.628  72.066  1.00  0.00    -0.042 C  
HETATM    2  S   UNL     1      -7.060   9.047  71.298  1.00  0.00    -0.042 SA 
HETATM    3  C   UNL     1      -8.834   8.794  71.557  1.00  0.00    -0.225 C  
HETATM    4  C   UNL     1      -9.282   7.647  72.433  1.00  0.00    -0.201 C  
HETATM    5  O   UNL     1      -6.207   4.505  72.876  1.00  0.00    -0.022 OA 
HETATM    6  CA  UNL     1      -8.487   6.638  72.868  1.00  0.00    -0.118 C  
HETATM    7  CA  UNL     1      -5.391   6.484  71.448  1.00  0.00    -0.026 C  
HETATM    8  N   UNL     1      -7.192   6.559  72.468  1.00  0.00    -0.081 N  
HETATM    9  C   UNL     1      -9.075   5.559  73.735  1.00  0.00    -0.123 C  
HETATM   10  OXT UNL     1     -10.000   5.775  74.506  1.00  0.00    -0.217 OA 
HETATM   11  C   UNL     1      -6.213   5.627  72.464  1.00  0.00    -0.047 C  
HETATM   12  O   UNL     1      -8.549   4.327  73.652  1.00  0.00    -0.092 OA 
ENDROOT
BRANCH   4  13
HETATM   13  C   UNL     1     -10.805   7.671  72.626  1.00  0.00    -0.340 C  
BRANCH  13  14
HETATM   14  S   UNL     1     -11.584   8.062  71.033  1.00  0.00    -0.270 SA 
BRANCH  14  15
HETATM   15  C   UNL     1     -12.001   9.717  71.261  1.00  0.00    -0.380 A  
HETATM   16  N   UNL     1     -12.895  10.207  72.087  1.00  0.00    -0.355 NA 
HETATM   17  C   UNL     1     -10.492  10.697  69.482  1.00  0.00    -0.204 C  
HETATM   18  N   UNL     1     -12.974  11.552  71.791  1.00  0.00    -0.438 NA 
HETATM   19  N   UNL     1     -11.511  10.730  70.494  1.00  0.00    -0.313 NA 
HETATM   20  N   UNL     1     -12.135  11.879  70.815  1.00  0.00    -0.313 NA 
ENDBRANCH  14  15
ENDBRANCH  13  14
ENDBRANCH   4  13
BRANCH   7  21
HETATM   21  N   UNL     1      -5.323   5.761  70.096  1.00  0.00    -0.008 N  
HETATM   22  H   UNL     1      -4.386   5.787  69.693  1.00  0.00     0.000 HD 
HETATM   23  O   UNL     1      -5.802   4.569  68.233  1.00  0.00    -0.023 OA 
HETATM   24  C   UNL     1      -6.237   5.069  69.272  1.00  0.00    -0.030 C  
BRANCH  24  25
HETATM   25  C   UNL     1      -7.750   5.076  69.481  1.00  0.00    -0.067 C  
BRANCH  25  26
HETATM   26  C   UNL     1      -8.482   3.878  69.958  1.00  0.00    -0.063 A  
HETATM   27  H2  UNL     1     -10.770   1.664  72.789  1.00  0.00     0.000 HD 
HETATM   28  H1  UNL     1     -11.211   3.370  72.750  1.00  0.00     0.000 HD 
HETATM   29  C   UNL     1      -8.030   2.576  69.759  1.00  0.00    -0.041 A  
HETATM   30  N   UNL     1      -9.555   3.950  70.840  1.00  0.00    -0.177 NA 
HETATM   31  N   UNL     1     -10.659   2.594  72.384  1.00  0.00    -0.033 NA 
HETATM   32  S   UNL     1      -8.864   1.477  70.768  1.00  0.00    -0.064 SA 
HETATM   33  C   UNL     1      -9.790   2.776  71.381  1.00  0.00    -0.095 A  
ENDBRANCH  25  26
BRANCH  25  34
HETATM   34  N   UNL     1      -8.583   5.998  69.079  1.00  0.00    -0.119 NA 
HETATM   35  H   UNL     1      -9.286   6.314  69.747  1.00  0.00     0.000 HD 
BRANCH  34  36
HETATM   36  O   UNL     1      -8.596   6.591  67.809  1.00  0.00    -0.117 OA 
HETATM   37  C   UNL     1      -8.001   7.849  67.621  1.00  0.00    -0.124 C  
ENDBRANCH  34  36
ENDBRANCH  25  34
ENDBRANCH  24  25
ENDBRANCH   7  21
TORSDOF 8
ENDMDL
MODEL      265
REMARK 921   NORMALIZED FREE ENERGY PREDICTED BY IDOCK:   -3.00 KCAL/MOL
REMARK 922        TOTAL FREE ENERGY PREDICTED BY IDOCK:   -5.57 KCAL/MOL
REMARK 923 INTER-LIGAND FREE ENERGY PREDICTED BY IDOCK:   -5.63 KCAL/MOL
REMARK 924 INTRA-LIGAND FREE ENERGY PREDICTED BY IDOCK:    0.06 KCAL/MOL
REMARK 927      BINDING AFFINITY PREDICTED BY RF-SCORE:    0.00 PKD
ROOT
HETATM    1  C   UNL     1     -10.115  17.493  65.888  1.00  0.00    -0.185 C  
HETATM    2  S   UNL     1     -10.658  19.166  65.674  1.00  0.00    -0.017 SA 
HETATM    3  C   UNL     1      -9.117  20.115  65.728  1.00  0.00     0.071 C  
HETATM    4  C   UNL     1      -7.805  19.366  65.761  1.00  0.00    -0.120 C  
HETATM    5  O   UNL     1      -8.231  15.190  67.142  1.00  0.00    -0.191 OA 
HETATM    6  CA  UNL     1      -7.670  18.035  65.984  1.00  0.00    -0.176 C  
HETATM    7  CA  UNL     1     -10.489  16.419  67.019  1.00  0.00    -0.291 C  
HETATM    8  N   UNL     1      -8.754  17.271  66.272  1.00  0.00    -0.248 N  
HETATM    9  C   UNL     1      -6.295  17.426  65.991  1.00  0.00    -0.102 C  
HETATM   10  OXT UNL     1      -5.384  17.867  65.303  1.00  0.00    -0.123 OA 
HETATM   11  C   UNL     1      -8.990  16.042  66.786  1.00  0.00    -0.246 C  
HETATM   12  O   UNL     1      -6.081  16.358  66.775  1.00  0.00    -0.314 OA 
ENDROOT
BRANCH   4  13
HETATM   13  C   UNL     1      -6.620  20.339  65.683  1.00  0.00    -0.254 C  
BRANCH  13  14
HETATM   14  S   UNL     1      -6.458  21.182  67.282  1.00  0.00    -0.353 SA 
BRANCH  14  15
HETATM   15  C   UNL     1      -7.259  20.074  68.329  1.00  0.00    -0.277 A  
HETATM   16  N   UNL     1      -8.546  20.003  68.579  1.00  0.00    -0.108 NA 
HETATM   17  C   UNL     1      -5.206  18.879  69.198  1.00  0.00    -0.194 C  
HETATM   18  N   UNL     1      -8.675  19.071  69.587  1.00  0.00     0.436 NA 
HETATM   19  N   UNL     1      -6.607  19.189  69.133  1.00  0.00    -0.291 NA 
HETATM   20  N   UNL     1      -7.494  18.573  69.935  1.00  0.00     0.606 NA 
ENDBRANCH  14  15
ENDBRANCH  13  14
ENDBRANCH   4  13
BRANCH   7  21
HETATM   21  N   UNL     1     -10.776  16.497  68.525  1.00  0.00    -0.318 N  
HETATM   22  H   UNL     1     -10.640  17.437  68.893  1.00  0.00     0.000 HD 
HETATM   23  O   UNL     1     -11.352  16.029  70.662  1.00  0.00    -0.360 OA 
HETATM   24  C   UNL     1     -11.181  15.587  69.524  1.00  0.00    -0.299 C  
BRANCH  24  25
HETATM   25  C   UNL     1     -11.221  14.071  69.336  1.00  0.00    -0.237 C  
BRANCH  25  26
HETATM   26  C   UNL     1     -11.345  13.451  67.995  1.00  0.00    -0.286 A  
HETATM   27  H2  UNL     1      -9.819  12.012  64.286  1.00  0.00     0.000 HD 
HETATM   28  H1  UNL     1      -8.734  11.683  65.636  1.00  0.00     0.000 HD 
HETATM   29  C   UNL     1     -12.379  13.741  67.110  1.00  0.00    -0.204 A  
HETATM   30  N   UNL     1     -10.325  12.706  67.410  1.00  0.00    -0.220 NA 
HETATM   31  N   UNL     1      -9.619  12.049  65.287  1.00  0.00    -0.161 NA 
HETATM   32  S   UNL     1     -12.010  13.193  65.533  1.00  0.00    -0.439 SA 
HETATM   33  C   UNL     1     -10.526  12.579  66.119  1.00  0.00    -0.249 A  
ENDBRANCH  25  26
BRANCH  25  34
HETATM   34  N   UNL     1     -11.373  13.178  70.276  1.00  0.00    -0.417 NA 
HETATM   35  H   UNL     1     -11.247  13.489  71.239  1.00  0.00     0.000 HD 
BRANCH  34  36
HETATM   36  O   UNL     1     -11.694  11.828  70.077  1.00  0.00    -0.320 OA 
HETATM   37  C   UNL     1     -13.029  11.405  70.184  1.00  0.00     0.261 C  
ENDBRANCH  34  36
ENDBRANCH  25  34
ENDBRANCH  24  25
ENDBRANCH   7  21
TORSDOF 8
ENDMDL
MODEL      266
REMARK 921   NORMALIZED FREE ENERGY PREDICTED BY IDOCK:   -2.99 KCAL/MOL
REMARK 922        TOTAL FREE ENERGY PREDICTED BY IDOCK:   -5.55 KCAL/MOL
REMARK 923 INTER-LIGAND FREE ENERGY PREDICTED BY IDOCK:   -3.57 KCAL/MOL
REMARK 924 INTRA-LIGAND FREE ENERGY PREDICTED BY IDOCK:   -1.98 KCAL/MOL
REMARK 927      BINDING AFFINITY PREDICTED BY RF-SCORE:    0.00 PKD
ROOT
HETATM    1  C   UNL     1      -8.018   4.506  69.920  1.00  0.00    -0.060 C  
HETATM    2  S   UNL     1      -9.765   4.238  69.787  1.00  0.00    -0.192 SA 
HETATM    3  C   UNL     1      -9.982   3.751  68.057  1.00  0.00     0.208 C  
HETATM    4  C   UNL     1      -8.752   3.520  67.209  1.00  0.00    -0.131 C  
HETATM    5  O   UNL     1      -5.140   5.482  68.830  1.00  0.00     0.000 OA 
HETATM    6  CA  UNL     1      -7.488   3.865  67.555  1.00  0.00    -0.068 C  
HETATM    7  CA  UNL     1      -7.201   5.822  70.334  1.00  0.00    -0.071 C  
HETATM    8  N   UNL     1      -7.247   4.530  68.714  1.00  0.00    -0.052 N  
HETATM    9  C   UNL     1      -6.359   3.575  66.605  1.00  0.00    -0.032 C  
HETATM   10  OXT UNL     1      -6.378   2.616  65.845  1.00  0.00    -0.024 OA 
HETATM   11  C   UNL     1      -6.231   5.240  69.254  1.00  0.00    -0.033 C  
HETATM   12  O   UNL     1      -5.300   4.400  66.611  1.00  0.00    -0.012 OA 
ENDROOT
BRANCH   4  13
HETATM   13  C   UNL     1      -9.140   3.001  65.817  1.00  0.00    -0.145 C  
BRANCH  13  14
HETATM   14  S   UNL     1      -9.948   4.345  64.903  1.00  0.00    -0.076 SA 
BRANCH  14  15
HETATM   15  C   UNL     1      -8.605   5.059  64.097  1.00  0.00    -0.125 A  
HETATM   16  N   UNL     1      -8.010   4.632  63.008  1.00  0.00    -0.073 NA 
HETATM   17  C   UNL     1      -8.192   6.948  65.729  1.00  0.00    -0.132 C  
HETATM   18  N   UNL     1      -6.904   5.441  62.849  1.00  0.00    -0.032 NA 
HETATM   19  N   UNL     1      -7.912   6.125  64.586  1.00  0.00    -0.120 NA 
HETATM   20  N   UNL     1      -6.834   6.352  63.813  1.00  0.00    -0.040 NA 
ENDBRANCH  14  15
ENDBRANCH  13  14
ENDBRANCH   4  13
BRANCH   7  21
HETATM   21  N   UNL     1      -7.393   7.327  70.100  1.00  0.00    -0.077 N  
HETATM   22  H   UNL     1      -6.858   7.662  69.300  1.00  0.00     0.000 HD 
HETATM   23  O   UNL     1      -8.066   9.483  70.217  1.00  0.00    -0.152 OA 
HETATM   24  C   UNL     1      -8.127   8.360  70.720  1.00  0.00    -0.111 C  
BRANCH  24  25
HETATM   25  C   UNL     1      -8.818   8.223  72.075  1.00  0.00    -0.193 C  
BRANCH  25  26
HETATM   26  C   UNL     1     -10.141   7.569  72.219  1.00  0.00    -0.199 A  
HETATM   27  H2  UNL     1     -12.715   4.283  73.075  1.00  0.00     0.000 HD 
HETATM   28  H1  UNL     1     -11.311   4.336  74.139  1.00  0.00     0.000 HD 
HETATM   29  C   UNL     1     -11.195   7.773  71.333  1.00  0.00    -0.246 A  
HETATM   30  N   UNL     1     -10.375   6.524  73.108  1.00  0.00    -0.214 NA 
HETATM   31  N   UNL     1     -11.861   4.749  73.386  1.00  0.00    -0.074 NA 
HETATM   32  S   UNL     1     -12.405   6.582  71.535  1.00  0.00    -0.122 SA 
HETATM   33  C   UNL     1     -11.483   5.891  72.798  1.00  0.00    -0.230 A  
ENDBRANCH  25  26
BRANCH  25  34
HETATM   34  N   UNL     1      -8.476   8.823  73.184  1.00  0.00    -0.320 NA 
HETATM   35  H   UNL     1      -9.173   9.425  73.623  1.00  0.00     0.000 HD 
BRANCH  34  36
HETATM   36  O   UNL     1      -7.233   8.713  73.823  1.00  0.00    -0.331 OA 
HETATM   37  C   UNL     1      -6.782   7.457  74.259  1.00  0.00    -0.088 C  
ENDBRANCH  34  36
ENDBRANCH  25  34
ENDBRANCH  24  25
ENDBRANCH   7  21
TORSDOF 8
ENDMDL
MODEL      267
REMARK 921   NORMALIZED FREE ENERGY PREDICTED BY IDOCK:   -2.75 KCAL/MOL
REMARK 922        TOTAL FREE ENERGY PREDICTED BY IDOCK:   -5.19 KCAL/MOL
REMARK 923 INTER-LIGAND FREE ENERGY PREDICTED BY IDOCK:   -5.83 KCAL/MOL
REMARK 924 INTRA-LIGAND FREE ENERGY PREDICTED BY IDOCK:    0.64 KCAL/MOL
REMARK 927      BINDING AFFINITY PREDICTED BY RF-SCORE:    0.00 PKD
ROOT
HETATM    1  C   UNL     1     -10.193  17.698  65.969  1.00  0.00    -0.297 C  
HETATM    2  S   UNL     1     -10.937  19.277  66.274  1.00  0.00     0.032 SA 
HETATM    3  C   UNL     1      -9.516  20.350  66.604  1.00  0.00    -0.305 C  
HETATM    4  C   UNL     1      -8.125  19.794  66.401  1.00  0.00    -0.350 C  
HETATM    5  O   UNL     1      -8.002  15.378  66.460  1.00  0.00    -0.137 OA 
HETATM    6  CA  UNL     1      -7.826  18.485  66.212  1.00  0.00    -0.254 C  
HETATM    7  CA  UNL     1     -10.391  16.297  66.725  1.00  0.00    -0.296 C  
HETATM    8  N   UNL     1      -8.800  17.541  66.261  1.00  0.00    -0.220 N  
HETATM    9  C   UNL     1      -6.390  18.077  66.027  1.00  0.00    -0.253 C  
HETATM   10  OXT UNL     1      -5.567  18.814  65.500  1.00  0.00    -0.157 OA 
HETATM   11  C   UNL     1      -8.869  16.196  66.381  1.00  0.00    -0.320 C  
HETATM   12  O   UNL     1      -6.021  16.859  66.451  1.00  0.00    -0.303 OA 
ENDROOT
BRANCH   4  13
HETATM   13  C   UNL     1      -7.066  20.885  66.615  1.00  0.00    -0.168 C  
BRANCH  13  14
HETATM   14  S   UNL     1      -6.627  20.928  68.376  1.00  0.00     0.033 SA 
BRANCH  14  15
HETATM   15  C   UNL     1      -7.346  19.468  68.937  1.00  0.00    -0.363 A  
HETATM   16  N   UNL     1      -8.618  19.245  69.172  1.00  0.00    -0.219 NA 
HETATM   17  C   UNL     1      -5.218  18.131  69.232  1.00  0.00    -0.188 C  
HETATM   18  N   UNL     1      -8.673  17.994  69.750  1.00  0.00     1.053 NA 
HETATM   19  N   UNL     1      -6.630  18.376  69.324  1.00  0.00    -0.262 NA 
HETATM   20  N   UNL     1      -7.462  17.458  69.851  1.00  0.00     0.793 NA 
ENDBRANCH  14  15
ENDBRANCH  13  14
ENDBRANCH   4  13
BRANCH   7  21
HETATM   21  N   UNL     1     -10.621  15.884  68.185  1.00  0.00    -0.270 N  
HETATM   22  H   UNL     1     -10.264  16.579  68.841  1.00  0.00     0.000 HD 
HETATM   23  O   UNL     1     -11.243  14.808  70.075  1.00  0.00    -0.253 OA 
HETATM   24  C   UNL     1     -11.203  14.780  68.844  1.00  0.00    -0.266 C  
BRANCH  24  25
HETATM   25  C   UNL     1     -11.595  13.478  68.147  1.00  0.00    -0.333 C  
BRANCH  25  26
HETATM   26  C   UNL     1     -10.902  12.198  68.431  1.00  0.00    -0.224 A  
HETATM   27  H2  UNL     1      -9.849   8.876  70.882  1.00  0.00     0.000 HD 
HETATM   28  H1  UNL     1     -11.521   9.381  71.112  1.00  0.00     0.000 HD 
HETATM   29  C   UNL     1      -9.597  11.929  68.030  1.00  0.00    -0.193 A  
HETATM   30  N   UNL     1     -11.404  11.248  69.315  1.00  0.00    -0.260 NA 
HETATM   31  N   UNL     1     -10.629   9.483  70.628  1.00  0.00    -0.285 NA 
HETATM   32  S   UNL     1      -8.969  10.570  68.855  1.00  0.00    -0.172 SA 
HETATM   33  C   UNL     1     -10.465  10.399  69.666  1.00  0.00    -0.243 A  
ENDBRANCH  25  26
BRANCH  25  34
HETATM   34  N   UNL     1     -12.381  13.360  67.112  1.00  0.00    -0.236 NA 
HETATM   35  H   UNL     1     -13.200  13.969  67.077  1.00  0.00     0.000 HD 
BRANCH  34  36
HETATM   36  O   UNL     1     -12.201  12.470  66.045  1.00  0.00    -0.605 OA 
HETATM   37  C   UNL     1     -11.396  12.841  64.955  1.00  0.00    -0.309 C  
ENDBRANCH  34  36
ENDBRANCH  25  34
ENDBRANCH  24  25
ENDBRANCH   7  21
TORSDOF 8
ENDMDL
MODEL      268
REMARK 921   NORMALIZED FREE ENERGY PREDICTED BY IDOCK:   -2.28 KCAL/MOL
REMARK 922        TOTAL FREE ENERGY PREDICTED BY IDOCK:   -4.50 KCAL/MOL
REMARK 923 INTER-LIGAND FREE ENERGY PREDICTED BY IDOCK:   -3.60 KCAL/MOL
REMARK 924 INTRA-LIGAND FREE ENERGY PREDICTED BY IDOCK:   -0.91 KCAL/MOL
REMARK 927      BINDING AFFINITY PREDICTED BY RF-SCORE:    0.00 PKD
ROOT
HETATM    1  C   UNL     1     -11.945  10.868  67.933  1.00  0.00     0.325 C  
HETATM    2  S   UNL     1     -10.958   9.444  67.560  1.00  0.00     0.142 SA 
HETATM    3  C   UNL     1     -10.535   8.791  69.195  1.00  0.00    -0.217 C  
HETATM    4  C   UNL     1     -11.180   9.411  70.412  1.00  0.00    -0.309 C  
HETATM    5  O   UNL     1     -12.743  13.475  69.663  1.00  0.00    -0.034 OA 
HETATM    6  CA  UNL     1     -11.881  10.571  70.421  1.00  0.00    -0.340 C  
HETATM    7  CA  UNL     1     -11.723  12.410  67.553  1.00  0.00    -0.357 C  
HETATM    8  N   UNL     1     -11.995  11.316  69.292  1.00  0.00    -0.339 N  
HETATM    9  C   UNL     1     -12.465  11.069  71.714  1.00  0.00    -0.089 C  
HETATM   10  OXT UNL     1     -12.835  10.307  72.598  1.00  0.00     0.084 OA 
HETATM   11  C   UNL     1     -12.358  12.579  68.972  1.00  0.00     0.212 C  
HETATM   12  O   UNL     1     -12.587  12.395  71.883  1.00  0.00    -0.116 OA 
ENDROOT
BRANCH   4  13
HETATM   13  C   UNL     1     -10.789   8.646  71.685  1.00  0.00    -0.304 C  
BRANCH  13  14
HETATM   14  S   UNL     1      -9.801   7.198  71.209  1.00  0.00    -0.176 SA 
BRANCH  14  15
HETATM   15  C   UNL     1      -9.531   6.458  72.740  1.00  0.00    -0.143 A  
HETATM   16  N   UNL     1      -8.475   6.583  73.509  1.00  0.00    -0.122 NA 
HETATM   17  C   UNL     1     -11.656   5.088  72.837  1.00  0.00    -0.178 C  
HETATM   18  N   UNL     1      -8.660   5.684  74.539  1.00  0.00    -0.110 NA 
HETATM   19  N   UNL     1     -10.367   5.534  73.289  1.00  0.00    -0.194 NA 
HETATM   20  N   UNL     1      -9.811   5.036  74.409  1.00  0.00    -0.167 NA 
ENDBRANCH  14  15
ENDBRANCH  13  14
ENDBRANCH   4  13
BRANCH   7  21
HETATM   21  N   UNL     1     -10.495  13.321  67.424  1.00  0.00    -0.242 N  
HETATM   22  H   UNL     1     -10.304  13.833  68.285  1.00  0.00     0.000 HD 
HETATM   23  O   UNL     1      -8.654  14.407  66.684  1.00  0.00    -0.164 OA 
HETATM   24  C   UNL     1      -9.565  13.626  66.407  1.00  0.00    -0.268 C  
BRANCH  24  25
HETATM   25  C   UNL     1      -9.731  13.215  64.945  1.00  0.00     0.120 C  
BRANCH  25  26
HETATM   26  C   UNL     1      -9.184  11.940  64.421  1.00  0.00     0.336 A  
HETATM   27  H2  UNL     1      -6.478   8.649  64.418  1.00  0.00     0.000 HD 
HETATM   28  H1  UNL     1      -6.927   9.153  66.046  1.00  0.00     0.000 HD 
HETATM   29  C   UNL     1      -9.040  11.670  63.064  1.00  0.00     0.018 A  
HETATM   30  N   UNL     1      -8.556  10.999  65.231  1.00  0.00    -0.107 NA 
HETATM   31  N   UNL     1      -7.024   9.251  65.036  1.00  0.00    -0.084 NA 
HETATM   32  S   UNL     1      -8.019  10.322  62.812  1.00  0.00    -0.152 SA 
HETATM   33  C   UNL     1      -7.856  10.157  64.506  1.00  0.00    -0.141 A  
ENDBRANCH  25  26
BRANCH  25  34
HETATM   34  N   UNL     1     -10.147  13.977  63.969  1.00  0.00    -0.290 NA 
HETATM   35  H   UNL     1      -9.764  13.795  63.041  1.00  0.00     0.000 HD 
BRANCH  34  36
HETATM   36  O   UNL     1     -11.071  15.024  64.085  1.00  0.00    -0.024 OA 
HETATM   37  C   UNL     1     -10.704  16.210  64.738  1.00  0.00    -0.166 C  
ENDBRANCH  34  36
ENDBRANCH  25  34
ENDBRANCH  24  25
ENDBRANCH   7  21
TORSDOF 8
ENDMDL
MODEL      269
REMARK 921   NORMALIZED FREE ENERGY PREDICTED BY IDOCK:   -1.19 KCAL/MOL
REMARK 922        TOTAL FREE ENERGY PREDICTED BY IDOCK:   -2.90 KCAL/MOL
REMARK 923 INTER-LIGAND FREE ENERGY PREDICTED BY IDOCK:   -2.35 KCAL/MOL
REMARK 924 INTRA-LIGAND FREE ENERGY PREDICTED BY IDOCK:   -0.55 KCAL/MOL
REMARK 927      BINDING AFFINITY PREDICTED BY RF-SCORE:    0.00 PKD
ROOT
HETATM    1  C   UNL     1      -9.114   2.192  69.597  1.00  0.00    -0.107 C  
HETATM    2  S   UNL     1     -10.006   3.123  68.380  1.00  0.00     0.867 SA 
HETATM    3  C   UNL     1      -9.121   4.702  68.333  1.00  0.00    -0.120 C  
HETATM    4  C   UNL     1      -7.837   4.837  69.117  1.00  0.00    -0.071 C  
HETATM    5  O   UNL     1      -7.457   1.845  72.346  1.00  0.00    -0.040 OA 
HETATM    6  CA  UNL     1      -7.391   3.957  70.046  1.00  0.00    -0.042 C  
HETATM    7  CA  UNL     1      -9.613   1.542  70.975  1.00  0.00    -0.124 C  
HETATM    8  N   UNL     1      -8.142   2.880  70.392  1.00  0.00    -0.042 N  
HETATM    9  C   UNL     1      -6.090   4.225  70.752  1.00  0.00    -0.014 C  
HETATM   10  OXT UNL     1      -5.169   4.824  70.212  1.00  0.00     0.000 OA 
HETATM   11  C   UNL     1      -8.172   1.977  71.398  1.00  0.00    -0.047 C  
HETATM   12  O   UNL     1      -5.950   3.778  72.009  1.00  0.00    -0.012 OA 
ENDROOT
BRANCH   4  13
HETATM   13  C   UNL     1      -7.179   6.200  68.854  1.00  0.00    -0.084 C  
BRANCH  13  14
HETATM   14  S   UNL     1      -8.473   7.388  68.396  1.00  0.00    -0.125 SA 
BRANCH  14  15
HETATM   15  C   UNL     1      -7.826   8.046  66.942  1.00  0.00    -0.103 A  
HETATM   16  N   UNL     1      -7.181   9.179  66.799  1.00  0.00    -0.085 NA 
HETATM   17  C   UNL     1      -8.641   6.246  65.361  1.00  0.00    -0.092 C  
HETATM   18  N   UNL     1      -7.009   9.337  65.440  1.00  0.00    -0.083 NA 
HETATM   19  N   UNL     1      -8.022   7.493  65.713  1.00  0.00    -0.110 NA 
HETATM   20  N   UNL     1      -7.524   8.313  64.769  1.00  0.00    -0.088 NA 
ENDBRANCH  14  15
ENDBRANCH  13  14
ENDBRANCH   4  13
BRANCH   7  21
HETATM   21  N   UNL     1     -10.618   1.956  72.059  1.00  0.00     0.025 N  
HETATM   22  H   UNL     1     -11.454   1.372  72.049  1.00  0.00     0.000 HD 
HETATM   23  O   UNL     1     -11.658   2.956  73.801  1.00  0.00    -0.147 OA 
HETATM   24  C   UNL     1     -10.670   2.945  73.064  1.00  0.00    -0.125 C  
BRANCH  24  25
HETATM   25  C   UNL     1      -9.693   4.114  73.165  1.00  0.00    -0.125 C  
BRANCH  25  26
HETATM   26  C   UNL     1      -9.886   5.366  72.396  1.00  0.00    -0.163 A  
HETATM   27  H2  UNL     1      -9.295   9.514  71.620  1.00  0.00     0.000 HD 
HETATM   28  H1  UNL     1      -7.843   8.729  72.238  1.00  0.00     0.000 HD 
HETATM   29  C   UNL     1     -11.109   5.749  71.851  1.00  0.00    -0.248 A  
HETATM   30  N   UNL     1      -8.931   6.377  72.345  1.00  0.00    -0.135 NA 
HETATM   31  N   UNL     1      -8.813   8.669  71.928  1.00  0.00    -0.264 NA 
HETATM   32  S   UNL     1     -11.091   7.398  71.401  1.00  0.00    -0.243 SA 
HETATM   33  C   UNL     1      -9.465   7.499  71.920  1.00  0.00    -0.144 A  
ENDBRANCH  25  26
BRANCH  25  34
HETATM   34  N   UNL     1      -8.513   4.091  73.724  1.00  0.00    -0.091 NA 
HETATM   35  H   UNL     1      -7.993   3.214  73.679  1.00  0.00     0.000 HD 
BRANCH  34  36
HETATM   36  O   UNL     1      -7.897   5.165  74.381  1.00  0.00    -0.095 OA 
HETATM   37  C   UNL     1      -6.501   5.301  74.339  1.00  0.00    -0.070 C  
ENDBRANCH  34  36
ENDBRANCH  25  34
ENDBRANCH  24  25
ENDBRANCH   7  21
TORSDOF 8
ENDMDL
MODEL      270
REMARK 921   NORMALIZED FREE ENERGY PREDICTED BY IDOCK:   -1.04 KCAL/MOL
REMARK 922        TOTAL FREE ENERGY PREDICTED BY IDOCK:   -2.68 KCAL/MOL
REMARK 923 INTER-LIGAND FREE ENERGY PREDICTED BY IDOCK:   -2.83 KCAL/MOL
REMARK 924 INTRA-LIGAND FREE ENERGY PREDICTED BY IDOCK:    0.15 KCAL/MOL
REMARK 927      BINDING AFFINITY PREDICTED BY RF-SCORE:    0.00 PKD
ROOT
HETATM    1  C   UNL     1      -6.691  12.907  67.253  1.00  0.00    -0.047 C  
HETATM    2  S   UNL     1      -8.028  11.906  66.661  1.00  0.00     0.042 SA 
HETATM    3  C   UNL     1      -9.496  12.748  67.307  1.00  0.00    -0.204 C  
HETATM    4  C   UNL     1      -9.323  14.083  67.992  1.00  0.00    -0.205 C  
HETATM    5  O   UNL     1      -5.202  14.771  69.429  1.00  0.00    -0.088 OA 
HETATM    6  CA  UNL     1      -8.138  14.617  68.378  1.00  0.00    -0.147 C  
HETATM    7  CA  UNL     1      -5.450  12.526  68.195  1.00  0.00    -0.068 C  
HETATM    8  N   UNL     1      -6.984  13.919  68.223  1.00  0.00    -0.095 N  
HETATM    9  C   UNL     1      -8.121  15.960  69.056  1.00  0.00    -0.229 C  
HETATM   10  OXT UNL     1      -8.951  16.824  68.808  1.00  0.00    -0.248 OA 
HETATM   11  C   UNL     1      -5.718  13.984  68.692  1.00  0.00    -0.086 C  
HETATM   12  O   UNL     1      -7.151  16.203  69.950  1.00  0.00    -0.063 OA 
ENDROOT
BRANCH   4  13
HETATM   13  C   UNL     1     -10.686  14.687  68.359  1.00  0.00    -0.241 C  
BRANCH  13  14
HETATM   14  S   UNL     1     -10.961  16.160  67.334  1.00  0.00    -0.141 SA 
BRANCH  14  15
HETATM   15  C   UNL     1     -11.695  15.467  65.940  1.00  0.00     0.208 A  
HETATM   16  N   UNL     1     -12.262  14.288  65.841  1.00  0.00    -0.420 NA 
HETATM   17  C   UNL     1     -11.180  17.339  64.317  1.00  0.00     1.816 C  
HETATM   18  N   UNL     1     -12.554  14.129  64.502  1.00  0.00    -0.675 NA 
HETATM   19  N   UNL     1     -11.664  16.044  64.706  1.00  0.00    -0.076 NA 
HETATM   20  N   UNL     1     -12.187  15.196  63.801  1.00  0.00    -0.459 NA 
ENDBRANCH  14  15
ENDBRANCH  13  14
ENDBRANCH   4  13
BRANCH   7  21
HETATM   21  N   UNL     1      -5.258  11.595  69.400  1.00  0.00    -0.052 N  
HETATM   22  H   UNL     1      -4.637  11.997  70.101  1.00  0.00     0.000 HD 
HETATM   23  O   UNL     1      -5.380   9.884  70.875  1.00  0.00    -0.048 OA 
HETATM   24  C   UNL     1      -5.730  10.319  69.776  1.00  0.00    -0.044 C  
BRANCH  24  25
HETATM   25  C   UNL     1      -6.467   9.368  68.835  1.00  0.00    -0.047 C  
BRANCH  25  26
HETATM   26  C   UNL     1      -7.842   8.891  69.122  1.00  0.00    -0.093 A  
HETATM   27  H2  UNL     1     -11.552   8.937  71.216  1.00  0.00     0.000 HD 
HETATM   28  H1  UNL     1     -10.900  10.555  70.962  1.00  0.00     0.000 HD 
HETATM   29  C   UNL     1      -8.198   7.546  69.134  1.00  0.00    -0.131 A  
HETATM   30  N   UNL     1      -8.839   9.721  69.627  1.00  0.00    -0.195 NA 
HETATM   31  N   UNL     1     -10.835   9.547  70.821  1.00  0.00    -0.291 NA 
HETATM   32  S   UNL     1      -9.715   7.320  69.890  1.00  0.00    -0.174 SA 
HETATM   33  C   UNL     1      -9.824   9.009  70.126  1.00  0.00    -0.187 A  
ENDBRANCH  25  26
BRANCH  25  34
HETATM   34  N   UNL     1      -5.946   8.707  67.837  1.00  0.00    -0.046 NA 
HETATM   35  H   UNL     1      -4.970   8.422  67.927  1.00  0.00     0.000 HD 
BRANCH  34  36
HETATM   36  O   UNL     1      -6.608   8.356  66.653  1.00  0.00    -0.055 OA 
HETATM   37  C   UNL     1      -6.362   7.107  66.061  1.00  0.00    -0.044 C  
ENDBRANCH  34  36
ENDBRANCH  25  34
ENDBRANCH  24  25
ENDBRANCH   7  21
TORSDOF 8
ENDMDL
MODEL      271
REMARK 921   NORMALIZED FREE ENERGY PREDICTED BY IDOCK:   -1.01 KCAL/MOL
REMARK 922        TOTAL FREE ENERGY PREDICTED BY IDOCK:   -2.64 KCAL/MOL
REMARK 923 INTER-LIGAND FREE ENERGY PREDICTED BY IDOCK:   -2.12 KCAL/MOL
REMARK 924 INTRA-LIGAND FREE ENERGY PREDICTED BY IDOCK:   -0.52 KCAL/MOL
REMARK 927      BINDING AFFINITY PREDICTED BY RF-SCORE:    0.00 PKD
ROOT
HETATM    1  C   UNL     1     -11.110  14.507  69.629  1.00  0.00    -0.228 C  
HETATM    2  S   UNL     1     -12.535  14.467  68.577  1.00  0.00     0.422 SA 
HETATM    3  C   UNL     1     -11.831  14.201  66.930  1.00  0.00    -0.431 C  
HETATM    4  C   UNL     1     -10.351  13.917  66.812  1.00  0.00    -0.272 C  
HETATM    5  O   UNL     1      -8.048  15.241  70.343  1.00  0.00     0.452 OA 
HETATM    6  CA  UNL     1      -9.444  14.067  67.808  1.00  0.00    -0.209 C  
HETATM    7  CA  UNL     1     -10.574  15.661  70.603  1.00  0.00    -0.112 C  
HETATM    8  N   UNL     1      -9.819  14.569  69.013  1.00  0.00    -0.182 N  
HETATM    9  C   UNL     1      -7.999  13.748  67.543  1.00  0.00    -0.181 C  
HETATM   10  OXT UNL     1      -7.659  12.886  66.743  1.00  0.00     0.114 OA 
HETATM   11  C   UNL     1      -9.209  15.087  70.102  1.00  0.00     0.542 C  
HETATM   12  O   UNL     1      -7.066  14.434  68.221  1.00  0.00    -0.093 OA 
ENDROOT
BRANCH   4  13
HETATM   13  C   UNL     1      -9.971  13.603  65.358  1.00  0.00    -0.213 C  
BRANCH  13  14
HETATM   14  S   UNL     1     -11.178  12.425  64.686  1.00  0.00    -0.327 SA 
BRANCH  14  15
HETATM   15  C   UNL     1     -10.465  10.923  65.130  1.00  0.00    -0.246 A  
HETATM   16  N   UNL     1     -10.500  10.341  66.306  1.00  0.00    -0.185 NA 
HETATM   17  C   UNL     1      -9.338  10.415  62.922  1.00  0.00    -0.319 C  
HETATM   18  N   UNL     1      -9.661   9.250  66.203  1.00  0.00    -0.260 NA 
HETATM   19  N   UNL     1      -9.656  10.200  64.306  1.00  0.00    -0.304 NA 
HETATM   20  N   UNL     1      -9.138   9.160  64.986  1.00  0.00    -0.194 NA 
ENDBRANCH  14  15
ENDBRANCH  13  14
ENDBRANCH   4  13
BRANCH   7  21
HETATM   21  N   UNL     1     -10.545  17.195  70.542  1.00  0.00     0.319 N  
HETATM   22  H   UNL     1     -11.190  17.618  71.210  1.00  0.00     0.000 HD 
HETATM   23  O   UNL     1     -10.062  19.349  70.048  1.00  0.00     0.172 OA 
HETATM   24  C   UNL     1      -9.846  18.163  69.790  1.00  0.00     0.655 C  
BRANCH  24  25
HETATM   25  C   UNL     1      -9.007  17.844  68.555  1.00  0.00    -0.286 C  
BRANCH  25  26
HETATM   26  C   UNL     1      -9.529  18.037  67.180  1.00  0.00    -0.264 A  
HETATM   27  H2  UNL     1     -11.862  20.014  64.213  1.00  0.00     0.000 HD 
HETATM   28  H1  UNL     1     -11.137  21.137  65.361  1.00  0.00     0.000 HD 
HETATM   29  C   UNL     1      -9.924  16.986  66.358  1.00  0.00    -0.307 A  
HETATM   30  N   UNL     1      -9.888  19.284  66.677  1.00  0.00    -0.341 NA 
HETATM   31  N   UNL     1     -11.259  20.185  65.019  1.00  0.00     0.118 NA 
HETATM   32  S   UNL     1     -10.846  17.556  65.035  1.00  0.00     0.864 SA 
HETATM   33  C   UNL     1     -10.641  19.153  65.609  1.00  0.00    -0.229 A  
ENDBRANCH  25  26
BRANCH  25  34
HETATM   34  N   UNL     1      -7.878  17.188  68.534  1.00  0.00    -0.247 NA 
HETATM   35  H   UNL     1      -7.910  16.199  68.780  1.00  0.00     0.000 HD 
BRANCH  34  36
HETATM   36  O   UNL     1      -6.626  17.724  68.203  1.00  0.00    -0.183 OA 
HETATM   37  C   UNL     1      -5.508  17.428  68.999  1.00  0.00    -0.164 C  
ENDBRANCH  34  36
ENDBRANCH  25  34
ENDBRANCH  24  25
ENDBRANCH   7  21
TORSDOF 8
ENDMDL
MODEL      272
REMARK 921   NORMALIZED FREE ENERGY PREDICTED BY IDOCK:    0.48 KCAL/MOL
REMARK 922        TOTAL FREE ENERGY PREDICTED BY IDOCK:   -0.46 KCAL/MOL
REMARK 923 INTER-LIGAND FREE ENERGY PREDICTED BY IDOCK:   -0.84 KCAL/MOL
REMARK 924 INTRA-LIGAND FREE ENERGY PREDICTED BY IDOCK:    0.38 KCAL/MOL
REMARK 927      BINDING AFFINITY PREDICTED BY RF-SCORE:    0.00 PKD
ROOT
HETATM    1  C   UNL     1      -6.544  13.418  67.201  1.00  0.00     0.399 C  
HETATM    2  S   UNL     1      -7.819  12.675  66.219  1.00  0.00     1.257 SA 
HETATM    3  C   UNL     1      -9.341  13.328  66.950  1.00  0.00    -0.244 C  
HETATM    4  C   UNL     1      -9.235  14.394  68.016  1.00  0.00    -0.193 C  
HETATM    5  O   UNL     1      -5.268  14.509  69.959  1.00  0.00    -0.093 OA 
HETATM    6  CA  UNL     1      -8.092  14.756  68.649  1.00  0.00    -0.153 C  
HETATM    7  CA  UNL     1      -5.397  12.740  68.094  1.00  0.00    -0.081 C  
HETATM    8  N   UNL     1      -6.928  14.103  68.398  1.00  0.00    -0.089 N  
HETATM    9  C   UNL     1      -8.139  15.836  69.694  1.00  0.00    -0.022 C  
HETATM   10  OXT UNL     1      -8.943  16.758  69.642  1.00  0.00     0.195 OA 
HETATM   11  C   UNL     1      -5.712  13.991  68.977  1.00  0.00    -0.088 C  
HETATM   12  O   UNL     1      -7.258  15.775  70.705  1.00  0.00     0.844 OA 
ENDROOT
BRANCH   4  13
HETATM   13  C   UNL     1     -10.627  14.899  68.421  1.00  0.00    -0.244 C  
BRANCH  13  14
HETATM   14  S   UNL     1     -10.823  16.600  67.819  1.00  0.00    -0.242 SA 
BRANCH  14  15
HETATM   15  C   UNL     1     -11.191  16.329  66.159  1.00  0.00     0.284 A  
HETATM   16  N   UNL     1     -11.446  15.180  65.577  1.00  0.00    -0.270 NA 
HETATM   17  C   UNL     1     -10.935  18.715  65.357  1.00  0.00     0.497 C  
HETATM   18  N   UNL     1     -11.522  15.458  64.228  1.00  0.00    -0.246 NA 
HETATM   19  N   UNL     1     -11.144  17.302  65.207  1.00  0.00    -0.319 NA 
HETATM   20  N   UNL     1     -11.333  16.752  63.993  1.00  0.00    -0.980 NA 
ENDBRANCH  14  15
ENDBRANCH  13  14
ENDBRANCH   4  13
BRANCH   7  21
HETATM   21  N   UNL     1      -5.320  11.488  68.978  1.00  0.00    -0.043 N  
HETATM   22  H   UNL     1      -4.536  11.526  69.629  1.00  0.00     0.000 HD 
HETATM   23  O   UNL     1      -5.718   9.503  69.988  1.00  0.00    -0.034 OA 
HETATM   24  C   UNL     1      -6.066  10.298  69.113  1.00  0.00    -0.037 C  
BRANCH  24  25
HETATM   25  C   UNL     1      -7.136   9.843  68.121  1.00  0.00    -0.077 C  
BRANCH  25  26
HETATM   26  C   UNL     1      -6.786   9.266  66.801  1.00  0.00    -0.076 A  
HETATM   27  H2  UNL     1      -7.201   6.472  63.611  1.00  0.00     0.000 HD 
HETATM   28  H1  UNL     1      -8.750   6.918  64.324  1.00  0.00     0.000 HD 
HETATM   29  C   UNL     1      -5.477   9.128  66.349  1.00  0.00    -0.045 A  
HETATM   30  N   UNL     1      -7.710   8.605  65.997  1.00  0.00    -0.099 NA 
HETATM   31  N   UNL     1      -7.737   7.028  64.279  1.00  0.00    -0.112 NA 
HETATM   32  S   UNL     1      -5.400   8.073  65.005  1.00  0.00    -0.032 SA 
HETATM   33  C   UNL     1      -7.098   7.889  65.081  1.00  0.00    -0.060 A  
ENDBRANCH  25  26
BRANCH  25  34
HETATM   34  N   UNL     1      -8.416  10.090  68.195  1.00  0.00    -0.113 NA 
HETATM   35  H   UNL     1      -9.009   9.694  67.465  1.00  0.00     0.000 HD 
BRANCH  34  36
HETATM   36  O   UNL     1      -9.046  10.854  69.187  1.00  0.00    -0.142 OA 
HETATM   37  C   UNL     1     -10.190  10.355  69.829  1.00  0.00    -0.184 C  
ENDBRANCH  34  36
ENDBRANCH  25  34
ENDBRANCH  24  25
ENDBRANCH   7  21
TORSDOF 8
ENDMDL
MODEL      273
REMARK 921   NORMALIZED FREE ENERGY PREDICTED BY IDOCK:    3.12 KCAL/MOL
REMARK 922        TOTAL FREE ENERGY PREDICTED BY IDOCK:    3.42 KCAL/MOL
REMARK 923 INTER-LIGAND FREE ENERGY PREDICTED BY IDOCK:    4.39 KCAL/MOL
REMARK 924 INTRA-LIGAND FREE ENERGY PREDICTED BY IDOCK:   -0.98 KCAL/MOL
REMARK 927      BINDING AFFINITY PREDICTED BY RF-SCORE:    0.00 PKD
ROOT
HETATM    1  C   UNL     1      -9.281   2.152  69.602  1.00  0.00    -0.110 C  
HETATM    2  S   UNL     1     -10.226   3.141  68.475  1.00  0.00     1.765 SA 
HETATM    3  C   UNL     1      -9.259   4.666  68.347  1.00  0.00    -0.128 C  
HETATM    4  C   UNL     1      -7.902   4.722  69.008  1.00  0.00    -0.072 C  
HETATM    5  O   UNL     1      -7.399   1.692  72.184  1.00  0.00    -0.036 OA 
HETATM    6  CA  UNL     1      -7.424   3.811  69.891  1.00  0.00    -0.048 C  
HETATM    7  CA  UNL     1      -9.687   1.523  71.019  1.00  0.00    -0.104 C  
HETATM    8  N   UNL     1      -8.201   2.777  70.304  1.00  0.00    -0.041 N  
HETATM    9  C   UNL     1      -6.049   3.999  70.473  1.00  0.00    -0.018 C  
HETATM   10  OXT UNL     1      -5.149   4.547  69.851  1.00  0.00     0.000 OA 
HETATM   11  C   UNL     1      -8.190   1.871  71.307  1.00  0.00    -0.046 C  
HETATM   12  O   UNL     1      -5.819   3.536  71.711  1.00  0.00    -0.011 OA 
ENDROOT
BRANCH   4  13
HETATM   13  C   UNL     1      -7.193   6.046  68.687  1.00  0.00    -0.084 C  
BRANCH  13  14
HETATM   14  S   UNL     1      -8.440   7.362  68.597  1.00  0.00    -0.129 SA 
BRANCH  14  15
HETATM   15  C   UNL     1      -7.578   8.688  69.276  1.00  0.00    -0.094 A  
HETATM   16  N   UNL     1      -7.685   9.169  70.493  1.00  0.00    -0.117 NA 
HETATM   17  C   UNL     1      -6.286   9.353  67.205  1.00  0.00    -0.065 C  
HETATM   18  N   UNL     1      -6.916  10.314  70.507  1.00  0.00    -0.320 NA 
HETATM   19  N   UNL     1      -6.740   9.489  68.560  1.00  0.00    -0.053 NA 
HETATM   20  N   UNL     1      -6.339  10.519  69.328  1.00  0.00    -0.047 NA 
ENDBRANCH  14  15
ENDBRANCH  13  14
ENDBRANCH   4  13
BRANCH   7  21
HETATM   21  N   UNL     1     -10.561   1.987  72.192  1.00  0.00    -0.015 N  
HETATM   22  H   UNL     1     -11.128   1.229  72.572  1.00  0.00     0.000 HD 
HETATM   23  O   UNL     1     -11.554   3.193  73.829  1.00  0.00    -0.113 OA 
HETATM   24  C   UNL     1     -10.774   3.204  72.875  1.00  0.00    -0.078 C  
BRANCH  24  25
HETATM   25  C   UNL     1     -10.266   4.559  72.386  1.00  0.00    -0.190 C  
BRANCH  25  26
HETATM   26  C   UNL     1     -11.011   5.362  71.387  1.00  0.00    -0.078 A  
HETATM   27  H2  UNL     1     -11.970   8.956  69.310  1.00  0.00     0.000 HD 
HETATM   28  H1  UNL     1     -10.247   8.813  69.652  1.00  0.00     0.000 HD 
HETATM   29  C   UNL     1     -12.377   5.222  71.158  1.00  0.00     3.019 A  
HETATM   30  N   UNL     1     -10.467   6.478  70.758  1.00  0.00    -0.214 NA 
HETATM   31  N   UNL     1     -11.187   8.419  69.685  1.00  0.00     0.002 NA 
HETATM   32  S   UNL     1     -12.988   6.549  70.270  1.00  0.00     2.395 SA 
HETATM   33  C   UNL     1     -11.412   7.209  70.213  1.00  0.00    -0.247 A  
ENDBRANCH  25  26
BRANCH  25  34
HETATM   34  N   UNL     1      -9.077   5.059  72.590  1.00  0.00    -0.131 NA 
HETATM   35  H   UNL     1      -8.557   5.372  71.770  1.00  0.00     0.000 HD 
BRANCH  34  36
HETATM   36  O   UNL     1      -8.453   5.204  73.836  1.00  0.00    -0.110 OA 
HETATM   37  C   UNL     1      -7.483   6.203  74.019  1.00  0.00    -0.087 C  
ENDBRANCH  34  36
ENDBRANCH  25  34
ENDBRANCH  24  25
ENDBRANCH   7  21
TORSDOF 8
ENDMDL
MODEL      274
REMARK 921   NORMALIZED FREE ENERGY PREDICTED BY IDOCK:    3.73 KCAL/MOL
REMARK 922        TOTAL FREE ENERGY PREDICTED BY IDOCK:    4.32 KCAL/MOL
REMARK 923 INTER-LIGAND FREE ENERGY PREDICTED BY IDOCK:    2.19 KCAL/MOL
REMARK 924 INTRA-LIGAND FREE ENERGY PREDICTED BY IDOCK:    2.12 KCAL/MOL
REMARK 927      BINDING AFFINITY PREDICTED BY RF-SCORE:    0.00 PKD
ROOT
HETATM    1  C   UNL     1      -9.703  17.707  65.281  1.00  0.00     1.206 C  
HETATM    2  S   UNL     1     -10.743  19.065  65.744  1.00  0.00    -0.070 SA 
HETATM    3  C   UNL     1      -9.753  19.947  66.976  1.00  0.00    -0.401 C  
HETATM    4  C   UNL     1      -8.326  19.507  67.210  1.00  0.00    -0.327 C  
HETATM    5  O   UNL     1      -7.547  15.374  65.857  1.00  0.00     1.314 OA 
HETATM    6  CA  UNL     1      -7.776  18.358  66.746  1.00  0.00    -0.229 C  
HETATM    7  CA  UNL     1      -9.959  16.127  65.373  1.00  0.00    -0.106 C  
HETATM    8  N   UNL     1      -8.530  17.459  66.064  1.00  0.00    -0.160 N  
HETATM    9  C   UNL     1      -6.338  18.050  67.062  1.00  0.00    -0.169 C  
HETATM   10  OXT UNL     1      -5.501  18.930  67.208  1.00  0.00    -0.156 OA 
HETATM   11  C   UNL     1      -8.429  16.162  65.693  1.00  0.00     0.797 C  
HETATM   12  O   UNL     1      -5.979  16.762  67.175  1.00  0.00    -0.145 OA 
ENDROOT
BRANCH   4  13
HETATM   13  C   UNL     1      -7.621  20.448  68.198  1.00  0.00    -0.090 C  
BRANCH  13  14
HETATM   14  S   UNL     1      -7.461  19.597  69.794  1.00  0.00     0.341 SA 
BRANCH  14  15
HETATM   15  C   UNL     1      -8.781  18.494  69.720  1.00  0.00     1.117 A  
HETATM   16  N   UNL     1     -10.060  18.775  69.798  1.00  0.00     0.383 NA 
HETATM   17  C   UNL     1      -7.431  16.359  69.564  1.00  0.00     0.001 C  
HETATM   18  N   UNL     1     -10.704  17.556  69.847  1.00  0.00     0.416 NA 
HETATM   19  N   UNL     1      -8.630  17.140  69.686  1.00  0.00     0.623 NA 
HETATM   20  N   UNL     1      -9.837  16.552  69.784  1.00  0.00     0.016 NA 
ENDBRANCH  14  15
ENDBRANCH  13  14
ENDBRANCH   4  13
BRANCH   7  21
HETATM   21  N   UNL     1     -10.677  15.209  66.373  1.00  0.00    -0.312 N  
HETATM   22  H   UNL     1     -10.801  15.655  67.282  1.00  0.00     0.000 HD 
HETATM   23  O   UNL     1     -11.764  13.490  67.364  1.00  0.00    -0.337 OA 
HETATM   24  C   UNL     1     -11.205  13.901  66.345  1.00  0.00    -0.315 C  
BRANCH  24  25
HETATM   25  C   UNL     1     -10.952  12.901  65.219  1.00  0.00    -0.283 C  
BRANCH  25  26
HETATM   26  C   UNL     1     -10.451  11.531  65.485  1.00  0.00    -0.275 A  
HETATM   27  H2  UNL     1     -10.043   7.989  67.818  1.00  0.00     0.000 HD 
HETATM   28  H1  UNL     1     -11.655   8.692  67.934  1.00  0.00     0.000 HD 
HETATM   29  C   UNL     1      -9.158  11.117  65.181  1.00  0.00    -0.144 A  
HETATM   30  N   UNL     1     -11.145  10.611  66.266  1.00  0.00     0.047 NA 
HETATM   31  N   UNL     1     -10.717   8.701  67.535  1.00  0.00    -0.211 NA 
HETATM   32  S   UNL     1      -8.780   9.651  65.975  1.00  0.00    -0.144 SA 
HETATM   33  C   UNL     1     -10.353   9.634  66.645  1.00  0.00    -0.208 A  
ENDBRANCH  25  26
BRANCH  25  34
HETATM   34  N   UNL     1     -10.923  13.165  63.940  1.00  0.00    -0.541 NA 
HETATM   35  H   UNL     1     -10.698  14.122  63.667  1.00  0.00     0.000 HD 
BRANCH  34  36
HETATM   36  O   UNL     1     -11.175  12.249  62.910  1.00  0.00    -0.098 OA 
HETATM   37  C   UNL     1     -10.126  11.467  62.400  1.00  0.00     0.652 C  
ENDBRANCH  34  36
ENDBRANCH  25  34
ENDBRANCH  24  25
ENDBRANCH   7  21
TORSDOF 8
ENDMDL
MODEL      275
REMARK 921   NORMALIZED FREE ENERGY PREDICTED BY IDOCK:    6.89 KCAL/MOL
REMARK 922        TOTAL FREE ENERGY PREDICTED BY IDOCK:    8.96 KCAL/MOL
REMARK 923 INTER-LIGAND FREE ENERGY PREDICTED BY IDOCK:    6.46 KCAL/MOL
REMARK 924 INTRA-LIGAND FREE ENERGY PREDICTED BY IDOCK:    2.50 KCAL/MOL
REMARK 927      BINDING AFFINITY PREDICTED BY RF-SCORE:    0.00 PKD
ROOT
HETATM    1  C   UNL     1      -9.675  11.617  65.845  1.00  0.00    -0.235 C  
HETATM    2  S   UNL     1      -8.119  11.807  65.020  1.00  0.00     1.687 SA 
HETATM    3  C   UNL     1      -7.405  10.145  65.089  1.00  0.00    -0.141 C  
HETATM    4  C   UNL     1      -8.255   9.012  65.615  1.00  0.00    -0.120 C  
HETATM    5  O   UNL     1     -11.635  10.395  68.102  1.00  0.00    -0.355 OA 
HETATM    6  CA  UNL     1      -9.438   9.157  66.261  1.00  0.00    -0.237 C  
HETATM    7  CA  UNL     1     -10.251  12.346  67.151  1.00  0.00    -0.216 C  
HETATM    8  N   UNL     1      -9.922  10.393  66.545  1.00  0.00    -0.209 N  
HETATM    9  C   UNL     1     -10.174   7.933  66.733  1.00  0.00    -0.287 C  
HETATM   10  OXT UNL     1     -10.105   6.864  66.141  1.00  0.00     0.069 OA 
HETATM   11  C   UNL     1     -10.866  10.923  67.354  1.00  0.00    -0.279 C  
HETATM   12  O   UNL     1     -10.933   8.038  67.834  1.00  0.00    -0.036 OA 
ENDROOT
BRANCH   4  13
HETATM   13  C   UNL     1      -7.518   7.671  65.482  1.00  0.00    -0.077 C  
BRANCH  13  14
HETATM   14  S   UNL     1      -7.280   6.975  67.141  1.00  0.00    -0.091 SA 
BRANCH  14  15
HETATM   15  C   UNL     1      -6.519   5.476  66.770  1.00  0.00    -0.047 A  
HETATM   16  N   UNL     1      -6.537   4.375  67.484  1.00  0.00    -0.045 NA 
HETATM   17  C   UNL     1      -5.371   6.196  64.633  1.00  0.00    -0.017 C  
HETATM   18  N   UNL     1      -5.663   3.512  66.856  1.00  0.00    -0.022 NA 
HETATM   19  N   UNL     1      -5.685   5.296  65.708  1.00  0.00    -0.017 NA 
HETATM   20  N   UNL     1      -5.134   4.070  65.773  1.00  0.00    -0.008 NA 
ENDBRANCH  14  15
ENDBRANCH  13  14
ENDBRANCH   4  13
BRANCH   7  21
HETATM   21  N   UNL     1      -9.637  12.838  68.470  1.00  0.00    -0.379 N  
HETATM   22  H   UNL     1      -9.603  12.102  69.175  1.00  0.00     0.000 HD 
HETATM   23  O   UNL     1      -8.653  14.070  70.091  1.00  0.00     1.505 OA 
HETATM   24  C   UNL     1      -9.108  14.056  68.946  1.00  0.00     0.050 C  
BRANCH  24  25
HETATM   25  C   UNL     1      -9.247  15.392  68.218  1.00  0.00    -0.188 C  
BRANCH  25  26
HETATM   26  C   UNL     1      -9.538  16.652  68.942  1.00  0.00    -0.252 A  
HETATM   27  H2  UNL     1      -8.553  20.506  70.469  1.00  0.00     0.000 HD 
HETATM   28  H1  UNL     1      -7.826  20.198  68.894  1.00  0.00     0.000 HD 
HETATM   29  C   UNL     1     -10.270  16.704  70.124  1.00  0.00     0.392 A  
HETATM   30  N   UNL     1      -8.918  17.860  68.635  1.00  0.00    -0.283 NA 
HETATM   31  N   UNL     1      -8.429  19.898  69.659  1.00  0.00     0.403 NA 
HETATM   32  S   UNL     1     -10.073  18.214  70.902  1.00  0.00     3.613 SA 
HETATM   33  C   UNL     1      -9.062  18.718  69.619  1.00  0.00     0.664 A  
ENDBRANCH  25  26
BRANCH  25  34
HETATM   34  N   UNL     1      -9.351  15.563  66.928  1.00  0.00    -0.222 NA 
HETATM   35  H   UNL     1      -9.823  16.409  66.607  1.00  0.00     0.000 HD 
BRANCH  34  36
HETATM   36  O   UNL     1      -8.870  14.688  65.944  1.00  0.00     0.115 OA 
HETATM   37  C   UNL     1      -9.447  14.692  64.664  1.00  0.00     1.721 C  
ENDBRANCH  34  36
ENDBRANCH  25  34
ENDBRANCH  24  25
ENDBRANCH   7  21
TORSDOF 8
ENDMDL
MODEL      276
REMARK 921   NORMALIZED FREE ENERGY PREDICTED BY IDOCK:    7.41 KCAL/MOL
REMARK 922        TOTAL FREE ENERGY PREDICTED BY IDOCK:    9.72 KCAL/MOL
REMARK 923 INTER-LIGAND FREE ENERGY PREDICTED BY IDOCK:    8.25 KCAL/MOL
REMARK 924 INTRA-LIGAND FREE ENERGY PREDICTED BY IDOCK:    1.47 KCAL/MOL
REMARK 927      BINDING AFFINITY PREDICTED BY RF-SCORE:    0.00 PKD
ROOT
HETATM    1  C   UNL     1      -9.227  13.516  68.238  1.00  0.00    -0.195 C  
HETATM    2  S   UNL     1     -10.689  12.833  67.506  1.00  0.00    -0.233 SA 
HETATM    3  C   UNL     1     -10.044  11.547  66.407  1.00  0.00    -0.216 C  
HETATM    4  C   UNL     1      -8.569  11.223  66.458  1.00  0.00    -0.170 C  
HETATM    5  O   UNL     1      -6.143  14.472  68.214  1.00  0.00    -0.098 OA 
HETATM    6  CA  UNL     1      -7.627  11.964  67.091  1.00  0.00    -0.154 C  
HETATM    7  CA  UNL     1      -8.659  15.015  68.212  1.00  0.00    -0.156 C  
HETATM    8  N   UNL     1      -7.959  13.135  67.691  1.00  0.00    -0.160 N  
HETATM    9  C   UNL     1      -6.191  11.518  67.054  1.00  0.00    -0.134 C  
HETATM   10  OXT UNL     1      -5.878  10.336  66.996  1.00  0.00    -0.049 OA 
HETATM   11  C   UNL     1      -7.311  14.224  68.164  1.00  0.00    -0.128 C  
HETATM   12  O   UNL     1      -5.236  12.459  67.097  1.00  0.00    -0.248 OA 
ENDROOT
BRANCH   4  13
HETATM   13  C   UNL     1      -8.241  10.032  65.546  1.00  0.00    -0.146 C  
BRANCH  13  14
HETATM   14  S   UNL     1      -8.966  10.339  63.910  1.00  0.00    -0.258 SA 
BRANCH  14  15
HETATM   15  C   UNL     1      -9.136  12.052  63.935  1.00  0.00     0.549 A  
HETATM   16  N   UNL     1      -8.277  12.931  64.392  1.00  0.00     4.416 NA 
HETATM   17  C   UNL     1     -11.478  12.176  62.984  1.00  0.00     0.017 C  
HETATM   18  N   UNL     1      -8.926  14.147  64.336  1.00  0.00     3.272 NA 
HETATM   19  N   UNL     1     -10.277  12.701  63.571  1.00  0.00    -0.357 NA 
HETATM   20  N   UNL     1     -10.151  14.014  63.841  1.00  0.00     0.953 NA 
ENDBRANCH  14  15
ENDBRANCH  13  14
ENDBRANCH   4  13
BRANCH   7  21
HETATM   21  N   UNL     1      -8.636  16.141  67.169  1.00  0.00    -0.176 N  
HETATM   22  H   UNL     1      -8.016  15.928  66.389  1.00  0.00     0.000 HD 
HETATM   23  O   UNL     1      -9.024  18.037  65.998  1.00  0.00    -0.502 OA 
HETATM   24  C   UNL     1      -9.262  17.397  67.024  1.00  0.00    -0.246 C  
BRANCH  24  25
HETATM   25  C   UNL     1     -10.044  18.096  68.135  1.00  0.00    -0.378 C  
BRANCH  25  26
HETATM   26  C   UNL     1     -10.887  17.343  69.094  1.00  0.00     0.117 A  
HETATM   27  H2  UNL     1     -11.622  14.273  71.955  1.00  0.00     0.000 HD 
HETATM   28  H1  UNL     1     -10.005  14.958  72.101  1.00  0.00     0.000 HD 
HETATM   29  C   UNL     1     -12.217  17.016  68.851  1.00  0.00     2.203 A  
HETATM   30  N   UNL     1     -10.367  16.699  70.213  1.00  0.00     0.237 NA 
HETATM   31  N   UNL     1     -10.922  14.953  71.656  1.00  0.00     0.091 NA 
HETATM   32  S   UNL     1     -12.764  15.817  69.940  1.00  0.00     0.432 SA 
HETATM   33  C   UNL     1     -11.225  15.825  70.686  1.00  0.00    -0.372 A  
ENDBRANCH  25  26
BRANCH  25  34
HETATM   34  N   UNL     1     -10.249  19.381  68.247  1.00  0.00    -0.424 NA 
HETATM   35  H   UNL     1     -11.103  19.754  67.832  1.00  0.00     0.000 HD 
BRANCH  34  36
HETATM   36  O   UNL     1      -9.398  20.293  68.886  1.00  0.00     0.084 OA 
HETATM   37  C   UNL     1      -8.398  19.824  69.753  1.00  0.00     0.677 C  
ENDBRANCH  34  36
ENDBRANCH  25  34
ENDBRANCH  24  25
ENDBRANCH   7  21
TORSDOF 8
ENDMDL
MODEL      277
REMARK 921   NORMALIZED FREE ENERGY PREDICTED BY IDOCK:    7.74 KCAL/MOL
REMARK 922        TOTAL FREE ENERGY PREDICTED BY IDOCK:   10.20 KCAL/MOL
REMARK 923 INTER-LIGAND FREE ENERGY PREDICTED BY IDOCK:    7.78 KCAL/MOL
REMARK 924 INTRA-LIGAND FREE ENERGY PREDICTED BY IDOCK:    2.42 KCAL/MOL
REMARK 927      BINDING AFFINITY PREDICTED BY RF-SCORE:    0.00 PKD
ROOT
HETATM    1  C   UNL     1      -7.692  11.213  65.879  1.00  0.00     0.062 C  
HETATM    2  S   UNL     1      -8.171  11.963  64.347  1.00  0.00     2.322 SA 
HETATM    3  C   UNL     1      -8.891  13.542  64.863  1.00  0.00     2.714 C  
HETATM    4  C   UNL     1      -8.791  13.944  66.316  1.00  0.00     0.207 C  
HETATM    5  O   UNL     1      -8.056  10.521  69.011  1.00  0.00    -0.124 OA 
HETATM    6  CA  UNL     1      -8.410  13.127  67.329  1.00  0.00    -0.179 C  
HETATM    7  CA  UNL     1      -8.141   9.822  66.536  1.00  0.00    -0.116 C  
HETATM    8  N   UNL     1      -8.145  11.817  67.096  1.00  0.00    -0.163 N  
HETATM    9  C   UNL     1      -8.360  13.668  68.732  1.00  0.00     0.041 C  
HETATM   10  OXT UNL     1      -8.100  14.840  68.969  1.00  0.00    -0.152 OA 
HETATM   11  C   UNL     1      -8.005  10.690  67.829  1.00  0.00    -0.110 C  
HETATM   12  O   UNL     1      -8.602  12.820  69.744  1.00  0.00     1.719 OA 
ENDROOT
BRANCH   4  13
HETATM   13  C   UNL     1      -9.350  15.358  66.530  1.00  0.00    -0.282 C  
BRANCH  13  14
HETATM   14  S   UNL     1      -8.120  16.335  67.439  1.00  0.00    -0.166 SA 
BRANCH  14  15
HETATM   15  C   UNL     1      -8.843  17.897  67.409  1.00  0.00    -0.245 A  
HETATM   16  N   UNL     1      -9.460  18.508  68.393  1.00  0.00    -0.327 NA 
HETATM   17  C   UNL     1      -8.420  18.423  64.971  1.00  0.00     3.045 C  
HETATM   18  N   UNL     1      -9.994  19.653  67.840  1.00  0.00    -0.385 NA 
HETATM   19  N   UNL     1      -8.958  18.654  66.282  1.00  0.00    -0.445 NA 
HETATM   20  N   UNL     1      -9.697  19.747  66.549  1.00  0.00    -0.390 NA 
ENDBRANCH  14  15
ENDBRANCH  13  14
ENDBRANCH   4  13
BRANCH   7  21
HETATM   21  N   UNL     1      -9.453   9.026  66.582  1.00  0.00    -0.177 N  
HETATM   22  H   UNL     1     -10.238   9.558  66.207  1.00  0.00     0.000 HD 
HETATM   23  O   UNL     1     -11.020   7.418  66.857  1.00  0.00    -0.324 OA 
HETATM   24  C   UNL     1      -9.841   7.740  67.014  1.00  0.00    -0.219 C  
BRANCH  24  25
HETATM   25  C   UNL     1      -8.953   6.812  67.842  1.00  0.00    -0.113 C  
BRANCH  25  26
HETATM   26  C   UNL     1      -7.515   7.097  68.065  1.00  0.00    -0.099 A  
HETATM   27  H2  UNL     1      -4.241   8.898  70.111  1.00  0.00     0.000 HD 
HETATM   28  H1  UNL     1      -5.518   8.377  71.208  1.00  0.00     0.000 HD 
HETATM   29  C   UNL     1      -6.616   7.347  67.033  1.00  0.00    -0.061 A  
HETATM   30  N   UNL     1      -6.985   7.366  69.323  1.00  0.00    -0.063 NA 
HETATM   31  N   UNL     1      -5.140   8.439  70.263  1.00  0.00    -0.022 NA 
HETATM   32  S   UNL     1      -5.169   8.034  67.633  1.00  0.00    -0.034 SA 
HETATM   33  C   UNL     1      -5.803   7.929  69.217  1.00  0.00    -0.030 A  
ENDBRANCH  25  26
BRANCH  25  34
HETATM   34  N   UNL     1      -9.256   5.608  68.247  1.00  0.00    -0.110 NA 
HETATM   35  H   UNL     1      -9.348   5.465  69.253  1.00  0.00     0.000 HD 
BRANCH  34  36
HETATM   36  O   UNL     1      -9.466   4.496  67.421  1.00  0.00    -0.141 OA 
HETATM   37  C   UNL     1     -10.738   3.906  67.354  1.00  0.00     2.144 C  
ENDBRANCH  34  36
ENDBRANCH  25  34
ENDBRANCH  24  25
ENDBRANCH   7  21
TORSDOF 8
ENDMDL
MODEL      278
REMARK 921   NORMALIZED FREE ENERGY PREDICTED BY IDOCK:    8.23 KCAL/MOL
REMARK 922        TOTAL FREE ENERGY PREDICTED BY IDOCK:   10.93 KCAL/MOL
REMARK 923 INTER-LIGAND FREE ENERGY PREDICTED BY IDOCK:    5.80 KCAL/MOL
REMARK 924 INTRA-LIGAND FREE ENERGY PREDICTED BY IDOCK:    5.13 KCAL/MOL
REMARK 927      BINDING AFFINITY PREDICTED BY RF-SCORE:    0.00 PKD
ROOT
HETATM    1  C   UNL     1      -8.199  15.331  70.271  1.00  0.00     0.799 C  
HETATM    2  S   UNL     1      -9.717  15.743  69.454  1.00  0.00    -0.284 SA 
HETATM    3  C   UNL     1     -10.092  14.254  68.496  1.00  0.00    -0.246 C  
HETATM    4  C   UNL     1      -9.234  13.027  68.697  1.00  0.00     0.032 C  
HETATM    5  O   UNL     1      -5.290  13.945  70.464  1.00  0.00    -0.101 OA 
HETATM    6  CA  UNL     1      -8.055  12.998  69.366  1.00  0.00     0.919 C  
HETATM    7  CA  UNL     1      -6.762  16.040  70.207  1.00  0.00     0.400 C  
HETATM    8  N   UNL     1      -7.516  14.140  69.863  1.00  0.00     0.314 N  
HETATM    9  C   UNL     1      -7.306  11.699  69.484  1.00  0.00     0.191 C  
HETATM   10  OXT UNL     1      -7.880  10.618  69.524  1.00  0.00    -0.144 OA 
HETATM   11  C   UNL     1      -6.313  14.547  70.326  1.00  0.00    -0.170 C  
HETATM   12  O   UNL     1      -5.967  11.746  69.554  1.00  0.00    -0.072 OA 
ENDROOT
BRANCH   4  13
HETATM   13  C   UNL     1      -9.782  11.840  67.891  1.00  0.00    -0.185 C  
BRANCH  13  14
HETATM   14  S   UNL     1      -9.985  10.425  69.009  1.00  0.00    -0.224 SA 
BRANCH  14  15
HETATM   15  C   UNL     1     -10.254   9.147  67.888  1.00  0.00    -0.216 A  
HETATM   16  N   UNL     1     -10.234   9.218  66.578  1.00  0.00    -0.266 NA 
HETATM   17  C   UNL     1     -10.780   7.327  69.565  1.00  0.00    -0.232 C  
HETATM   18  N   UNL     1     -10.658   7.983  66.133  1.00  0.00     0.753 NA 
HETATM   19  N   UNL     1     -10.645   7.894  68.253  1.00  0.00    -0.156 NA 
HETATM   20  N   UNL     1     -10.916   7.170  67.151  1.00  0.00    -0.332 NA 
ENDBRANCH  14  15
ENDBRANCH  13  14
ENDBRANCH   4  13
BRANCH   7  21
HETATM   21  N   UNL     1      -5.954  16.738  69.104  1.00  0.00    -0.156 N  
HETATM   22  H   UNL     1      -4.965  16.492  69.139  1.00  0.00     0.000 HD 
HETATM   23  O   UNL     1      -5.313  17.967  67.317  1.00  0.00    -0.126 OA 
HETATM   24  C   UNL     1      -6.243  17.636  68.054  1.00  0.00    -0.158 C  
BRANCH  24  25
HETATM   25  C   UNL     1      -7.571  18.373  67.900  1.00  0.00    -0.246 C  
BRANCH  25  26
HETATM   26  C   UNL     1      -8.200  19.100  69.030  1.00  0.00    -0.221 A  
HETATM   27  H2  UNL     1      -8.573  20.232  73.120  1.00  0.00     0.000 HD 
HETATM   28  H1  UNL     1      -6.892  20.081  72.612  1.00  0.00     0.000 HD 
HETATM   29  C   UNL     1      -9.577  19.235  69.181  1.00  0.00    -0.297 A  
HETATM   30  N   UNL     1      -7.489  19.509  70.154  1.00  0.00     0.381 NA 
HETATM   31  N   UNL     1      -7.886  20.055  72.386  1.00  0.00     2.057 NA 
HETATM   32  S   UNL     1      -9.973  19.749  70.763  1.00  0.00     2.068 SA 
HETATM   33  C   UNL     1      -8.306  19.793  71.142  1.00  0.00     2.546 A  
ENDBRANCH  25  26
BRANCH  25  34
HETATM   34  N   UNL     1      -8.395  18.283  66.892  1.00  0.00    -0.239 NA 
HETATM   35  H   UNL     1      -8.008  17.968  66.001  1.00  0.00     0.000 HD 
BRANCH  34  36
HETATM   36  O   UNL     1      -9.764  18.581  66.924  1.00  0.00    -0.298 OA 
HETATM   37  C   UNL     1     -10.663  17.671  67.502  1.00  0.00    -0.290 C  
ENDBRANCH  34  36
ENDBRANCH  25  34
ENDBRANCH  24  25
ENDBRANCH   7  21
TORSDOF 8
ENDMDL
MODEL      279
REMARK 921   NORMALIZED FREE ENERGY PREDICTED BY IDOCK:   13.62 KCAL/MOL
REMARK 922        TOTAL FREE ENERGY PREDICTED BY IDOCK:   18.83 KCAL/MOL
REMARK 923 INTER-LIGAND FREE ENERGY PREDICTED BY IDOCK:   13.34 KCAL/MOL
REMARK 924 INTRA-LIGAND FREE ENERGY PREDICTED BY IDOCK:    5.49 KCAL/MOL
REMARK 927      BINDING AFFINITY PREDICTED BY RF-SCORE:    0.00 PKD
ROOT
HETATM    1  C   UNL     1      -8.438  18.624  65.370  1.00  0.00     1.332 C  
HETATM    2  S   UNL     1      -8.687  20.376  65.456  1.00  0.00     0.865 SA 
HETATM    3  C   UNL     1      -7.973  20.820  67.060  1.00  0.00    -0.164 C  
HETATM    4  C   UNL     1      -7.230  19.762  67.841  1.00  0.00    -0.313 C  
HETATM    5  O   UNL     1      -8.282  15.649  66.615  1.00  0.00    -0.257 OA 
HETATM    6  CA  UNL     1      -7.237  18.435  67.562  1.00  0.00    -0.209 C  
HETATM    7  CA  UNL     1      -9.500  17.433  65.216  1.00  0.00     1.377 C  
HETATM    8  N   UNL     1      -8.003  17.946  66.554  1.00  0.00    -0.255 N  
HETATM    9  C   UNL     1      -6.449  17.495  68.433  1.00  0.00    -0.183 C  
HETATM   10  OXT UNL     1      -5.416  17.838  68.992  1.00  0.00    -0.175 OA 
HETATM   11  C   UNL     1      -8.463  16.738  66.157  1.00  0.00    -0.263 C  
HETATM   12  O   UNL     1      -6.904  16.242  68.582  1.00  0.00    -0.130 OA 
ENDROOT
BRANCH   4  13
HETATM   13  C   UNL     1      -6.601  20.360  69.108  1.00  0.00    -0.167 C  
BRANCH  13  14
HETATM   14  S   UNL     1      -6.981  19.274  70.511  1.00  0.00     0.922 SA 
BRANCH  14  15
HETATM   15  C   UNL     1      -8.590  18.790  70.136  1.00  0.00     1.915 A  
HETATM   16  N   UNL     1      -8.972  17.684  69.542  1.00  0.00     0.473 NA 
HETATM   17  C   UNL     1      -9.771  20.873  70.955  1.00  0.00     2.415 C  
HETATM   18  N   UNL     1     -10.327  17.828  69.328  1.00  0.00    -0.217 NA 
HETATM   19  N   UNL     1      -9.679  19.588  70.319  1.00  0.00     0.640 NA 
HETATM   20  N   UNL     1     -10.765  18.991  69.795  1.00  0.00     1.208 NA 
ENDBRANCH  14  15
ENDBRANCH  13  14
ENDBRANCH   4  13
BRANCH   7  21
HETATM   21  N   UNL     1     -10.922  17.184  65.738  1.00  0.00    -0.018 N  
HETATM   22  H   UNL     1     -11.524  17.998  65.615  1.00  0.00     0.000 HD 
HETATM   23  O   UNL     1     -12.795  16.261  66.608  1.00  0.00     3.244 OA 
HETATM   24  C   UNL     1     -11.601  16.107  66.347  1.00  0.00     0.730 C  
BRANCH  24  25
HETATM   25  C   UNL     1     -10.910  14.856  66.886  1.00  0.00    -0.319 C  
BRANCH  25  26
HETATM   26  C   UNL     1     -10.856  14.552  68.336  1.00  0.00    -0.243 A  
HETATM   27  H2  UNL     1     -11.838  15.223  72.427  1.00  0.00     0.000 HD 
HETATM   28  H1  UNL     1     -13.190  15.551  71.346  1.00  0.00     0.000 HD 
HETATM   29  C   UNL     1      -9.694  14.160  68.993  1.00  0.00     0.009 A  
HETATM   30  N   UNL     1     -11.898  14.851  69.209  1.00  0.00    -0.313 NA 
HETATM   31  N   UNL     1     -12.232  15.232  71.486  1.00  0.00    -0.318 NA 
HETATM   32  S   UNL     1      -9.873  14.291  70.689  1.00  0.00     2.807 SA 
HETATM   33  C   UNL     1     -11.481  14.825  70.454  1.00  0.00    -0.252 A  
ENDBRANCH  25  26
BRANCH  25  34
HETATM   34  N   UNL     1     -10.127  14.054  66.215  1.00  0.00    -0.291 NA 
HETATM   35  H   UNL     1      -9.585  14.463  65.453  1.00  0.00     0.000 HD 
BRANCH  34  36
HETATM   36  O   UNL     1      -9.965  12.682  66.450  1.00  0.00    -0.243 OA 
HETATM   37  C   UNL     1     -10.308  11.758  65.449  1.00  0.00    -0.268 C  
ENDBRANCH  34  36
ENDBRANCH  25  34
ENDBRANCH  24  25
ENDBRANCH   7  21
TORSDOF 8
ENDMDL
MODEL      280
REMARK 921   NORMALIZED FREE ENERGY PREDICTED BY IDOCK:   13.67 KCAL/MOL
REMARK 922        TOTAL FREE ENERGY PREDICTED BY IDOCK:   18.90 KCAL/MOL
REMARK 923 INTER-LIGAND FREE ENERGY PREDICTED BY IDOCK:   13.34 KCAL/MOL
REMARK 924 INTRA-LIGAND FREE ENERGY PREDICTED BY IDOCK:    5.56 KCAL/MOL
REMARK 927      BINDING AFFINITY PREDICTED BY RF-SCORE:    0.00 PKD
ROOT
HETATM    1  C   UNL     1     -10.054  12.598  70.012  1.00  0.00     2.374 C  
HETATM    2  S   UNL     1      -9.659  11.744  68.510  1.00  0.00    -0.128 SA 
HETATM    3  C   UNL     1     -10.001  12.977  67.228  1.00  0.00    -0.232 C  
HETATM    4  C   UNL     1     -10.344  14.386  67.650  1.00  0.00    -0.237 C  
HETATM    5  O   UNL     1     -11.776  14.643  71.822  1.00  0.00    -0.318 OA 
HETATM    6  CA  UNL     1     -10.647  14.772  68.914  1.00  0.00    -0.250 C  
HETATM    7  CA  UNL     1     -11.122  12.245  71.154  1.00  0.00     3.396 C  
HETATM    8  N   UNL     1     -10.728  13.858  69.914  1.00  0.00     0.245 N  
HETATM    9  C   UNL     1     -10.972  16.215  69.185  1.00  0.00    -0.309 C  
HETATM   10  OXT UNL     1     -10.477  17.127  68.537  1.00  0.00    -0.336 OA 
HETATM   11  C   UNL     1     -11.230  13.805  71.168  1.00  0.00     1.532 C  
HETATM   12  O   UNL     1     -11.827  16.493  70.181  1.00  0.00     0.082 OA 
ENDROOT
BRANCH   4  13
HETATM   13  C   UNL     1     -10.480  15.304  66.426  1.00  0.00    -0.303 C  
BRANCH  13  14
HETATM   14  S   UNL     1     -10.022  14.362  64.944  1.00  0.00     0.119 SA 
BRANCH  14  15
HETATM   15  C   UNL     1     -11.111  13.032  65.040  1.00  0.00    -0.294 A  
HETATM   16  N   UNL     1     -10.929  11.817  64.578  1.00  0.00    -0.313 NA 
HETATM   17  C   UNL     1     -13.029  14.243  66.162  1.00  0.00     0.257 C  
HETATM   18  N   UNL     1     -12.133  11.169  64.757  1.00  0.00     0.615 NA 
HETATM   19  N   UNL     1     -12.380  13.131  65.525  1.00  0.00    -0.462 NA 
HETATM   20  N   UNL     1     -13.027  11.966  65.331  1.00  0.00     1.099 NA 
ENDBRANCH  14  15
ENDBRANCH  13  14
ENDBRANCH   4  13
BRANCH   7  21
HETATM   21  N   UNL     1     -12.528  11.628  71.160  1.00  0.00    -0.349 N  
HETATM   22  H   UNL     1     -13.221  12.257  71.564  1.00  0.00     0.000 HD 
HETATM   23  O   UNL     1     -14.314  10.269  70.878  1.00  0.00     0.980 OA 
HETATM   24  C   UNL     1     -13.097  10.405  70.744  1.00  0.00    -0.286 C  
BRANCH  24  25
HETATM   25  C   UNL     1     -12.283   9.179  70.335  1.00  0.00     0.211 C  
BRANCH  25  26
HETATM   26  C   UNL     1     -11.254   9.240  69.269  1.00  0.00     0.092 A  
HETATM   27  H2  UNL     1      -9.667   8.325  65.423  1.00  0.00     0.000 HD 
HETATM   28  H1  UNL     1     -11.410   8.589  65.389  1.00  0.00     0.000 HD 
HETATM   29  C   UNL     1      -9.888   9.156  69.519  1.00  0.00    -0.178 A  
HETATM   30  N   UNL     1     -11.564   9.155  67.915  1.00  0.00     1.031 NA 
HETATM   31  N   UNL     1     -10.531   8.573  65.907  1.00  0.00     0.814 NA 
HETATM   32  S   UNL     1      -9.019   8.844  68.080  1.00  0.00    -0.140 SA 
HETATM   33  C   UNL     1     -10.492   8.872  67.212  1.00  0.00    -0.277 A  
ENDBRANCH  25  26
BRANCH  25  34
HETATM   34  N   UNL     1     -12.521   7.942  70.680  1.00  0.00    -0.489 NA 
HETATM   35  H   UNL     1     -12.167   7.635  71.586  1.00  0.00     0.000 HD 
BRANCH  34  36
HETATM   36  O   UNL     1     -13.219   6.999  69.914  1.00  0.00     1.539 OA 
HETATM   37  C   UNL     1     -12.534   6.230  68.959  1.00  0.00     3.860 C  
ENDBRANCH  34  36
ENDBRANCH  25  34
ENDBRANCH  24  25
ENDBRANCH   7  21
TORSDOF 8
ENDMDL
